# generated using pymatgen
data_CuH14C24(NO2)2
_symmetry_space_group_name_H-M   'P 1'
_cell_length_a   13.89139527
_cell_length_b   18.05767949
_cell_length_c   23.85473354
_cell_angle_alpha   90.01224340
_cell_angle_beta   93.59717448
_cell_angle_gamma   89.97816703
_symmetry_Int_Tables_number   1
_chemical_formula_structural   CuH14C24(NO2)2
_chemical_formula_sum   'Cu4 H56 C96 N8 O16'
_cell_volume   5972.08333626
_cell_formula_units_Z   4
loop_
 _symmetry_equiv_pos_site_id
 _symmetry_equiv_pos_as_xyz
  1  'x, y, z'
loop_
 _atom_site_type_symbol
 _atom_site_label
 _atom_site_symmetry_multiplicity
 _atom_site_fract_x
 _atom_site_fract_y
 _atom_site_fract_z
 _atom_site_occupancy
 _atom_site_pbe_bader_charge
 _atom_site_pbe_bader_spin_density
 _atom_site_pbe_cm5_charge
 _atom_site_pbe_ddec_charge
 _atom_site_pbe_ddec_spin_density
 _atom_site_pbe_ddec_sum_bond_order
 _atom_site_pbe_magmom
Cu  Cu0  1  0.45292978  0.44507518  0.51941503  1  1.072778  0.552604  0.682977  0.765833  0.74246  2.404878  0.55
Cu  Cu1  1  0.04672457  0.94552764  0.98073763  1  1.077687  -0.584399  0.68518  0.769197  -0.752084  2.404876  -0.585
Cu  Cu2  1  0.54708152  0.55493991  0.48057960  1  1.072987  -0.552619  0.683089  0.765999  -0.706215  2.40494  -0.55
Cu  Cu3  1  0.95327372  0.05447583  0.01926279  1  1.078122  -0.584352  0.68505  0.768839  -0.751988  2.404831  -0.585
H  H4  1  0.15553638  0.50234263  0.46853899  1  0.090452  0.000395  0.103214  0.107816  0.00033  1.001572  0.0
H  H5  1  0.34451258  0.00233024  0.03144906  1  0.090082  -0.000442  0.103041  0.107759  -0.000332  1.001325  0.0
H  H6  1  0.84446263  0.49765751  0.53146145  1  0.090443  -0.000395  0.103232  0.107823  -0.000316  1.001584  0.0
H  H7  1  0.65548426  0.99767323  0.96855046  1  0.090125  -0.000443  0.103062  0.107713  -0.000332  1.001334  0.0
H  H8  1  0.00314654  0.55921160  0.42865203  1  0.077515  -0.000189  0.099124  0.097485  -0.000101  1.009569  0.0
H  H9  1  0.49698121  0.05918130  0.07134120  1  0.075238  -0.000252  0.099135  0.097611  -0.000126  1.009748  0.0
H  H10  1  0.99685247  0.44079020  0.57134883  1  0.077375  0.000191  0.099148  0.097507  0.000107  1.009583  0.0
H  H11  1  0.50301275  0.94082051  0.92865904  1  0.075122  -0.000252  0.099155  0.097671  -0.000126  1.009672  0.0
H  H12  1  0.16675433  0.72461422  0.34633112  1  0.056587  0.000198  0.103897  0.105251  0.000108  1.012564  0.0
H  H13  1  0.33324840  0.22468501  0.15370938  1  0.05568  -0.000255  0.104054  0.105667  -0.000128  1.012573  0.0
H  H14  1  0.83324611  0.27538647  0.65366979  1  0.056602  -0.000199  0.103911  0.10525  -0.000104  1.012502  0.0
H  H15  1  0.66674989  0.77531679  0.84629145  1  0.055493  -0.000255  0.10406  0.105662  -0.000128  1.012628  0.0
H  H16  1  0.31996401  0.66781570  0.38787674  1  0.078222  -0.000291  0.105813  0.111696  -0.000241  0.997912  0.0
H  H17  1  0.18002209  0.16783659  0.11213877  1  0.078888  -0.00033  0.105695  0.111429  -0.000254  0.997895  0.0
H  H18  1  0.68003500  0.33218334  0.61212328  1  0.07832  0.000291  0.105825  0.111706  0.000252  0.997848  0.0
H  H19  1  0.81997476  0.83216576  0.88786117  1  0.078846  -0.00033  0.105691  0.111474  -0.000254  0.997867  0.0
H  H20  1  0.85650497  0.96265495  0.17278621  1  0.096729  -0.000401  0.105266  0.111234  -0.000306  0.996807  0.0
H  H21  1  0.64344452  0.46263427  0.32722850  1  0.096437  -0.000348  0.105361  0.11135  -0.000286  0.997064  0.0
H  H22  1  0.14349837  0.03734575  0.82721356  1  0.096883  -0.0004  0.105274  0.11129  -0.000305  0.996702  0.0
H  H23  1  0.35655521  0.53736587  0.67277155  1  0.096472  0.000348  0.105372  0.111349  0.0003  0.997063  0.0
H  H24  1  0.83102720  0.89164414  0.26005631  1  0.04615  -0.000257  0.09852  0.095695  -0.000128  1.010097  0.0
H  H25  1  0.66889694  0.39161852  0.23999195  1  0.047455  0.0002  0.098507  0.095784  0.00011  1.010167  0.0
H  H26  1  0.16897037  0.10835655  0.73994323  1  0.046064  -0.000257  0.098516  0.095669  -0.000128  1.010178  0.0
H  H27  1  0.33110567  0.60838217  0.76000946  1  0.047499  -0.000198  0.098487  0.095777  -0.000105  1.010209  0.0
H  H28  1  0.03695323  0.72874612  0.21253942  1  0.111299  -0.000251  0.1038  0.105111  -0.00013  1.007134  0.0
H  H29  1  0.46309891  0.22881607  0.28747600  1  0.111653  -0.000196  0.103997  0.105348  -0.000106  1.0067  0.0
H  H30  1  0.96304362  0.27125512  0.78745968  1  0.111191  -0.000251  0.103782  0.105076  -0.00013  1.007114  0.0
H  H31  1  0.53690443  0.77118352  0.71252461  1  0.111573  0.000196  0.104025  0.10535  0.000111  1.006669  0.0
H  H32  1  0.05893854  0.79926099  0.12345021  1  0.117242  -0.000347  0.106905  0.113818  -0.000267  0.993041  0.0
H  H33  1  0.44110078  0.29928665  0.37655942  1  0.118925  0.00031  0.106907  0.113997  0.000268  0.993443  0.0
H  H34  1  0.94106190  0.20073804  0.87655070  1  0.117245  -0.000347  0.10693  0.113812  -0.000267  0.993084  0.0
H  H35  1  0.55890184  0.70071239  0.62344116  1  0.118898  -0.00031  0.10694  0.114055  -0.000256  0.993428  0.0
H  H36  1  0.76701542  0.79008939  0.29833795  1  0.080723  -9e-06  0.104477  0.111521  -7e-06  1.017926  0.0
H  H37  1  0.73295119  0.29007850  0.20165979  1  0.080334  1.5e-05  0.104415  0.111158  1e-05  1.018054  0.0
H  H38  1  0.23298287  0.20990853  0.70166204  1  0.080311  -1.7e-05  0.104491  0.111493  -1.2e-05  1.017971  0.0
H  H39  1  0.26705215  0.70991887  0.79833998  1  0.08053  -6e-06  0.104387  0.111152  -3e-06  1.018111  0.0
H  H40  1  0.89666500  0.65149798  0.42937081  1  0.068506  -4e-06  0.105683  0.112999  -5e-06  1.017138  0.0
H  H41  1  0.60334789  0.15148866  0.07061327  1  0.068885  -7e-06  0.105789  0.113159  -9e-06  1.017057  0.0
H  H42  1  0.10333400  0.34850327  0.57063005  1  0.068525  6e-06  0.105692  0.112998  7e-06  1.01714  0.0
H  H43  1  0.39665039  0.84851037  0.92938756  1  0.068865  -5e-06  0.105809  0.113187  -8e-06  1.01699  0.0
H  H44  1  0.73155231  0.60431206  0.41956979  1  0.133191  6.9e-05  0.121087  0.094124  5.5e-05  0.983063  0.0
H  H45  1  0.76850118  0.10433077  0.08041908  1  0.133604  8.7e-05  0.120959  0.094153  6.1e-05  0.983289  0.0
H  H46  1  0.26844814  0.39568697  0.58043070  1  0.133147  -6.7e-05  0.121064  0.094095  -5.2e-05  0.983053  0.0
H  H47  1  0.23149855  0.89566161  0.91958097  1  0.133704  8.7e-05  0.120984  0.094218  6.1e-05  0.983348  0.0
H  H48  1  0.69624167  0.83615689  0.37875520  1  0.085474  9e-06  0.110141  0.107475  7e-06  0.986721  0.0
H  H49  1  0.80371573  0.33617623  0.12126143  1  0.084852  1.3e-05  0.110048  0.107445  1e-05  0.986564  0.0
H  H50  1  0.30375516  0.16384214  0.62124641  1  0.085371  -9e-06  0.110115  0.107452  -7e-06  0.986722  0.0
H  H51  1  0.19628908  0.66381505  0.87873379  1  0.084882  1e-05  0.110195  0.107758  8e-06  0.986437  0.0
H  H52  1  0.54095974  0.83303767  0.42715592  1  0.090324  3.1e-05  0.112291  0.11537  1.4e-05  0.983255  0.0
H  H53  1  0.95898840  0.33299952  0.07285271  1  0.091708  3.2e-05  0.112206  0.115282  1.5e-05  0.983008  0.0
H  H54  1  0.45903853  0.16695970  0.57284659  1  0.0902  -3.1e-05  0.112259  0.115315  -1.3e-05  0.983257  0.0
H  H55  1  0.04101569  0.66699453  0.92714289  1  0.091438  3.2e-05  0.112185  0.115283  1.5e-05  0.982871  0.0
H  H56  1  0.49088496  0.71311270  0.47070261  1  0.097756  9e-05  0.122107  0.096749  6.3e-05  0.984605  0.0
H  H57  1  0.00911496  0.21306451  0.02928937  1  0.098691  0.000127  0.122104  0.096556  7.2e-05  0.984126  0.0
H  H58  1  0.50911404  0.28688467  0.52929825  1  0.097834  -9e-05  0.122106  0.096711  -6e-05  0.984601  0.0
H  H59  1  0.99088768  0.78692622  0.97070786  1  0.098674  0.000126  0.122132  0.096824  7.2e-05  0.984503  0.0
C  C60  1  0.33854705  0.54946305  0.45658428  1  1.545013  -0.000579  0.212313  0.575249  -0.000356  4.164043  -0.001
C  C61  1  0.16173544  0.04956412  0.04351565  1  1.543166  0.001707  0.212362  0.576131  -0.000661  4.161091  0.004
C  C62  1  0.66145196  0.45053765  0.54341575  1  1.545433  0.000575  0.212326  0.575159  0.00064  4.16424  0.001
C  C63  1  0.83826646  0.95043436  0.95648238  1  1.543465  0.001708  0.21229  0.575983  -0.000662  4.161507  0.004
C  C64  1  0.24681416  0.58224401  0.43122946  1  0.003851  0.00024  -0.01454  -0.020326  0.000252  3.955125  0.0
C  C65  1  0.25333263  0.08230543  0.06879594  1  0.002882  -0.016452  -0.015952  -0.022711  -0.01152  3.958034  -0.013
C  C66  1  0.75318413  0.41775668  0.56877053  1  0.003204  -0.000268  -0.014539  -0.020316  -0.00015  3.955129  0.0
C  C67  1  0.74666277  0.91770025  0.93120520  1  0.002406  -0.016452  -0.015802  -0.022491  -0.011519  3.958016  -0.013
C  C68  1  0.15724899  0.55166617  0.44232373  1  0.00782  -0.000906  -0.085501  -0.091006  -0.000541  3.987889  -0.001
C  C69  1  0.34287796  0.05167219  0.05768124  1  0.009904  -0.000502  -0.085635  -0.091079  -0.000418  3.98727  0.0
C  C70  1  0.84275002  0.44833452  0.55767629  1  0.008003  0.000915  -0.085548  -0.091046  0.0006  3.987861  0.001
C  C71  1  0.65711673  0.94833238  0.94231819  1  0.010255  -0.000501  -0.085686  -0.09097  -0.000419  3.987255  0.0
C  C72  1  0.07228368  0.58398029  0.42000876  1  -0.072868  -0.000629  -0.092714  -0.133412  -0.000454  3.998607  0.0
C  C73  1  0.42782850  0.08397047  0.07999713  1  -0.071817  -0.001021  -0.092594  -0.133788  -0.000596  3.998076  -0.001
C  C74  1  0.92771532  0.41602151  0.57999126  1  -0.072339  0.000609  -0.092739  -0.133418  0.00046  3.998682  0.0
C  C75  1  0.57216691  0.91603133  0.92000149  1  -0.071849  -0.00102  -0.09261  -0.13394  -0.000596  3.998234  -0.001
C  C76  1  0.07505136  0.64693106  0.38552507  1  -0.083351  -6e-06  -0.005521  0.043455  -2e-06  3.985955  0.0
C  C77  1  0.42499027  0.14694453  0.11447996  1  -0.085393  0.001199  -0.005358  0.044734  0.000829  3.984968  0.001
C  C78  1  0.92494838  0.35306963  0.61447456  1  -0.083667  2.1e-05  -0.00556  0.043402  1.5e-05  3.985967  0.0
C  C79  1  0.57500802  0.85305838  0.88552003  1  -0.085277  0.001197  -0.005404  0.044752  0.000827  3.98495  0.001
C  C80  1  0.16520179  0.67624884  0.37354617  1  0.04416  0.000622  -0.085974  -0.114382  0.000476  3.976136  0.001
C  C81  1  0.33483143  0.17631315  0.12647757  1  0.04621  -0.00104  -0.08649  -0.115801  -0.000635  3.976252  -0.001
C  C82  1  0.83479722  0.32375241  0.62645385  1  0.044108  -0.000643  -0.08595  -0.114333  -0.00047  3.976103  -0.001
C  C83  1  0.66516830  0.82368920  0.87352164  1  0.04648  -0.001038  -0.086519  -0.115818  -0.000634  3.976062  -0.001
C  C84  1  0.24997791  0.64466914  0.39642568  1  -0.068427  0.000971  -0.083803  -0.090214  0.000637  3.978595  0.001
C  C85  1  0.25007908  0.14473689  0.10360054  1  -0.071266  -0.000524  -0.083195  -0.088826  -0.000386  3.977531  0.0
C  C86  1  0.75002182  0.35533100  0.60357395  1  -0.068493  -0.000964  -0.083822  -0.09023  -0.000581  3.978541  -0.001
C  C87  1  0.74991993  0.85526658  0.89639990  1  -0.071132  -0.000524  -0.083222  -0.088948  -0.000386  3.977509  0.0
C  C88  1  0.97272951  0.92744014  0.09025756  1  1.551097  0.001752  0.212098  0.575762  -0.00071  4.162222  0.004
C  C89  1  0.52724115  0.42755711  0.40986961  1  1.550246  0.00021  0.212404  0.575543  0.000289  4.165279  0.0
C  C90  1  0.02728105  0.07255446  0.90974207  1  1.550768  0.001755  0.212008  0.575425  -0.000711  4.162507  0.004
C  C91  1  0.47276002  0.57244358  0.59013049  1  1.550346  -0.000212  0.212352  0.575459  -8e-06  4.165403  0.0
C  C92  1  0.95825956  0.88464903  0.14271476  1  -0.042802  -0.016478  -0.015963  -0.022084  -0.011489  3.95987  -0.013
C  C93  1  0.54173922  0.38467884  0.35735245  1  -0.039398  -0.000201  -0.014493  -0.019247  -7.8e-05  3.956528  0.0
C  C94  1  0.04174449  0.11535554  0.85728630  1  -0.043943  -0.016489  -0.015986  -0.022065  -0.011494  3.960048  -0.013
C  C95  1  0.45826267  0.61532019  0.64264852  1  -0.039366  0.000183  -0.014489  -0.019271  0.000193  3.956575  0.0
C  C96  1  0.89421778  0.91058026  0.18136572  1  -0.013208  -0.000613  -0.084522  -0.089684  -0.000492  3.986716  -0.001
C  C97  1  0.60574413  0.41057376  0.31868961  1  -0.013292  0.000935  -0.084927  -0.090605  0.000618  3.988385  0.001
C  C98  1  0.10578267  0.08942375  0.81863436  1  -0.012476  -0.000612  -0.084562  -0.089902  -0.000491  3.987165  -0.001
C  C99  1  0.39425704  0.58942693  0.68131091  1  -0.013253  -0.000927  -0.084912  -0.090539  -0.000559  3.988389  -0.001
C  C100  1  0.88014787  0.87042787  0.22992615  1  -0.045834  -0.001008  -0.092461  -0.132318  -0.000595  4.00161  -0.001
C  C101  1  0.61981167  0.37041517  0.27012213  1  -0.045689  0.000619  -0.092792  -0.132452  0.00047  4.002292  0.0
C  C102  1  0.11985402  0.12957116  0.77007440  1  -0.045758  -0.001014  -0.09245  -0.132147  -0.000599  4.001666  -0.001
C  C103  1  0.38019166  0.62958552  0.72987931  1  -0.045713  -0.00063  -0.09278  -0.132466  -0.000457  4.002341  -0.001
C  C104  1  0.93118243  0.80439802  0.24142528  1  -0.051688  0.001038  -0.005801  0.042951  0.000719  3.98851  0.001
C  C105  1  0.56880387  0.30441198  0.25859484  1  -0.051589  4.4e-05  -0.005625  0.043123  3.1e-05  3.988615  0.0
C  C106  1  0.06881514  0.19560378  0.75857469  1  -0.051887  0.001041  -0.005801  0.042862  0.000721  3.98848  0.001
C  C107  1  0.43120019  0.69558871  0.74140538  1  -0.051632  -3.2e-05  -0.005696  0.042996  -1.9e-05  3.988794  0.0
C  C108  1  0.99668995  0.77947449  0.20300591  1  -0.008635  -0.001035  -0.085791  -0.115996  -0.000625  3.976072  -0.001
C  C109  1  0.50333353  0.27953177  0.29701452  1  -0.009454  -0.000662  -0.086072  -0.115926  -0.000481  3.976284  -0.001
C  C110  1  0.00331051  0.22052454  0.79699291  1  -0.008345  -0.001043  -0.085752  -0.115901  -0.00063  3.976148  -0.001
C  C111  1  0.49666909  0.72046782  0.70298522  1  -0.009913  0.000648  -0.086053  -0.115818  0.000493  3.976288  0.001
C  C112  1  0.00924888  0.81868812  0.15383532  1  -0.081334  -0.000651  -0.08283  -0.089832  -0.000486  3.974908  -0.001
C  C113  1  0.49077519  0.31873772  0.34620037  1  -0.081885  -0.000951  -0.08283  -0.090788  -0.000583  3.975958  -0.001
C  C114  1  0.99075012  0.18131257  0.84616512  1  -0.081253  -0.000649  -0.082801  -0.089773  -0.000485  3.974889  -0.001
C  C115  1  0.50922887  0.68126187  0.65380027  1  -0.081914  0.000955  -0.082854  -0.090851  0.00064  3.975911  0.001
C  C116  1  0.91772770  0.76167535  0.29329336  1  0.48587  -5.1e-05  0.121261  0.222321  -3.4e-05  4.031407  0.0
C  C117  1  0.58225607  0.26167793  0.20671383  1  0.485414  -4.4e-05  0.121026  0.221851  -3e-05  4.031445  0.0
C  C118  1  0.08227059  0.23832313  0.70670579  1  0.485932  -9.9e-05  0.121257  0.222357  -6.6e-05  4.031335  0.0
C  C119  1  0.41774728  0.73832221  0.79328552  1  0.486307  -4.7e-05  0.120952  0.221806  -3.3e-05  4.031424  0.0
C  C120  1  0.82885937  0.76092987  0.31813473  1  -0.004537  0.000172  -0.091009  -0.233113  0.000114  3.924092  0.0
C  C121  1  0.67112048  0.26092820  0.18186339  1  -0.003596  0.00024  -0.090842  -0.232422  0.000166  3.923732  0.0
C  C122  1  0.17113892  0.23906805  0.68186401  1  -0.004088  0.000235  -0.091001  -0.233054  0.000156  3.924064  0.0
C  C123  1  0.32888286  0.73907139  0.81813680  1  -0.003714  0.000189  -0.090724  -0.232351  0.000128  3.923805  0.0
C  C124  1  0.81928596  0.72029126  0.36745511  1  -0.06554  1e-06  0.002905  0.11546  -3e-06  4.045464  0.0
C  C125  1  0.68070122  0.22029889  0.13252367  1  -0.06485  7e-06  0.002934  0.115785  -0.0  4.044999  0.0
C  C126  1  0.18071233  0.27970777  0.63254530  1  -0.065079  -0.000106  0.002923  0.115473  -6.3e-05  4.045446  0.0
C  C127  1  0.31929995  0.77969848  0.86747727  1  -0.064844  7e-06  0.002944  0.115762  1e-06  4.045117  0.0
C  C128  1  0.89984503  0.68108653  0.38972986  1  0.001417  0.000188  -0.088634  -0.229686  0.000125  3.91627  0.0
C  C129  1  0.60016736  0.18108656  0.11025986  1  -5.9e-05  0.000212  -0.088967  -0.22993  0.000139  3.916879  0.0
C  C130  1  0.10015469  0.31891582  0.61027187  1  0.001402  0.000261  -0.088645  -0.229647  0.000182  3.916266  0.0
C  C131  1  0.39983309  0.81891413  0.88974021  1  -0.000105  0.000207  -0.089046  -0.229996  0.000135  3.916959  0.0
C  C132  1  0.98624281  0.68402276  0.36223803  1  0.524759  -5.2e-05  0.121216  0.220962  -3.5e-05  4.022548  0.0
C  C133  1  0.51377531  0.18402319  0.13776329  1  0.524944  -9.3e-05  0.1212  0.21943  -6.1e-05  4.02462  0.0
C  C134  1  0.01375764  0.31597960  0.63776288  1  0.524689  -6.3e-05  0.121236  0.220934  -4.2e-05  4.022492  0.0
C  C135  1  0.48622370  0.81597862  0.86223631  1  0.52488  -7.2e-05  0.121168  0.219346  -4.7e-05  4.024669  0.0
C  C136  1  0.69259779  0.65679646  0.42085233  1  0.461672  0.000702  0.057594  0.057326  0.00048  3.900101  0.0
C  C137  1  0.80745734  0.15678788  0.07912461  1  0.462841  0.000748  0.057695  0.057327  0.000524  3.900152  0.0
C  C138  1  0.30740266  0.34320202  0.57914817  1  0.461782  -0.000716  0.057551  0.057293  -0.000467  3.900233  0.0
C  C139  1  0.19254240  0.84320672  0.92087460  1  0.462312  0.000749  0.057566  0.057142  0.000524  3.900249  0.0
C  C140  1  0.72750445  0.72063705  0.39541679  1  0.04328  -0.000206  -0.003176  0.018764  -0.000141  3.996814  0.0
C  C141  1  0.77249769  0.22064755  0.10456598  1  0.042113  -0.000316  -0.003321  0.018405  -0.00021  3.996374  0.0
C  C142  1  0.27249456  0.27936143  0.60458407  1  0.042869  0.000219  -0.003167  0.018721  0.000157  3.99692  0.0
C  C143  1  0.22750349  0.77934816  0.89543329  1  0.042456  -0.000316  -0.003249  0.018667  -0.000209  3.996111  0.0
C  C144  1  0.67133097  0.78506248  0.39746201  1  -0.150144  0.000691  -0.067628  -0.082614  0.000463  3.960482  0.0
C  C145  1  0.82863584  0.28506426  0.10254289  1  -0.150187  0.000725  -0.067469  -0.082586  0.000487  3.960326  0.0
C  C146  1  0.32866731  0.21493489  0.60253882  1  -0.149907  -0.000706  -0.067632  -0.082601  -0.00045  3.960381  0.0
C  C147  1  0.17136608  0.71492813  0.89745347  1  -0.149844  0.000723  -0.067558  -0.082998  0.000486  3.960004  0.0
C  C148  1  0.58547661  0.78361911  0.42453229  1  0.042927  -0.000236  -0.085341  -0.134808  -0.000162  4.020823  0.0
C  C149  1  0.91448948  0.28358533  0.07546898  1  0.042877  -0.000344  -0.085098  -0.134614  -0.000225  4.020009  0.0
C  C150  1  0.41452239  0.21637881  0.57546940  1  0.042719  0.000241  -0.085295  -0.13474  0.000174  4.020712  0.0
C  C151  1  0.08551244  0.71640872  0.92452822  1  0.042557  -0.000343  -0.085147  -0.134503  -0.000225  4.019909  0.0
C  C152  1  0.55733022  0.71760102  0.44889148  1  0.506255  0.000706  0.052704  0.099275  0.000483  3.939506  0.0
C  C153  1  0.94266754  0.21753937  0.05110320  1  0.503342  0.000776  0.05229  0.099722  0.000528  3.938773  0.0
C  C154  1  0.44266806  0.28239746  0.55110977  1  0.506176  -0.000721  0.052731  0.099359  -0.00047  3.939465  0.0
C  C155  1  0.05733509  0.78245301  0.94889613  1  0.503079  0.000775  0.052189  0.0991  0.000527  3.939794  0.0
N  N156  1  0.60987258  0.65532145  0.44676508  1  -1.219632  0.001622  -0.327095  -0.219463  0.000785  3.509092  0.0
N  N157  1  0.89018542  0.15525419  0.05321424  1  -1.2185  0.001734  -0.326128  -0.219538  0.00058  3.504498  0.0
N  N158  1  0.39012787  0.34467924  0.55323583  1  -1.219497  -0.001619  -0.327068  -0.219457  -0.000741  3.508901  0.0
N  N159  1  0.10981286  0.84474207  0.94678617  1  -1.217917  0.001734  -0.325992  -0.219428  0.000581  3.504492  0.0
N  N160  1  0.99443588  0.72350445  0.31491869  1  -1.179725  0.000161  -0.307875  -0.337465  0.000107  3.271002  0.0
N  N161  1  0.50556762  0.22351233  0.18508934  1  -1.179932  6.6e-05  -0.307748  -0.336743  4e-05  3.271477  0.0
N  N162  1  0.00556385  0.27649624  0.68508220  1  -1.17978  6.4e-05  -0.3079  -0.337505  3.9e-05  3.270972  0.0
N  N163  1  0.49443284  0.77648947  0.81491032  1  -1.180383  0.000163  -0.307653  -0.336626  0.000107  3.271411  0.0
O  O164  1  0.41581120  0.58528916  0.44904399  1  -1.113205  -0.081375  -0.313623  -0.530068  -0.052692  2.379614  -0.074
O  O165  1  0.08431925  0.08533638  0.05105338  1  -1.111515  -0.091086  -0.313706  -0.530342  -0.058466  2.374969  -0.083
O  O166  1  0.58418709  0.41470932  0.55095559  1  -1.113275  0.08138  -0.313622  -0.529997  0.055448  2.379596  0.074
O  O167  1  0.91568546  0.91466930  0.94895902  1  -1.1118  -0.091054  -0.313608  -0.53036  -0.058443  2.375779  -0.083
O  O168  1  0.33217515  0.48904200  0.48379594  1  -1.108418  0.089225  -0.315756  -0.515308  0.060577  2.332651  0.081
O  O169  1  0.16785146  0.98904999  0.01628268  1  -1.107639  -0.099801  -0.316165  -0.516137  -0.063957  2.328313  -0.091
O  O170  1  0.66782386  0.51095758  0.51620450  1  -1.108372  -0.089228  -0.315776  -0.515278  -0.057568  2.332726  -0.081
O  O171  1  0.83213316  0.01095845  0.98371134  1  -1.107614  -0.099831  -0.316238  -0.516137  -0.063975  2.328025  -0.091
O  O172  1  0.02082344  0.89579897  0.05316324  1  -1.109346  -0.094318  -0.314466  -0.524371  -0.060503  2.356923  -0.086
O  O173  1  0.47909179  0.39583164  0.44683384  1  -1.11218  0.084197  -0.314665  -0.524391  0.057286  2.360266  0.076
O  O174  1  0.97918496  0.10421612  0.94683337  1  -1.109297  -0.094351  -0.314536  -0.524296  -0.060525  2.356588  -0.086
O  O175  1  0.52090795  0.60416573  0.55316495  1  -1.112141  -0.084185  -0.314623  -0.524341  -0.054433  2.360432  -0.076
O  O176  1  0.93588376  0.99220364  0.08677916  1  -1.104515  -0.098558  -0.316188  -0.518428  -0.063189  2.342519  -0.089
O  O177  1  0.56414174  0.49222273  0.41323701  1  -1.104017  -0.087866  -0.316393  -0.518957  -0.056722  2.346855  -0.079
O  O178  1  0.06410511  0.00779207  0.91322759  1  -1.104133  -0.098519  -0.316098  -0.518228  -0.063163  2.34314  -0.089
O  O179  1  0.43585654  0.50777741  0.58676466  1  -1.104036  0.087875  -0.316373  -0.518902  0.059692  2.346733  0.079
