# generated using pymatgen
data_DyH20C18N7O12
_symmetry_space_group_name_H-M   'P 1'
_cell_length_a   10.94509043
_cell_length_b   10.75132380
_cell_length_c   13.98017057
_cell_angle_alpha   82.59584178
_cell_angle_beta   66.66483241
_cell_angle_gamma   65.36886505
_symmetry_Int_Tables_number   1
_chemical_formula_structural   DyH20C18N7O12
_chemical_formula_sum   'Dy2 H40 C36 N14 O24'
_cell_volume   1371.80348814
_cell_formula_units_Z   2
loop_
 _symmetry_equiv_pos_site_id
 _symmetry_equiv_pos_as_xyz
  1  'x, y, z'
loop_
 _atom_site_type_symbol
 _atom_site_label
 _atom_site_symmetry_multiplicity
 _atom_site_fract_x
 _atom_site_fract_y
 _atom_site_fract_z
 _atom_site_occupancy
 _atom_site_hle17_bader_spin_density
 _atom_site_hle17_ddec_charge
 _atom_site_hle17_ddec_spin_density
 _atom_site_hle17_ddec_sum_bond_order
 _atom_site_hle17_magmom
 _atom_site_hse06_10hf_bader_spin_density
 _atom_site_hse06_10hf_ddec_charge
 _atom_site_hse06_10hf_ddec_spin_density
 _atom_site_hse06_10hf_ddec_sum_bond_order
 _atom_site_hse06_10hf_magmom
 _atom_site_hse06_bader_spin_density
 _atom_site_hse06_ddec_charge
 _atom_site_hse06_ddec_spin_density
 _atom_site_hse06_ddec_sum_bond_order
 _atom_site_hse06_magmom
 _atom_site_pbe_bader_spin_density
 _atom_site_pbe_cm5_charge
 _atom_site_pbe_ddec_charge
 _atom_site_pbe_ddec_spin_density
 _atom_site_pbe_ddec_sum_bond_order
 _atom_site_pbe_magmom
Dy  Dy0  1  0.28046795  0.38583287  0.36767098  1  0  2.232906  0  1.661279  0  0  2.0811  0  2.146473  0  0  2.213496  0  1.946737  0  0  1.527474  2.042142  0  2.17923  0
Dy  Dy1  1  0.71953265  0.61416853  0.63233000  1  0  2.232928  0  1.661351  0  0  2.08112  0  2.146568  0  0  2.213529  0  1.946813  0  0  1.527492  2.04218  0  2.179343  0
H  H2  1  0.06927321  0.04255903  0.08555529  1  0  0.286979  0  0.910742  0  0  0.267819  0  0.971648  0  0  0.27748  0  0.963813  0  0  0.325105  0.260982  0  0.977283  0
H  H3  1  0.93072587  0.95744131  0.91444625  1  0  0.286979  0  0.910704  0  0  0.267766  0  0.971682  0  0  0.277426  0  0.963847  0  0  0.32509  0.260931  0  0.977315  0
H  H4  1  0.41243016  0.80276185  0.81906525  1  0  0.355355  0  0.901002  0  0  0.330102  0  0.969603  0  0  0.341138  0  0.960392  0  0  0.31961  0.322402  0  0.976147  0
H  H5  1  0.58757083  0.19723649  0.18093374  1  0  0.355211  0  0.901096  0  0  0.330013  0  0.969648  0  0  0.341055  0  0.960433  0  0  0.319569  0.322308  0  0.976186  0
H  H6  1  0.66972248  0.41492736  0.45561024  1  0  0.139375  0  0.94116  0  0  0.143613  0  1.010581  0  0  0.148697  0  1.005621  0  0  0.120681  0.139956  0  1.013864  0
H  H7  1  0.33027674  0.58507708  0.54439304  1  0  0.139411  0  0.94123  0  0  0.143639  0  1.01066  0  0  0.14872  0  1.005703  0  0  0.120696  0.139989  0  1.013937  0
H  H8  1  0.04913998  0.33878653  0.63412938  1  0  0.065806  0  0.947922  0  0  0.072568  0  1.019352  0  0  0.074598  0  1.014041  0  0  0.136423  0.070994  0  1.023247  0
H  H9  1  0.95085718  0.66121386  0.36586701  1  0  0.065811  0  0.947972  0  0  0.072545  0  1.019386  0  0  0.074569  0  1.014093  0  0  0.136428  0.070964  0  1.023321  0
H  H10  1  0.42442549  0.16782531  0.60160190  1  0  0.121652  0  0.931938  0  0  0.141838  0  0.988618  0  0  0.144353  0  0.986636  0  0  0.115918  0.140029  0  0.989923  0
H  H11  1  0.57557268  0.83217707  0.39839973  1  0  0.121654  0  0.931897  0  0  0.141833  0  0.988583  0  0  0.144351  0  0.986598  0  0  0.115929  0.140026  0  0.989887  0
H  H12  1  0.39291972  0.01992733  0.66121983  1  0  0.108706  0  0.938233  0  0  0.127606  0  1.003343  0  0  0.128649  0  1.002844  0  0  0.104709  0.126792  0  1.00367  0
H  H13  1  0.60707749  0.98007508  0.33877924  1  0  0.108712  0  0.938185  0  0  0.127603  0  1.0033  0  0  0.128647  0  1.002803  0  0  0.104711  0.12679  0  1.003625  0
H  H14  1  0.37553188  0.14943235  0.73977394  1  0  0.104675  0  0.940098  0  0  0.126012  0  1.002362  0  0  0.126256  0  1.002377  0  0  0.104177  0.125708  0  1.002487  0
H  H15  1  0.62446191  0.85057103  0.26022607  1  0  0.104639  0  0.94006  0  0  0.125967  0  1.002339  0  0  0.126213  0  1.002351  0  0  0.104159  0.125666  0  1.00246  0
H  H16  1  0.99029735  0.24274760  0.78188800  1  0  0.118882  0  0.969698  0  0  0.131911  0  1.041451  0  0  0.134525  0  1.038777  0  0  0.107233  0.129973  0  1.043239  0
H  H17  1  0.00970024  0.75725174  0.21810978  1  0  0.11888  0  0.969725  0  0  0.13192  0  1.041471  0  0  0.134537  0  1.038796  0  0  0.107232  0.129988  0  1.04326  0
H  H18  1  0.11516483  0.18321838  0.84680085  1  0  0.100398  0  0.92255  0  0  0.11983  0  0.982435  0  0  0.120519  0  0.982465  0  0  0.102261  0.119192  0  0.982574  0
H  H19  1  0.88483216  0.81677785  0.15319739  1  0  0.100427  0  0.922453  0  0  0.119851  0  0.982347  0  0  0.120539  0  0.98238  0  0  0.102291  0.11922  0  0.982484  0
H  H20  1  0.11509281  0.06628880  0.76792062  1  0  0.084425  0  0.966405  0  0  0.10133  0  1.038868  0  0  0.101364  0  1.039823  0  0  0.094096  0.101225  0  1.03823  0
H  H21  1  0.88490724  0.93370961  0.23207292  1  0  0.084442  0  0.966455  0  0  0.101362  0  1.038894  0  0  0.10139  0  1.039857  0  0  0.094134  0.101262  0  1.038252  0
H  H22  1  0.12680834  0.21165806  0.27059558  1  0  0.12082  0  0.978683  0  0  0.121305  0  1.058264  0  0  0.125329  0  1.054314  0  0  0.113211  0.118477  0  1.060876  0
H  H23  1  0.87318814  0.78833910  0.72940918  1  0  0.120816  0  0.978646  0  0  0.121318  0  1.058241  0  0  0.125343  0  1.054289  0  0  0.113209  0.118494  0  1.060856  0
H  H24  1  0.68562558  0.75181893  0.96467658  1  0  0.345823  0  0.813566  0  0  0.335721  0  0.854218  0  0  0.343757  0  0.848413  0  0  0.350752  0.33009  0  0.8583  0
H  H25  1  0.31437702  0.24818256  0.03532022  1  0  0.345849  0  0.813521  0  0  0.335698  0  0.854238  0  0  0.343744  0  0.848419  0  0  0.350741  0.330061  0  0.85832  0
H  H26  1  0.81259817  0.14976751  0.19101700  1  0  0.115869  0  0.969622  0  0  0.119163  0  1.043415  0  0  0.12399  0  1.038575  0  0  0.107817  0.115659  0  1.046913  0
H  H27  1  0.18739909  0.85023693  0.80898401  1  0  0.115858  0  0.969615  0  0  0.11917  0  1.043384  0  0  0.123997  0  1.038549  0  0  0.107805  0.11567  0  1.046881  0
H  H28  1  0.37304089  0.01961054  0.26928981  1  0  0.048523  0  0.970542  0  0  0.051555  0  1.050045  0  0  0.053464  0  1.044671  0  0  0.122866  0.05003  0  1.053776  0
H  H29  1  0.62695675  0.98039080  0.73071208  1  0  0.048528  0  0.970491  0  0  0.051537  0  1.050017  0  0  0.053443  0  1.044646  0  0  0.122871  0.05002  0  1.053743  0
H  H30  1  0.19091756  0.81866961  0.37485110  1  0  0.10559  0  0.932835  0  0  0.124734  0  0.996018  0  0  0.125707  0  0.995798  0  0  0.102969  0.123955  0  0.996186  0
H  H31  1  0.80908249  0.18133071  0.62515229  1  0  0.105566  0  0.932804  0  0  0.124698  0  0.995997  0  0  0.125672  0  0.995777  0  0  0.102953  0.123922  0  0.996158  0
H  H32  1  0.35303138  0.74551465  0.40005115  1  0  0.113687  0  0.922706  0  0  0.136141  0  0.979867  0  0  0.136957  0  0.979664  0  0  0.111348  0.135366  0  0.980201  0
H  H33  1  0.64697020  0.25448675  0.59995097  1  0  0.113645  0  0.922734  0  0  0.136089  0  0.979914  0  0  0.136905  0  0.979712  0  0  0.111341  0.135317  0  0.980244  0
H  H34  1  0.35523106  0.82610155  0.27971739  1  0  0.11337  0  0.959634  0  0  0.129428  0  1.028757  0  0  0.129808  0  1.029301  0  0  0.108693  0.129043  0  1.028423  0
H  H35  1  0.64476658  0.17389979  0.72028450  1  0  0.113377  0  0.959651  0  0  0.129414  0  1.028797  0  0  0.129794  0  1.02934  0  0  0.108691  0.129029  0  1.028463  0
H  H36  1  0.09857216  0.93464465  0.54568040  1  0  0.09573  0  0.960963  0  0  0.116366  0  1.025986  0  0  0.115763  0  1.028667  0  0  0.103656  0.116676  0  1.024233  0
H  H37  1  0.90142799  0.06535777  0.45432063  1  0  0.095732  0  0.960905  0  0  0.116362  0  1.025932  0  0  0.115758  0  1.02861  0  0  0.103653  0.116677  0  1.024176  0
H  H38  1  0.09783498  0.10365495  0.53175360  1  0  0.108705  0  0.936806  0  0  0.128238  0  0.999813  0  0  0.129327  0  0.998475  0  0  0.110651  0.127389  0  1.000648  0
H  H39  1  0.90216371  0.89634846  0.46824849  1  0  0.108724  0  0.93687  0  0  0.128261  0  0.999855  0  0  0.129352  0  0.998504  0  0  0.110663  0.127429  0  1.000674  0
H  H40  1  0.23410652  0.96667839  0.56569188  1  0  0.098384  0  0.936384  0  0  0.120474  0  0.99666  0  0  0.1202  0  0.997866  0  0  0.104253  0.120554  0  0.995862  0
H  H41  1  0.76589416  0.03332509  0.43430818  1  0  0.098396  0  0.936405  0  0  0.120474  0  0.99669  0  0  0.120199  0  0.997899  0  0  0.104262  0.120558  0  0.995892  0
C  C42  1  0.57026543  0.31637771  0.34677848  1  0  0.651246  0  3.912696  0  0  0.605391  0  4.200543  0  0  0.638571  0  4.199567  0  0  0.199722  0.58235  0  4.205667  0
C  C43  1  0.42973319  0.68362365  0.65322311  1  0  0.651418  0  3.912444  0  0  0.605545  0  4.200278  0  0  0.638719  0  4.199306  0  0  0.199831  0.582507  0  4.205418  0
C  C44  1  0.72514718  0.28660183  0.32495169  1  0  -0.042201  0  3.756853  0  0  -0.016596  0  3.991915  0  0  -0.023697  0  4.013614  0  0  -0.012285  -0.011993  0  3.976691  0
C  C45  1  0.27485487  0.71339859  0.67504752  1  0  -0.042213  0  3.756907  0  0  -0.016541  0  3.991872  0  0  -0.023634  0  4.013569  0  0  -0.012229  -0.011932  0  3.976654  0
C  C46  1  0.93810788  0.37866283  0.44200701  1  0  0.729575  0  3.863073  0  0  0.681412  0  4.153998  0  0  0.718241  0  4.146175  0  0  0.238311  0.656691  0  4.161955  0
C  C47  1  0.06189370  0.62133857  0.55799439  1  0  0.72951  0  3.863033  0  0  0.681285  0  4.154068  0  0  0.718111  0  4.146251  0  0  0.238287  0.656563  0  4.162038  0
C  C48  1  0.90245417  0.31618765  0.37152762  1  0  -0.047825  0  3.728116  0  0  -0.020885  0  3.961008  0  0  -0.027986  0  3.980995  0  0  -0.007028  -0.016363  0  3.946686  0
C  C49  1  0.09754734  0.68381169  0.62847399  1  0  -0.047745  0  3.72806  0  0  -0.020784  0  3.960982  0  0  -0.027881  0  3.98097  0  0  -0.007026  -0.016253  0  3.946661  0
C  C50  1  0.32847409  0.93370310  0.05564327  1  0  -0.158792  0  3.746906  0  0  -0.153882  0  4.01929  0  0  -0.170806  0  4.036253  0  0  0.08636  -0.143367  0  4.008154  0
C  C51  1  0.67153334  0.06629637  0.94435582  1  0  -0.158819  0  3.746802  0  0  -0.153921  0  4.019158  0  0  -0.17084  0  4.036117  0  0  0.086409  -0.143393  0  4.00802  0
C  C52  1  0.75735922  0.34549649  0.39056888  1  0  -0.056691  0  3.628074  0  0  -0.099166  0  3.879286  0  0  -0.096775  0  3.895529  0  0  -0.061881  -0.099619  0  3.866934  0
C  C53  1  0.24263941  0.65450488  0.60943199  1  0  -0.05685  0  3.6283  0  0  -0.099345  0  3.879493  0  0  -0.096958  0  3.895735  0  0  -0.06195  -0.099795  0  3.867134  0
C  C54  1  0.16667955  0.29323740  0.61674006  1  0  0.418973  0  3.77089  0  0  0.345108  0  4.055439  0  0  0.375127  0  4.055972  0  0  0.188839  0.32511  0  4.056958  0
C  C55  1  0.83332270  0.70676724  0.38325299  1  0  0.418928  0  3.770924  0  0  0.345223  0  4.055221  0  0  0.375239  0  4.055753  0  0  0.188875  0.32522  0  4.056739  0
C  C56  1  0.35929440  0.13081807  0.67106271  1  0  -0.174774  0  3.629514  0  0  -0.274107  0  3.872425  0  0  -0.270696  0  3.881505  0  0  -0.134478  -0.276014  0  3.865927  0
C  C57  1  0.64070288  0.86918639  0.32893686  1  0  -0.174725  0  3.629377  0  0  -0.274042  0  3.872281  0  0  -0.270636  0  3.881362  0  0  -0.13446  -0.275949  0  3.865774  0
C  C58  1  0.10027887  0.17265425  0.77544146  1  0  -0.176066  0  3.666297  0  0  -0.274624  0  3.914484  0  0  -0.271748  0  3.925353  0  0  -0.135671  -0.276097  0  3.906822  0
C  C59  1  0.89971964  0.82734306  0.22455551  1  0  -0.176103  0  3.666239  0  0  -0.2747  0  3.914454  0  0  -0.271808  0  3.925301  0  0  -0.135715  -0.27617  0  3.906787  0
C  C60  1  0.01495666  0.22924594  0.28740382  1  0  -0.136034  0  3.671011  0  0  -0.174034  0  3.927  0  0  -0.173983  0  3.944323  0  0  -0.077587  -0.174076  0  3.915162  0
C  C61  1  0.98504476  0.77075132  0.71259871  1  0  -0.136037  0  3.670812  0  0  -0.174069  0  3.92681  0  0  -0.174019  0  3.944132  0  0  -0.077531  -0.174115  0  3.914984  0
C  C62  1  0.98166958  0.16705442  0.22458718  1  0  0.186104  0  3.816585  0  0  0.179013  0  4.075199  0  0  0.181741  0  4.09976  0  0  0.09328  0.177099  0  4.058815  0
C  C63  1  0.01832887  0.83294276  0.77541769  1  0  0.186143  0  3.81653  0  0  0.17903  0  4.075187  0  0  0.18176  0  4.099745  0  0  0.093295  0.177124  0  4.058801  0
C  C64  1  0.30249487  0.90015945  0.96935295  1  0  0.576963  0  3.806845  0  0  0.525146  0  4.097671  0  0  0.557408  0  4.095364  0  0  0.249034  0.503604  0  4.098605  0
C  C65  1  0.69751098  0.09983692  0.03064403  1  0  0.576913  0  3.807021  0  0  0.525163  0  4.097788  0  0  0.557428  0  4.095476  0  0  0.249044  0.503612  0  4.09872  0
C  C66  1  0.56277866  0.76959420  0.88175137  1  0  0.796309  0  3.80097  0  0  0.727587  0  4.102314  0  0  0.76497  0  4.09703  0  0  0.366788  0.70259  0  4.106382  0
C  C67  1  0.43722116  0.23039994  0.11825193  1  0  0.796227  0  3.801328  0  0  0.7276  0  4.10259  0  0  0.764976  0  4.097326  0  0  0.36681  0.702622  0  4.106605  0
C  C68  1  0.47567497  0.87538679  0.05597600  1  0  0.560329  0  3.862938  0  0  0.506003  0  4.167293  0  0  0.536947  0  4.166769  0  0  0.240201  0.485251  0  4.167208  0
C  C69  1  0.52432900  0.12461163  0.94402066  1  0  0.560332  0  3.863251  0  0  0.506049  0  4.167513  0  0  0.53699  0  4.166995  0  0  0.240175  0.485287  0  4.167442  0
C  C70  1  0.83703726  0.19678458  0.24195303  1  0  -0.148227  0  3.684088  0  0  -0.18395  0  3.941477  0  0  -0.184445  0  3.958757  0  0  -0.080328  -0.183636  0  3.929924  0
C  C71  1  0.16296327  0.80321476  0.75804744  1  0  -0.148203  0  3.684119  0  0  -0.183943  0  3.941463  0  0  -0.184445  0  3.958757  0  0  -0.080304  -0.183627  0  3.929909  0
C  C72  1  0.31012281  0.05022609  0.35264294  1  0  0.406972  0  3.800208  0  0  0.336118  0  4.088922  0  0  0.36449  0  4.091083  0  0  0.177145  0.317394  0  4.088533  0
C  C73  1  0.68987498  0.94977939  0.64735854  1  0  0.407092  0  3.799901  0  0  0.336286  0  4.08855  0  0  0.364659  0  4.090714  0  0  0.17725  0.317564  0  4.088176  0
C  C74  1  0.29054324  0.83078593  0.36326875  1  0  -0.177947  0  3.641325  0  0  -0.281795  0  3.894164  0  0  -0.278493  0  3.904995  0  0  -0.133202  -0.283684  0  3.886662  0
C  C75  1  0.70945538  0.16921542  0.63673355  1  0  -0.17787  0  3.641313  0  0  -0.28168  0  3.894149  0  0  -0.278382  0  3.904981  0  0  -0.133186  -0.283567  0  3.88664  0
C  C76  1  0.16616820  0.99356219  0.51941616  1  0  -0.166846  0  3.650299  0  0  -0.26834  0  3.897306  0  0  -0.263854  0  3.907553  0  0  -0.13395  -0.270858  0  3.889837  0
C  C77  1  0.83383088  0.00643815  0.48058466  1  0  -0.166848  0  3.6503  0  0  -0.26832  0  3.8973  0  0  -0.263832  0  3.90755  0  0  -0.133933  -0.270851  0  3.889812  0
N  N78  1  0.09166577  0.07273292  0.14253037  1  0  -0.166701  0  3.425872  0  0  -0.108178  0  3.662874  0  0  -0.124554  0  3.676522  0  0  -0.233777  -0.097654  0  3.65372  0
N  N79  1  0.90833278  0.92726637  0.85747142  1  0  -0.166653  0  3.425864  0  0  -0.10808  0  3.662876  0  0  -0.124455  0  3.676525  0  0  -0.233763  -0.097562  0  3.653728  0
N  N80  1  0.22578939  0.01924768  0.13544707  1  0  -0.042541  0  3.089173  0  0  -0.044268  0  3.371805  0  0  -0.030416  0  3.381665  0  0  -0.151977  -0.05258  0  3.364851  0
N  N81  1  0.77421455  0.98075069  0.86455246  1  0  -0.042563  0  3.089162  0  0  -0.044296  0  3.371802  0  0  -0.030449  0  3.381666  0  0  -0.152029  -0.052619  0  3.364862  0
N  N82  1  0.42293127  0.82074447  0.88718264  1  0  -0.522387  0  3.225129  0  0  -0.460397  0  3.461546  0  0  -0.487482  0  3.461693  0  0  -0.375356  -0.442098  0  3.460884  0
N  N83  1  0.57707360  0.17925189  0.11281464  1  0  -0.5222  0  3.225209  0  0  -0.460368  0  3.46165  0  0  -0.487461  0  3.461803  0  0  -0.375302  -0.44207  0  3.460958  0
N  N84  1  0.20705906  0.20375975  0.68538855  1  0  -0.083929  0  3.497367  0  0  0.021384  0  3.729216  0  0  0.001212  0  3.753618  0  0  -0.278032  0.034982  0  3.711776  0
N  N85  1  0.79293564  0.79624156  0.31461208  1  0  -0.083842  0  3.497451  0  0  0.021431  0  3.729239  0  0  0.001264  0  3.753641  0  0  -0.278017  0.035032  0  3.711798  0
N  N86  1  0.58145156  0.79122580  0.96885802  1  0  -0.518929  0  3.243354  0  0  -0.463628  0  3.487661  0  0  -0.487803  0  3.485931  0  0  -0.382934  -0.44712  0  3.487917  0
N  N87  1  0.41855339  0.20877264  0.03113833  1  0  -0.518983  0  3.243392  0  0  -0.463669  0  3.487687  0  0  -0.487854  0  3.485955  0  0  -0.382959  -0.447166  0  3.487935  0
N  N88  1  0.29987996  0.58697334  0.20575192  1  0  0.731812  0  4.12069  0  0  0.755963  0  4.422837  0  0  0.785196  0  4.432492  0  0  0.082914  0.735998  0  4.419672  0
N  N89  1  0.70012151  0.41302402  0.79424416  1  0  0.731696  0  4.120795  0  0  0.75585  0  4.42293  0  0  0.785083  0  4.432585  0  0  0.082919  0.735887  0  4.419759  0
N  N90  1  0.25502270  0.96205233  0.40880707  1  0  -0.092403  0  3.487857  0  0  0.012232  0  3.720983  0  0  -0.008183  0  3.745604  0  0  -0.281308  0.026114  0  3.70323  0
N  N91  1  0.74497646  0.03795007  0.59119427  1  0  -0.09246  0  3.487949  0  0  0.012158  0  3.721064  0  0  -0.008255  0  3.745682  0  0  -0.281324  0.026044  0  3.703312  0
O  O92  1  0.54227222  0.23867141  0.30222289  1  0  -0.737456  0  2.054924  0  0  -0.68524  0  2.296924  0  0  -0.719628  0  2.286669  0  0  -0.38048  -0.66638  0  2.302879  0
O  O93  1  0.45772413  0.76133507  0.69777893  1  0  -0.737605  0  2.054824  0  0  -0.685381  0  2.296853  0  0  -0.719768  0  2.286599  0  0  -0.380565  -0.666518  0  2.302823  0
O  O94  1  0.46869032  0.41432379  0.40837397  1  0  -0.632048  0  1.979382  0  0  -0.589476  0  2.214858  0  0  -0.620069  0  2.20475  0  0  -0.342941  -0.573339  0  2.220983  0
O  O95  1  0.53130936  0.58567965  0.59162782  1  0  -0.632093  0  1.979296  0  0  -0.589513  0  2.214766  0  0  -0.620112  0  2.204678  0  0  -0.342975  -0.57336  0  2.220893  0
O  O96  1  0.84892336  0.40757516  0.53608208  1  0  -0.740778  0  2.057351  0  0  -0.696091  0  2.321307  0  0  -0.733442  0  2.307203  0  0  -0.40062  -0.677476  0  2.32772  0
O  O97  1  0.15107426  0.59242615  0.46392196  1  0  -0.740726  0  2.057542  0  0  -0.696012  0  2.321511  0  0  -0.733356  0  2.307403  0  0  -0.400567  -0.677382  0  2.327924  0
O  O98  1  0.66952844  0.70676619  0.80319020  1  0  -0.658003  0  2.02348  0  0  -0.617416  0  2.278585  0  0  -0.648917  0  2.264985  0  0  -0.325001  -0.601959  0  2.284892  0
O  O99  1  0.33047756  0.29322088  0.19680828  1  0  -0.657966  0  2.023868  0  0  -0.617411  0  2.278926  0  0  -0.648903  0  2.265328  0  0  -0.325033  -0.601964  0  2.28521  0
O  O100  1  0.05483643  0.39708686  0.40262457  1  0  -0.734929  0  2.099406  0  0  -0.685403  0  2.367581  0  0  -0.723475  0  2.351018  0  0  -0.40568  -0.66745  0  2.375868  0
O  O101  1  0.94516210  0.60291242  0.59737866  1  0  -0.734948  0  2.09918  0  0  -0.685396  0  2.367395  0  0  -0.723474  0  2.350835  0  0  -0.405722  -0.667439  0  2.375692  0
O  O102  1  0.17890642  0.94359012  0.96613905  1  0  -0.522882  0  1.889521  0  0  -0.482623  0  2.099651  0  0  -0.501677  0  2.090849  0  0  -0.279764  -0.469561  0  2.105422  0
O  O103  1  0.82109374  0.05641234  0.03385912  1  0  -0.522913  0  1.889681  0  0  -0.482644  0  2.09978  0  0  -0.501701  0  2.090985  0  0  -0.27984  -0.469586  0  2.105553  0
O  O104  1  0.51231440  0.89684343  0.12328778  1  0  -0.530913  0  1.940434  0  0  -0.50143  0  2.172081  0  0  -0.520178  0  2.164614  0  0  -0.287027  -0.488635  0  2.17697  0
O  O105  1  0.48769239  0.10315287  0.87671536  1  0  -0.53086  0  1.940825  0  0  -0.501377  0  2.17244  0  0  -0.520113  0  2.164948  0  0  -0.286971  -0.488589  0  2.177337  0
O  O106  1  0.29051786  0.15861897  0.39201674  1  0  -0.630676  0  2.16381  0  0  -0.579431  0  2.428807  0  0  -0.613705  0  2.421069  0  0  -0.372675  -0.562699  0  2.431566  0
O  O107  1  0.70947873  0.84138031  0.60798422  1  0  -0.630798  0  2.163523  0  0  -0.579567  0  2.428515  0  0  -0.613844  0  2.420773  0  0  -0.372758  -0.562833  0  2.431291  0
O  O108  1  0.25438417  0.32494854  0.53878526  1  0  -0.627027  0  2.161251  0  0  -0.574842  0  2.426132  0  0  -0.609635  0  2.41519  0  0  -0.382344  -0.558066  0  2.431005  0
O  O109  1  0.74561248  0.67505278  0.46121765  1  0  -0.627105  0  2.161067  0  0  -0.574985  0  2.425892  0  0  -0.609784  0  2.414951  0  0  -0.382379  -0.558201  0  2.430768  0
O  O110  1  0.40841635  0.51114156  0.23060309  1  0  -0.545397  0  1.764349  0  0  -0.533532  0  1.984029  0  0  -0.557651  0  1.975174  0  0  -0.24422  -0.521954  0  1.988661  0
O  O111  1  0.59158328  0.48885987  0.76939533  1  0  -0.545366  0  1.764322  0  0  -0.53349  0  1.983983  0  0  -0.55761  0  1.97513  0  0  -0.244226  -0.521911  0  1.988619  0
O  O112  1  0.30685364  0.67449222  0.13906521  1  0  -0.424396  0  1.717762  0  0  -0.422401  0  1.917283  0  0  -0.435104  0  1.911207  0  0  -0.181227  -0.412914  0  1.920995  0
O  O113  1  0.69315014  0.32550009  0.86092561  1  0  -0.424352  0  1.717813  0  0  -0.422355  0  1.917333  0  0  -0.435051  0  1.911251  0  0  -0.181213  -0.412859  0  1.921038  0
O  O114  1  0.18272109  0.56728581  0.25453476  1  0  -0.54709  0  1.820957  0  0  -0.530429  0  2.053575  0  0  -0.554841  0  2.044192  0  0  -0.23477  -0.518246  0  2.058998  0
O  O115  1  0.81727802  0.43271459  0.74546247  1  0  -0.547052  0  1.821029  0  0  -0.530416  0  2.053667  0  0  -0.554829  0  2.044281  0  0  -0.234796  -0.518232  0  2.059085  0
