# generated using pymatgen
data_ZnH6C5(N2O)2
_symmetry_space_group_name_H-M   'P 1'
_cell_length_a   4.77152748
_cell_length_b   9.99414928
_cell_length_c   15.90771572
_cell_angle_alpha   89.99994444
_cell_angle_beta   90.00000949
_cell_angle_gamma   90.00000705
_symmetry_Int_Tables_number   1
_chemical_formula_structural   ZnH6C5(N2O)2
_chemical_formula_sum   'Zn4 H24 C20 N16 O8'
_cell_volume   758.59693361
_cell_formula_units_Z   4
loop_
 _symmetry_equiv_pos_site_id
 _symmetry_equiv_pos_as_xyz
  1  'x, y, z'
loop_
 _atom_site_type_symbol
 _atom_site_label
 _atom_site_symmetry_multiplicity
 _atom_site_fract_x
 _atom_site_fract_y
 _atom_site_fract_z
 _atom_site_occupancy
 _atom_site_hle17_bader_spin_density
 _atom_site_hle17_ddec_charge
 _atom_site_hle17_ddec_spin_density
 _atom_site_hle17_ddec_sum_bond_order
 _atom_site_hle17_magmom
 _atom_site_hse06_10hf_bader_spin_density
 _atom_site_hse06_10hf_ddec_charge
 _atom_site_hse06_10hf_ddec_spin_density
 _atom_site_hse06_10hf_ddec_sum_bond_order
 _atom_site_hse06_10hf_magmom
 _atom_site_hse06_bader_spin_density
 _atom_site_hse06_ddec_charge
 _atom_site_hse06_ddec_spin_density
 _atom_site_hse06_ddec_sum_bond_order
 _atom_site_hse06_magmom
 _atom_site_pbe_bader_spin_density
 _atom_site_pbe_cm5_charge
 _atom_site_pbe_ddec_charge
 _atom_site_pbe_ddec_spin_density
 _atom_site_pbe_ddec_sum_bond_order
 _atom_site_pbe_magmom
Zn  Zn0  1  0.34513076  0.68965723  0.35684802  1  0  1.025123  0  1.88978  0  0  0.833132  0  2.381225  0  0  0.876966  0  2.327344  0  0  0.733132  0.802228  0  2.418539  0
Zn  Zn1  1  0.65486806  0.18965749  0.64315201  1  0  1.025084  0  1.889788  0  0  0.833082  0  2.381227  0  0  0.876919  0  2.32735  0  0  0.733121  0.802185  0  2.418535  0
Zn  Zn2  1  0.65486819  0.68965686  0.85684753  1  0  1.025089  0  1.889797  0  0  0.833092  0  2.381239  0  0  0.876929  0  2.327362  0  0  0.733125  0.802197  0  2.418556  0
Zn  Zn3  1  0.34513273  0.18965686  0.14315187  1  0  1.025119  0  1.889794  0  0  0.833122  0  2.381236  0  0  0.876953  0  2.327357  0  0  0.733127  0.802222  0  2.418553  0
H  H4  1  0.08309313  0.44488778  0.66555363  1  0  0.107956  0  0.93469  0  0  0.121458  0  0.995023  0  0  0.122885  0  0.995662  0  0  0.101564  0.120472  0  0.994566  0
H  H5  1  0.91690576  0.94488860  0.33444687  1  0  0.107931  0  0.934689  0  0  0.121451  0  0.994992  0  0  0.122876  0  0.99563  0  0  0.101566  0.120468  0  0.994537  0
H  H6  1  0.91690565  0.44488819  0.16555351  1  0  0.107973  0  0.934674  0  0  0.121474  0  0.995008  0  0  0.122902  0  0.995645  0  0  0.101577  0.120485  0  0.994552  0
H  H7  1  0.08309324  0.94488819  0.83444699  1  0  0.107972  0  0.934694  0  0  0.121472  0  0.995005  0  0  0.122898  0  0.995642  0  0  0.101566  0.12048  0  0.994548  0
H  H8  1  0.01344461  0.60345151  0.71089761  1  0  0.102233  0  0.93636  0  0  0.110042  0  1.011095  0  0  0.112339  0  1.009494  0  0  0.100878  0.108351  0  1.012359  0
H  H9  1  0.98655629  0.10345133  0.28910247  1  0  0.102247  0  0.93634  0  0  0.110045  0  1.011083  0  0  0.112347  0  1.009469  0  0  0.100881  0.108355  0  1.012359  0
H  H10  1  0.98655424  0.60345193  0.21089750  1  0  0.102235  0  0.936376  0  0  0.110027  0  1.011119  0  0  0.112321  0  1.009523  0  0  0.100888  0.10835  0  1.012366  0
H  H11  1  0.01344456  0.10345092  0.78910258  1  0  0.102269  0  0.936357  0  0  0.110043  0  1.011106  0  0  0.112338  0  1.009503  0  0  0.1009  0.108362  0  1.012354  0
H  H12  1  0.67709576  0.47271215  0.56709386  1  0  0.064832  0  0.931114  0  0  0.083216  0  0.992202  0  0  0.084199  0  0.992008  0  0  0.089606  0.082429  0  0.992444  0
H  H13  1  0.32290523  0.97271278  0.43290599  1  0  0.064845  0  0.931097  0  0  0.083214  0  0.992197  0  0  0.084203  0  0.992005  0  0  0.089592  0.082428  0  0.992437  0
H  H14  1  0.32290506  0.47271253  0.06709435  1  0  0.064843  0  0.931091  0  0  0.083211  0  0.992194  0  0  0.084197  0  0.992001  0  0  0.089596  0.082425  0  0.992437  0
H  H15  1  0.67709593  0.97271241  0.93290613  1  0  0.064848  0  0.931109  0  0  0.083218  0  0.99221  0  0  0.084204  0  0.992018  0  0  0.089605  0.082431  0  0.992452  0
H  H16  1  0.59293826  0.62730156  0.61424200  1  0  0.073636  0  0.960248  0  0  0.085292  0  1.030553  0  0  0.086299  0  1.031171  0  0  0.091071  0.084532  0  1.030165  0
H  H17  1  0.40706264  0.12730220  0.38575743  1  0  0.073618  0  0.96024  0  0  0.085271  0  1.030547  0  0  0.086282  0  1.031168  0  0  0.091064  0.084511  0  1.030158  0
H  H18  1  0.40706263  0.62730194  0.11424249  1  0  0.073619  0  0.960257  0  0  0.085272  0  1.030563  0  0  0.086282  0  1.031183  0  0  0.091066  0.084511  0  1.030175  0
H  H19  1  0.59293827  0.12730182  0.88575820  1  0  0.073632  0  0.960252  0  0  0.085286  0  1.030559  0  0  0.086296  0  1.031179  0  0  0.091069  0.084526  0  1.030172  0
H  H20  1  0.06417886  0.71951053  0.56776389  1  0  0.125399  0  0.907592  0  0  0.141286  0  0.962581  0  0  0.143594  0  0.961754  0  0  0.110843  0.1396  0  0.963272  0
H  H21  1  0.93581997  0.21951112  0.43223612  1  0  0.12539  0  0.907604  0  0  0.141287  0  0.962575  0  0  0.143595  0  0.961745  0  0  0.110842  0.139602  0  0.963265  0
H  H22  1  0.93581993  0.71951094  0.06776378  1  0  0.12539  0  0.907604  0  0  0.141276  0  0.962595  0  0  0.143583  0  0.961767  0  0  0.11084  0.139591  0  0.963284  0
H  H23  1  0.06417890  0.21951071  0.93223623  1  0  0.125386  0  0.907605  0  0  0.141272  0  0.962595  0  0  0.143579  0  0.961768  0  0  0.110836  0.139587  0  0.963286  0
H  H24  1  0.14205536  0.56730152  0.51917368  1  0  0.113187  0  0.927132  0  0  0.130673  0  0.980295  0  0  0.132768  0  0.979818  0  0  0.10506  0.129178  0  0.980674  0
H  H25  1  0.85794553  0.06730103  0.48082642  1  0  0.1132  0  0.927104  0  0  0.130657  0  0.980297  0  0  0.132748  0  0.979824  0  0  0.105065  0.129162  0  0.980674  0
H  H26  1  0.85794547  0.56730092  0.01917419  1  0  0.113193  0  0.927107  0  0  0.130655  0  0.980302  0  0  0.132747  0  0.979827  0  0  0.105061  0.12916  0  0.98068  0
H  H27  1  0.14205542  0.06730162  0.98082591  1  0  0.113193  0  0.927134  0  0  0.130661  0  0.980315  0  0  0.132754  0  0.979841  0  0  0.105058  0.129166  0  0.980694  0
C  C28  1  0.71226484  0.45297347  0.73837113  1  0  0.374847  0  3.723987  0  0  0.34704  0  3.989732  0  0  0.361286  0  4.006537  0  0  0.236269  0.33773  0  3.977966  0
C  C29  1  0.28773405  0.95297236  0.26162873  1  0  0.374961  0  3.723925  0  0  0.34716  0  3.989644  0  0  0.361405  0  4.006447  0  0  0.236329  0.337855  0  3.97788  0
C  C30  1  0.28773398  0.45297285  0.23837099  1  0  0.374955  0  3.724016  0  0  0.34716  0  3.989737  0  0  0.361407  0  4.006539  0  0  0.236323  0.337845  0  3.977973  0
C  C31  1  0.71226491  0.95297299  0.76162888  1  0  0.37486  0  3.724002  0  0  0.347045  0  3.989726  0  0  0.36129  0  4.006531  0  0  0.236261  0.337727  0  3.977961  0
C  C32  1  0.91565463  0.51687091  0.67996424  1  0  -0.213349  0  3.684326  0  0  -0.251749  0  3.935115  0  0  -0.255193  0  3.945967  0  0  -0.154602  -0.249295  0  3.927522  0
C  C33  1  0.08434415  0.01687063  0.32003652  1  0  -0.213352  0  3.684236  0  0  -0.251738  0  3.934989  0  0  -0.255174  0  3.945846  0  0  -0.154604  -0.249309  0  3.927422  0
C  C34  1  0.08434418  0.51687027  0.17996472  1  0  -0.213428  0  3.684423  0  0  -0.251799  0  3.935176  0  0  -0.25524  0  3.946031  0  0  -0.154648  -0.249347  0  3.927561  0
C  C35  1  0.91565460  0.01687026  0.82003667  1  0  -0.213436  0  3.684408  0  0  -0.25174  0  3.935073  0  0  -0.255177  0  3.945929  0  0  -0.154601  -0.249277  0  3.927448  0
C  C36  1  0.76811066  0.56074964  0.59852639  1  0  -0.065812  0  3.676712  0  0  -0.107164  0  3.933719  0  0  -0.107259  0  3.947714  0  0  -0.165228  -0.106877  0  3.923922  0
C  C37  1  0.23189232  0.06074924  0.40147372  1  0  -0.065839  0  3.676641  0  0  -0.107196  0  3.933649  0  0  -0.107311  0  3.947659  0  0  -0.16523  -0.106904  0  3.923856  0
C  C38  1  0.23189020  0.56075001  0.09852624  1  0  -0.065784  0  3.67671  0  0  -0.107121  0  3.933711  0  0  -0.107225  0  3.947713  0  0  -0.165211  -0.106839  0  3.923917  0
C  C39  1  0.76810859  0.06074987  0.90147450  1  0  -0.065821  0  3.676733  0  0  -0.107186  0  3.933735  0  0  -0.107291  0  3.947739  0  0  -0.165243  -0.106907  0  3.923939  0
C  C40  1  0.96591104  0.63167519  0.53779923  1  0  -0.274656  0  3.662251  0  0  -0.30811  0  3.904302  0  0  -0.314928  0  3.913551  0  0  -0.161477  -0.303379  0  3.897796  0
C  C41  1  0.03408986  0.13167668  0.46220020  1  0  -0.274631  0  3.662208  0  0  -0.308045  0  3.904201  0  0  -0.314858  0  3.913454  0  0  -0.16145  -0.303312  0  3.897688  0
C  C42  1  0.03408980  0.63167555  0.03779970  1  0  -0.274661  0  3.662253  0  0  -0.308096  0  3.904298  0  0  -0.314912  0  3.913551  0  0  -0.161466  -0.303364  0  3.897791  0
C  C43  1  0.96591110  0.13167633  0.96220036  1  0  -0.274647  0  3.662211  0  0  -0.308075  0  3.904267  0  0  -0.314893  0  3.913526  0  0  -0.161454  -0.303343  0  3.897761  0
C  C44  1  0.81764195  0.67952324  0.45940895  1  0  0.731897  0  3.783581  0  0  0.679899  0  4.078784  0  0  0.714972  0  4.070399  0  0  0.229472  0.655977  0  4.083802  0
C  C45  1  0.18235897  0.17952362  0.54059045  1  0  0.731907  0  3.783522  0  0  0.67991  0  4.078721  0  0  0.714984  0  4.070332  0  0  0.229472  0.655989  0  4.083739  0
C  C46  1  0.18235915  0.67952384  0.95940970  1  0  0.731912  0  3.783491  0  0  0.679927  0  4.07868  0  0  0.715002  0  4.070292  0  0  0.229467  0.656007  0  4.083698  0
C  C47  1  0.81764386  0.17952303  0.04059096  1  0  0.731921  0  3.783529  0  0  0.679889  0  4.078782  0  0  0.714959  0  4.070397  0  0  0.229454  0.655968  0  4.0838  0
N  N48  1  0.59703552  0.50918030  0.80671782  1  0  -0.370723  0  3.219564  0  0  -0.297358  0  3.528803  0  0  -0.317609  0  3.539075  0  0  -0.249009  -0.283423  0  3.521595  0
N  N49  1  0.40296326  0.00917923  0.19328231  1  0  -0.370801  0  3.219614  0  0  -0.297444  0  3.528864  0  0  -0.317696  0  3.539136  0  0  -0.249044  -0.283506  0  3.521653  0
N  N50  1  0.40296335  0.50917968  0.30671768  1  0  -0.370747  0  3.219544  0  0  -0.297393  0  3.528792  0  0  -0.31764  0  3.539057  0  0  -0.249016  -0.283457  0  3.521581  0
N  N51  1  0.59703542  0.00917985  0.69328245  1  0  -0.370689  0  3.21955  0  0  -0.297333  0  3.528795  0  0  -0.317582  0  3.539067  0  0  -0.24899  -0.283395  0  3.521584  0
N  N52  1  0.41009538  0.42026025  0.83920585  1  0  -0.065238  0  2.924714  0  0  -0.065249  0  3.216055  0  0  -0.063165  0  3.227031  0  0  -0.092906  -0.066543  0  3.208583  0
N  N53  1  0.58990560  0.92025931  0.16079403  1  0  -0.065222  0  2.924683  0  0  -0.065231  0  3.216022  0  0  -0.063148  0  3.226997  0  0  -0.09291  -0.066527  0  3.20855  0
N  N54  1  0.58990558  0.42025964  0.33920572  1  0  -0.065214  0  2.924688  0  0  -0.065223  0  3.216023  0  0  -0.063141  0  3.226999  0  0  -0.092899  -0.066515  0  3.208548  0
N  N55  1  0.41009539  0.92026092  0.66079354  1  0  -0.065253  0  2.924746  0  0  -0.065261  0  3.216085  0  0  -0.06318  0  3.227063  0  0  -0.092907  -0.066555  0  3.208607  0
N  N56  1  0.41001571  0.31369694  0.79243236  1  0  -0.069007  0  2.952329  0  0  -0.062678  0  3.251259  0  0  -0.061372  0  3.262015  0  0  -0.086099  -0.063611  0  3.244211  0
N  N57  1  0.58998314  0.81369693  0.20756822  1  0  -0.06902  0  2.952347  0  0  -0.062689  0  3.251284  0  0  -0.061382  0  3.262038  0  0  -0.086109  -0.063623  0  3.244236  0
N  N58  1  0.58998520  0.31369733  0.29243160  1  0  -0.069036  0  2.952379  0  0  -0.062699  0  3.251303  0  0  -0.061394  0  3.262061  0  0  -0.086119  -0.063634  0  3.244256  0
N  N59  1  0.41001575  0.81369754  0.70756773  1  0  -0.069016  0  2.95235  0  0  -0.062682  0  3.251284  0  0  -0.061377  0  3.262042  0  0  -0.08612  -0.063616  0  3.244234  0
N  N60  1  0.59743367  0.33125426  0.72872428  1  0  -0.37585  0  3.217453  0  0  -0.302994  0  3.530925  0  0  -0.322929  0  3.539875  0  0  -0.252329  -0.289415  0  3.52487  0
N  N61  1  0.40256729  0.83125415  0.27127566  1  0  -0.375887  0  3.217457  0  0  -0.303054  0  3.530956  0  0  -0.322989  0  3.539904  0  0  -0.252347  -0.289474  0  3.524896  0
N  N62  1  0.40256721  0.33125464  0.22872414  1  0  -0.375893  0  3.21746  0  0  -0.303054  0  3.530943  0  0  -0.32299  0  3.539894  0  0  -0.252338  -0.289477  0  3.524893  0
N  N63  1  0.59743374  0.83125477  0.77127580  1  0  -0.375829  0  3.217414  0  0  -0.302999  0  3.53092  0  0  -0.322934  0  3.539871  0  0  -0.252313  -0.289424  0  3.524872  0
O  O64  1  0.94880119  0.70749566  0.39168709  1  0  -0.658271  0  2.081048  0  0  -0.588349  0  2.372873  0  0  -0.615783  0  2.354722  0  0  -0.325  -0.569378  0  2.384967  0
O  O65  1  0.05119764  0.20749593  0.60831229  1  0  -0.658279  0  2.081004  0  0  -0.588355  0  2.372819  0  0  -0.615789  0  2.35467  0  0  -0.324993  -0.569387  0  2.384915  0
O  O66  1  0.05119778  0.70749525  0.89168721  1  0  -0.658273  0  2.080964  0  0  -0.588363  0  2.372795  0  0  -0.615798  0  2.354646  0  0  -0.325  -0.569393  0  2.384891  0
O  O67  1  0.94880105  0.20749634  0.10831281  1  0  -0.658281  0  2.081035  0  0  -0.588344  0  2.372868  0  0  -0.615779  0  2.354721  0  0  -0.324997  -0.569373  0  2.384961  0
O  O68  1  0.55163489  0.69169035  0.46353021  1  0  -0.626195  0  2.076809  0  0  -0.548373  0  2.351394  0  0  -0.577056  0  2.336252  0  0  -0.311253  -0.528564  0  2.36112  0
O  O69  1  0.44836603  0.19168875  0.53646918  1  0  -0.626176  0  2.076778  0  0  -0.548356  0  2.351362  0  0  -0.577041  0  2.336223  0  0  -0.311255  -0.528549  0  2.361088  0
O  O70  1  0.44836621  0.69168896  0.96353035  1  0  -0.626185  0  2.076768  0  0  -0.548357  0  2.351337  0  0  -0.57704  0  2.336196  0  0  -0.311239  -0.528549  0  2.361064  0
O  O71  1  0.55163471  0.19168814  0.03647094  1  0  -0.626202  0  2.076809  0  0  -0.54836  0  2.351402  0  0  -0.577032  0  2.336255  0  0  -0.31124  -0.528551  0  2.361128  0
