# generated using pymatgen
data_AlHC9N3O7
_symmetry_space_group_name_H-M   'P 1'
_cell_length_a   6.68397471
_cell_length_b   16.02795815
_cell_length_c   19.15140231
_cell_angle_alpha   100.90657600
_cell_angle_beta   99.98471346
_cell_angle_gamma   102.09267490
_symmetry_Int_Tables_number   1
_chemical_formula_structural   AlHC9N3O7
_chemical_formula_sum   'Al4 H4 C36 N12 O28'
_cell_volume   1920.83812306
_cell_formula_units_Z   4
loop_
 _symmetry_equiv_pos_site_id
 _symmetry_equiv_pos_as_xyz
  1  'x, y, z'
loop_
 _atom_site_type_symbol
 _atom_site_label
 _atom_site_symmetry_multiplicity
 _atom_site_fract_x
 _atom_site_fract_y
 _atom_site_fract_z
 _atom_site_occupancy
 _atom_site_pbe_bader_charge
 _atom_site_pbe_bader_spin_density
 _atom_site_pbe_cm5_charge
 _atom_site_pbe_ddec_charge
 _atom_site_pbe_ddec_spin_density
 _atom_site_pbe_ddec_sum_bond_order
 _atom_site_pbe_magmom
Al  Al0  1  0.84877364  0.24863405  0.24793466  1  2.504225  0  0.408303  1.646954  0  2.56912  0
Al  Al1  1  0.14435418  0.75073227  0.75167356  1  2.500289  0  0.410073  1.643348  0  2.573031  0
Al  Al2  1  0.35227408  0.25165003  0.25187776  1  2.504908  0  0.408977  1.648191  0  2.567113  0
Al  Al3  1  0.64161489  0.74878373  0.74818114  1  2.502363  0  0.409588  1.641918  0  2.577462  0
C  C4  1  0.09436316  0.15623813  0.33391843  1  1.706093  0  0.28762  0.714738  0  4.146454  0
C  C5  1  0.89426087  0.83793668  0.66147822  1  1.675089  0  0.290575  0.724639  0  4.136608  0
C  C6  1  0.60646591  0.34409905  0.16595525  1  1.715972  0  0.285557  0.711036  0  4.152882  0
C  C7  1  0.39397364  0.66172206  0.83843668  1  1.698029  0  0.288742  0.719912  0  4.137437  0
C  C8  1  0.99112318  0.13927060  0.13751652  1  1.702866  0  0.28265  0.647001  0  4.134413  0
C  C9  1  0.00366301  0.86945963  0.85694774  1  1.681657  0  0.275088  0.632785  0  4.162167  0
C  C10  1  0.71341092  0.36091049  0.36240531  1  1.660318  0  0.282556  0.6462  0  4.134339  0
C  C11  1  0.27735790  0.63002083  0.64299072  1  1.678835  0  0.276408  0.636556  0  4.160216  0
C  C12  1  0.79856057  0.43131626  0.43144914  1  0.302902  0  0.112248  -0.069206  0  3.747294  0
C  C13  1  0.19664635  0.55723202  0.57480176  1  0.295122  0  0.115658  -0.053788  0  3.722073  0
C  C14  1  0.93568924  0.06865962  0.06853467  1  0.320477  0  0.110511  -0.070848  0  3.75114  0
C  C15  1  0.06397180  0.94225481  0.92515388  1  0.287486  0  0.116635  -0.051487  0  3.72539  0
C  C16  1  0.98754060  0.48985948  0.44631520  1  0.168128  0  0.050428  0.047639  0  4.006056  0
C  C17  1  0.06674689  0.56246424  0.51415967  1  0.165962  0  0.047899  0.040999  0  4.002225  0
C  C18  1  0.05033892  0.00984131  0.05358798  1  0.159982  0  0.050273  0.04624  0  4.005387  0
C  C19  1  0.98877974  0.93718343  0.98576538  1  0.19136  0  0.047836  0.041618  0  4.000928  0
C  C20  1  0.59760756  0.39097837  0.10871372  1  0.048106  0  0.014754  -0.10053  0  3.835497  0
C  C21  1  0.40048852  0.61237994  0.89367821  1  0.160168  0  0.009463  -0.113824  0  3.853317  0
C  C22  1  0.09667744  0.10967693  0.39136823  1  -0.163064  0  0.01347  -0.102925  0  3.832251  0
C  C23  1  0.89523821  0.88750878  0.60637995  1  0.193953  0  0.008146  -0.118555  0  3.854658  0
C  C24  1  0.57226724  0.47583572  0.00452516  1  0.19777  0  0.062174  0.082755  0  4.050151  0
C  C25  1  0.42542943  0.52535319  0.99633538  1  0.23874  0  0.063054  0.08385  0  4.045707  0
C  C26  1  0.09098624  0.02486806  0.49561493  1  0.187035  0  0.062752  0.084265  0  4.050361  0
C  C27  1  0.90326198  0.97491973  0.50391124  1  0.252962  0  0.062226  0.080866  0  4.047878  0
C  C28  1  0.40925305  0.57169034  0.94121994  1  -0.281443  0  0.005895  -0.002657  0  4.047853  0
C  C29  1  0.58872695  0.42999045  0.06001158  1  -0.175824  0  0.001117  -0.014797  0  4.05641  0
C  C30  1  0.89676690  0.92840511  0.55894539  1  -0.290327  0  0.007132  0.001782  0  4.045338  0
C  C31  1  0.09745817  0.07077316  0.44015975  1  0.023694  0  0.001655  -0.01391  0  4.052767  0
C  C32  1  0.00258181  0.64108047  0.51018259  1  0.869565  0  0.192819  0.244741  0  3.979469  0
C  C33  1  0.12058042  0.48954466  0.39565377  1  0.885237  0  0.200056  0.259114  0  3.983946  0
C  C34  1  0.84892737  0.85875239  0.98971315  1  0.864448  0  0.192118  0.244731  0  3.983635  0
C  C35  1  0.23392047  0.01014860  0.10432465  1  0.903506  0  0.200273  0.259239  0  3.977853  0
C  C36  1  0.28691175  0.53058621  0.04505919  1  0.843949  0  0.19674  0.24206  0  3.972341  0
C  C37  1  0.71040810  0.47103409  0.95558105  1  0.853402  0  0.196146  0.243207  0  3.968271  0
C  C38  1  0.71058200  0.96944473  0.45536563  1  0.877256  0  0.195915  0.240321  0  3.974034  0
C  C39  1  0.28296125  0.03001842  0.54442640  1  0.904648  0  0.196887  0.244512  0  3.970897  0
H  H40  1  0.16765834  0.36637084  0.27217354  1  0.618812  0  0.345928  0.43484  0  0.862882  0
H  H41  1  0.84583440  0.64333813  0.76276161  1  0.624421  0  0.365462  0.4505  0  0.822478  0
H  H42  1  0.52894014  0.13388988  0.22800903  1  0.619547  0  0.346175  0.434728  0  0.862873  0
H  H43  1  0.43997708  0.85630550  0.73728390  1  0.631544  0  0.365435  0.450688  0  0.82185  0
N  N44  1  0.94861533  0.70437613  0.50328712  1  -1.012607  0  -0.253902  -0.277241  0  2.64786  0
N  N45  1  0.23650505  0.49440755  0.35654583  1  -1.031551  0  -0.261761  -0.296224  0  2.676792  0
N  N46  1  0.73782976  0.79557018  0.99660237  1  -1.025654  0  -0.253579  -0.27768  0  2.653727  0
N  N47  1  0.38356087  0.00530882  0.14356232  1  -1.07296  0  -0.260823  -0.294831  0  2.670998  0
N  N48  1  0.25119267  0.47408341  0.58014548  1  0.392347  0  0.066444  0.524965  0  4.217238  0
N  N49  1  0.67762349  0.42938185  0.48837417  1  0.4169  0  0.062534  0.52354  0  4.225735  0
N  N50  1  0.19711590  0.02529353  0.91983554  1  0.404679  0  0.065049  0.521949  0  4.220735  0
N  N51  1  0.76013087  0.07085535  0.01179184  1  0.387229  0  0.063792  0.5257  0  4.223523  0
N  N52  1  0.17163269  0.53604441  0.08413927  1  -1.013148  0  -0.271062  -0.304625  0  2.657357  0
N  N53  1  0.82418092  0.46652408  0.91586633  1  -1.053753  0  -0.272452  -0.30597  0  2.653315  0
N  N54  1  0.55067392  0.96383791  0.41641896  1  -1.061941  0  -0.269608  -0.301989  0  2.657202  0
N  N55  1  0.44102307  0.03477587  0.58409204  1  -1.070057  0  -0.273701  -0.307883  0  2.655021  0
O  O56  1  0.18532676  0.16606649  0.16553056  1  -1.240835  0  -0.207892  -0.553938  0  2.378194  0
O  O57  1  0.80872899  0.84330276  0.82996536  1  -1.222161  0  -0.213895  -0.554176  0  2.342155  0
O  O58  1  0.85249474  0.33524182  0.33335701  1  -1.239271  0  -0.209  -0.555792  0  2.380734  0
O  O59  1  0.13543233  0.65622324  0.66992512  1  -1.227566  0  -0.214428  -0.556127  0  2.340268  0
O  O60  1  0.92090535  0.17261890  0.30939028  1  -1.223842  0  -0.219578  -0.56994  0  2.275446  0
O  O61  1  0.06631031  0.82039592  0.68608223  1  -1.235227  0  -0.219397  -0.581767  0  2.291254  0
O  O62  1  0.44275223  0.32880890  0.19164632  1  -1.225323  0  -0.220606  -0.572152  0  2.277008  0
O  O63  1  0.55913898  0.67922476  0.81379030  1  -1.230544  0  -0.218322  -0.580091  0  2.292242  0
O  O64  1  0.84088927  0.16161451  0.16133935  1  -1.226342  0  -0.213254  -0.553787  0  2.342089  0
O  O65  1  0.15263746  0.84329083  0.83531198  1  -1.22139  0  -0.213702  -0.546474  0  2.322516  0
O  O66  1  0.51683800  0.33754837  0.33944809  1  -1.206198  0  -0.212543  -0.551664  0  2.341107  0
O  O67  1  0.47406154  0.65619746  0.66460453  1  -1.209592  0  -0.214179  -0.547637  0  2.325307  0
O  O68  1  0.77748233  0.32328804  0.18542767  1  -1.222285  0  -0.217713  -0.566047  0  2.281992  0
O  O69  1  0.22330069  0.68287876  0.81865435  1  -1.2308  0  -0.219975  -0.576003  0  2.279092  0
O  O70  1  0.26525711  0.17567199  0.31312930  1  -1.219504  0  -0.220278  -0.570802  0  2.281354  0
O  O71  1  0.72192838  0.81659999  0.68118063  1  -1.233809  0  -0.221303  -0.577829  0  2.279948  0
O  O72  1  0.12988155  0.30244168  0.25816374  1  -1.417553  0  -0.446545  -1.002927  0  2.18904  0
O  O73  1  0.86571047  0.69779939  0.74661348  1  -1.419753  0  -0.443717  -0.993372  0  2.172635  0
O  O74  1  0.56905069  0.19782388  0.24177645  1  -1.41687  0  -0.446925  -1.002564  0  2.189068  0
O  O75  1  0.42114266  0.80172598  0.75324849  1  -1.425701  0  -0.44353  -0.993419  0  2.172765  0
O  O76  1  0.31572392  0.46638429  0.64245211  1  -0.401199  0  -0.097131  -0.277571  0  1.853327  0
O  O77  1  0.22282802  0.41758632  0.52291417  1  -0.416763  0  -0.098047  -0.299903  0  1.967988  0
O  O78  1  0.66540695  0.50036387  0.52453294  1  -0.433777  0  -0.105609  -0.305829  0  1.929591  0
O  O79  1  0.60396989  0.35582307  0.49703395  1  -0.392143  0  -0.082957  -0.258126  0  1.86747  0
O  O80  1  0.20719250  0.03311325  0.85753576  1  -0.398178  0  -0.096003  -0.275677  0  1.8556  0
O  O81  1  0.28290080  0.08169781  0.97706876  1  -0.427137  0  -0.098714  -0.300255  0  1.968718  0
O  O82  1  0.64160355  0.99990513  0.97513693  1  -0.429527  0  -0.106345  -0.306823  0  1.928279  0
O  O83  1  0.75089624  0.14456910  0.00374384  1  -0.376363  0  -0.082759  -0.258467  0  1.867779  0
