# generated using pymatgen
data_ZnH14C20(NO)4
_symmetry_space_group_name_H-M   'P 1'
_cell_length_a   7.45059027
_cell_length_b   9.60390998
_cell_length_c   13.40032045
_cell_angle_alpha   104.38074894
_cell_angle_beta   90.02040951
_cell_angle_gamma   112.79488921
_symmetry_Int_Tables_number   1
_chemical_formula_structural   ZnH14C20(NO)4
_chemical_formula_sum   'Zn2 H28 C40 N8 O8'
_cell_volume   851.24805527
_cell_formula_units_Z   2
loop_
 _symmetry_equiv_pos_site_id
 _symmetry_equiv_pos_as_xyz
  1  'x, y, z'
loop_
 _atom_site_type_symbol
 _atom_site_label
 _atom_site_symmetry_multiplicity
 _atom_site_fract_x
 _atom_site_fract_y
 _atom_site_fract_z
 _atom_site_occupancy
 _atom_site_hle17_bader_spin_density
 _atom_site_hle17_ddec_charge
 _atom_site_hle17_ddec_spin_density
 _atom_site_hle17_ddec_sum_bond_order
 _atom_site_hle17_magmom
 _atom_site_hse06_10hf_bader_spin_density
 _atom_site_hse06_10hf_ddec_charge
 _atom_site_hse06_10hf_ddec_spin_density
 _atom_site_hse06_10hf_ddec_sum_bond_order
 _atom_site_hse06_10hf_magmom
 _atom_site_hse06_bader_spin_density
 _atom_site_hse06_ddec_charge
 _atom_site_hse06_ddec_spin_density
 _atom_site_hse06_ddec_sum_bond_order
 _atom_site_hse06_magmom
 _atom_site_pbe_bader_spin_density
 _atom_site_pbe_cm5_charge
 _atom_site_pbe_ddec_charge
 _atom_site_pbe_ddec_spin_density
 _atom_site_pbe_ddec_sum_bond_order
 _atom_site_pbe_magmom
Zn  Zn0  1  0.58796101  0.99997222  0.75019187  1  0  1.032425  0  1.835347  0  0  0.840957  0  2.314488  0  0  0.886226  0  2.260998  0  0  0.713014  0.809247  0  2.351818  0
Zn  Zn1  1  0.41204165  0.00002800  0.24980626  1  0  1.032414  0  1.835353  0  0  0.840951  0  2.314466  0  0  0.886229  0  2.260964  0  0  0.713012  0.809248  0  2.3518  0
H  H2  1  0.09206581  0.56535995  0.84438036  1  0  0.321204  0  0.925857  0  0  0.2999  0  0.991142  0  0  0.309433  0  0.982704  0  0  0.309394  0.293173  0  0.997271  0
H  H3  1  0.52664693  0.43445397  0.65537725  1  0  0.320854  0  0.926336  0  0  0.299353  0  0.991909  0  0  0.308742  0  0.983717  0  0  0.309314  0.292493  0  0.998098  0
H  H4  1  0.90793131  0.43464259  0.15562118  1  0  0.321252  0  0.925801  0  0  0.299945  0  0.991083  0  0  0.309481  0  0.982647  0  0  0.309395  0.293218  0  0.997211  0
H  H5  1  0.47334977  0.56554505  0.34462291  1  0  0.320859  0  0.92636  0  0  0.299346  0  0.991945  0  0  0.308736  0  0.983751  0  0  0.309297  0.292484  0  0.998134  0
H  H6  1  0.40103517  0.24272292  0.86992239  1  0  0.099801  0  0.977018  0  0  0.107476  0  1.043133  0  0  0.110691  0  1.041554  0  0  0.099381  0.105179  0  1.044411  0
H  H7  1  0.15782538  0.75754375  0.62994279  1  0  0.099773  0  0.976837  0  0  0.10801  0  1.04214  0  0  0.111243  0  1.040543  0  0  0.099468  0.105433  0  1.04432  0
H  H8  1  0.59896271  0.75727845  0.13007745  1  0  0.099772  0  0.977039  0  0  0.107484  0  1.043098  0  0  0.110701  0  1.041517  0  0  0.099375  0.105188  0  1.044382  0
H  H9  1  0.84216956  0.24245175  0.37005747  1  0  0.099778  0  0.976833  0  0  0.108014  0  1.042116  0  0  0.111247  0  1.04052  0  0  0.099467  0.105419  0  1.044327  0
H  H10  1  0.70942238  0.34878820  0.98215773  1  0  0.099321  0  0.950496  0  0  0.109563  0  1.011619  0  0  0.112345  0  1.010961  0  0  0.101358  0.107617  0  1.012045  0
H  H11  1  0.36029703  0.65146219  0.51792081  1  0  0.098603  0  0.950761  0  0  0.108975  0  1.011658  0  0  0.111765  0  1.010999  0  0  0.10114  0.107181  0  1.012104  0
H  H12  1  0.29057801  0.65121553  0.01784178  1  0  0.099382  0  0.950429  0  0  0.109604  0  1.011572  0  0  0.112372  0  1.010959  0  0  0.101378  0.107659  0  1.012002  0
H  H13  1  0.63969792  0.34853331  0.48207871  1  0  0.098567  0  0.950806  0  0  0.108967  0  1.011681  0  0  0.111757  0  1.011022  0  0  0.101121  0.107167  0  1.012129  0
H  H14  1  0.01915264  0.10885931  0.85831708  1  0  0.101808  0  1.002575  0  0  0.110943  0  1.065632  0  0  0.111891  0  1.068087  0  0  0.111725  0.110188  0  1.064132  0
H  H15  1  0.90975662  0.89105307  0.64166676  1  0  0.102068  0  1.002214  0  0  0.111363  0  1.065056  0  0  0.112343  0  1.067434  0  0  0.111755  0.110529  0  1.063789  0
H  H16  1  0.98084640  0.89114440  0.14168467  1  0  0.101803  0  1.002572  0  0  0.110926  0  1.065643  0  0  0.111874  0  1.068107  0  0  0.111739  0.110175  0  1.064145  0
H  H17  1  0.09024159  0.10894361  0.35833297  1  0  0.102069  0  1.002271  0  0  0.111388  0  1.065079  0  0  0.112369  0  1.067459  0  0  0.11176  0.110555  0  1.063815  0
H  H18  1  0.74977803  0.36744773  0.75403735  1  0  0.09935  0  0.977217  0  0  0.105819  0  1.042975  0  0  0.109079  0  1.039416  0  0  0.132981  0.103283  0  1.045839  0
H  H19  1  0.38232102  0.63228037  0.74590633  1  0  0.099186  0  0.978046  0  0  0.105578  0  1.044015  0  0  0.108889  0  1.04035  0  0  0.133014  0.103145  0  1.046661  0
H  H20  1  0.25021985  0.63255365  0.24596174  1  0  0.099416  0  0.977188  0  0  0.105879  0  1.042947  0  0  0.109142  0  1.039385  0  0  0.132997  0.103344  0  1.045811  0
H  H21  1  0.61767819  0.36772098  0.25409648  1  0  0.099189  0  0.97806  0  0  0.10562  0  1.043989  0  0  0.108934  0  1.040318  0  0  0.133027  0.103184  0  1.046642  0
H  H22  1  0.21076736  0.85104531  0.45776139  1  0  0.103572  0  0.958218  0  0  0.111979  0  1.021439  0  0  0.114746  0  1.020678  0  0  0.103886  0.109577  0  1.023457  0
H  H23  1  0.35963006  0.14935154  0.04223802  1  0  0.103586  0  0.959323  0  0  0.112083  0  1.02255  0  0  0.114979  0  1.021631  0  0  0.104065  0.109935  0  1.023448  0
H  H24  1  0.78922911  0.14894788  0.54223472  1  0  0.103572  0  0.958215  0  0  0.111976  0  1.021433  0  0  0.114744  0  1.020676  0  0  0.103891  0.109575  0  1.02345  0
H  H25  1  0.64038071  0.85065684  0.95776681  1  0  0.103607  0  0.959151  0  0  0.112102  0  1.02241  0  0  0.114998  0  1.021489  0  0  0.104081  0.109955  0  1.023308  0
H  H26  1  0.88233497  0.75224592  0.35813342  1  0  0.098072  0  0.955194  0  0  0.106113  0  1.018522  0  0  0.109177  0  1.017708  0  0  0.100868  0.104058  0  1.019061  0
H  H27  1  0.12970565  0.24811148  0.14156979  1  0  0.098508  0  0.954686  0  0  0.10684  0  1.017449  0  0  0.109888  0  1.016668  0  0  0.101129  0.104529  0  1.01841  0
H  H28  1  0.11766016  0.24774728  0.64186120  1  0  0.098031  0  0.955164  0  0  0.106069  0  1.018506  0  0  0.109128  0  1.017694  0  0  0.100865  0.104012  0  1.019044  0
H  H29  1  0.87030244  0.75189691  0.85843430  1  0  0.098566  0  0.954587  0  0  0.106942  0  1.017301  0  0  0.109991  0  1.016518  0  0  0.101162  0.104631  0  1.018263  0
C  C30  1  0.32173586  0.43803705  0.93538360  1  0  0.022809  0  3.831372  0  0  0.039016  0  4.065417  0  0  0.038749  0  4.089552  0  0  -0.014594  0.038952  0  4.049062  0
C  C31  1  0.88352853  0.56193956  0.56445497  1  0  0.022116  0  3.831747  0  0  0.037796  0  4.066111  0  0  0.037521  0  4.090319  0  0  -0.014998  0.038627  0  4.049476  0
C  C32  1  0.67825875  0.56196316  0.06461528  1  0  0.022937  0  3.831199  0  0  0.039055  0  4.065389  0  0  0.038787  0  4.089525  0  0  -0.014625  0.038987  0  4.049038  0
C  C33  1  0.11646967  0.43805709  0.43554848  1  0  0.02229  0  3.831774  0  0  0.037859  0  4.066211  0  0  0.037596  0  4.090407  0  0  -0.014934  0.038687  0  4.049579  0
C  C34  1  0.44332057  0.35541623  0.92710630  1  0  -0.097213  0  3.751934  0  0  -0.11639  0  3.99944  0  0  -0.118982  0  4.02058  0  0  -0.090471  -0.114402  0  3.985197  0
C  C35  1  0.08755849  0.64473259  0.57284441  1  0  -0.097741  0  3.752726  0  0  -0.117451  0  4.000121  0  0  -0.120108  0  4.021347  0  0  -0.090627  -0.114829  0  3.986762  0
C  C36  1  0.55667539  0.64458400  0.07289109  1  0  -0.0973  0  3.752078  0  0  -0.116471  0  3.999614  0  0  -0.119062  0  4.020751  0  0  -0.090509  -0.114486  0  3.985381  0
C  C37  1  0.91243644  0.35526290  0.42715659  1  0  -0.097855  0  3.752728  0  0  -0.117531  0  4.000165  0  0  -0.120194  0  4.021392  0  0  -0.090688  -0.114896  0  3.986813  0
C  C38  1  0.61796117  0.41546420  0.99102437  1  0  -0.107991  0  3.740542  0  0  -0.128872  0  3.992047  0  0  -0.131195  0  4.012337  0  0  -0.093807  -0.127088  0  3.978146  0
C  C39  1  0.20223834  0.58467865  0.50902708  1  0  -0.106603  0  3.740637  0  0  -0.12721  0  3.991942  0  0  -0.129515  0  4.012231  0  0  -0.09353  -0.126186  0  3.978267  0
C  C40  1  0.38203981  0.58454070  0.00897536  1  0  -0.107989  0  3.740592  0  0  -0.128886  0  3.992098  0  0  -0.131216  0  4.012381  0  0  -0.093846  -0.127103  0  3.9782  0
C  C41  1  0.79775543  0.41531450  0.49097275  1  0  -0.106508  0  3.740601  0  0  -0.127172  0  3.991871  0  0  -0.129475  0  4.012166  0  0  -0.093463  -0.126138  0  3.97818  0
C  C42  1  0.13117961  0.36523427  0.87394335  1  0  0.127551  0  3.759087  0  0  0.115939  0  4.014018  0  0  0.119028  0  4.035977  0  0  0.085575  0.113964  0  3.998944  0
C  C43  1  0.76558402  0.63461542  0.62580280  1  0  0.126356  0  3.759616  0  0  0.11529  0  4.014039  0  0  0.11835  0  4.036039  0  0  0.085367  0.113045  0  3.999011  0
C  C44  1  0.86881558  0.63476710  0.12605723  1  0  0.127569  0  3.758739  0  0  0.115935  0  4.013756  0  0  0.119026  0  4.035715  0  0  0.085591  0.113966  0  3.998683  0
C  C45  1  0.23440941  0.36538242  0.37419789  1  0  0.126319  0  3.7596  0  0  0.115354  0  4.013935  0  0  0.11841  0  4.035934  0  0  0.08537  0.113114  0  3.998906  0
C  C46  1  0.00230199  0.20936186  0.84399251  1  0  -0.050956  0  3.706509  0  0  -0.090071  0  3.969411  0  0  -0.089709  0  3.991388  0  0  -0.003341  -0.089956  0  3.954229  0
C  C47  1  0.79252726  0.79048470  0.65593400  1  0  -0.052152  0  3.707839  0  0  -0.091595  0  3.970685  0  0  -0.091189  0  3.992644  0  0  -0.003689  -0.091471  0  3.956028  0
C  C48  1  0.99769705  0.79064185  0.15600924  1  0  -0.050971  0  3.706361  0  0  -0.090073  0  3.969304  0  0  -0.089715  0  3.991279  0  0  -0.003368  -0.089957  0  3.954118  0
C  C49  1  0.20747020  0.20951314  0.34406743  1  0  -0.052126  0  3.707922  0  0  -0.091603  0  3.97072  0  0  -0.0912  0  3.992683  0  0  -0.003662  -0.09148  0  3.956068  0
C  C50  1  0.85810814  0.34083954  0.79034380  1  0  0.228708  0  3.656968  0  0  0.167223  0  3.928741  0  0  0.181868  0  3.93964  0  0  0.145613  0.157616  0  3.921358  0
C  C51  1  0.51716174  0.65893050  0.70960250  1  0  0.228095  0  3.660088  0  0  0.166647  0  3.93162  0  0  0.181326  0  3.942468  0  0  0.14534  0.157109  0  3.923968  0
C  C52  1  0.14189167  0.65916301  0.20965625  1  0  0.228607  0  3.657135  0  0  0.167118  0  3.928909  0  0  0.181765  0  3.939804  0  0  0.145589  0.157513  0  3.921526  0
C  C53  1  0.48283956  0.34106968  0.29040010  1  0  0.228086  0  3.659961  0  0  0.166608  0  3.931498  0  0  0.181285  0  3.942348  0  0  0.145315  0.157072  0  3.923843  0
C  C54  1  0.18426400  0.05502502  0.55620434  1  0  -0.070038  0  3.754041  0  0  -0.047078  0  3.984669  0  0  -0.05297  0  4.004718  0  0  -0.017706  -0.043089  0  3.971604  0
C  C55  1  0.12939973  0.94490279  0.94394517  1  0  -0.069944  0  3.750805  0  0  -0.046628  0  3.98155  0  0  -0.052488  0  4.00162  0  0  -0.017921  -0.042645  0  3.968192  0
C  C56  1  0.81573188  0.94496699  0.44379156  1  0  -0.070218  0  3.754064  0  0  -0.047236  0  3.984687  0  0  -0.053135  0  4.004742  0  0  -0.017754  -0.043245  0  3.971628  0
C  C57  1  0.87061297  0.05510677  0.05605913  1  0  -0.069951  0  3.750924  0  0  -0.046604  0  3.981623  0  0  -0.052464  0  4.001694  0  0  -0.017854  -0.042624  0  3.968268  0
C  C58  1  0.11764237  0.91544936  0.47596697  1  0  -0.075467  0  3.740476  0  0  -0.097365  0  3.990698  0  0  -0.097752  0  4.01002  0  0  -0.084752  -0.098221  0  3.980774  0
C  C59  1  0.20216089  0.08468847  0.02401880  1  0  -0.0766  0  3.742829  0  0  -0.098916  0  3.993377  0  0  -0.099399  0  4.012676  0  0  -0.085031  -0.098691  0  3.980721  0
C  C60  1  0.88235872  0.08454500  0.52402861  1  0  -0.075451  0  3.740503  0  0  -0.097349  0  3.990728  0  0  -0.097737  0  4.010051  0  0  -0.084778  -0.098205  0  3.980799  0
C  C61  1  0.79785047  0.91532109  0.97598476  1  0  -0.076538  0  3.742776  0  0  -0.098903  0  3.993373  0  0  -0.099387  0  4.012671  0  0  -0.085031  -0.098677  0  3.980716  0
C  C62  1  0.93430116  0.86033136  0.42072310  1  0  -0.08508  0  3.746186  0  0  -0.106457  0  3.996136  0  0  -0.10735  0  4.015878  0  0  -0.087402  -0.105702  0  3.98349  0
C  C63  1  0.07381115  0.13985184  0.07910334  1  0  -0.085596  0  3.745392  0  0  -0.106958  0  3.995469  0  0  -0.107903  0  4.015267  0  0  -0.087533  -0.106505  0  3.982494  0
C  C64  1  0.06569531  0.13966183  0.57927227  1  0  -0.085123  0  3.746307  0  0  -0.106493  0  3.99627  0  0  -0.107385  0  4.016007  0  0  -0.087428  -0.105734  0  3.983615  0
C  C65  1  0.92620081  0.86015890  0.92090044  1  0  -0.085699  0  3.745394  0  0  -0.107078  0  3.995509  0  0  -0.108024  0  4.015306  0  0  -0.087572  -0.106624  0  3.982532  0
C  C66  1  0.37251913  0.10769427  0.62331382  1  0  0.666973  0  3.887146  0  0  0.615884  0  4.181039  0  0  0.650792  0  4.171035  0  0  0.216547  0.592337  0  4.186376  0
C  C67  1  0.26507043  0.89219547  0.87693926  1  0  0.666367  0  3.88504  0  0  0.61461  0  4.179731  0  0  0.649537  0  4.169803  0  0  0.216345  0.590786  0  4.185959  0
C  C68  1  0.62747751  0.89229658  0.37668037  1  0  0.666927  0  3.887469  0  0  0.615831  0  4.181358  0  0  0.650742  0  4.171355  0  0  0.216488  0.592277  0  4.186705  0
C  C69  1  0.73493959  0.10781410  0.12306356  1  0  0.666489  0  3.884617  0  0  0.614724  0  4.179294  0  0  0.64965  0  4.169367  0  0  0.21642  0.590903  0  4.185523  0
N  N70  1  0.03498493  0.44537708  0.83907912  1  0  -0.324971  0  3.392444  0  0  -0.259394  0  3.625052  0  0  -0.275866  0  3.637397  0  0  -0.368672  -0.248389  0  3.616795  0
N  N71  1  0.58943248  0.55442157  0.66069494  1  0  -0.323036  0  3.393809  0  0  -0.25756  0  3.626373  0  0  -0.273949  0  3.638876  0  0  -0.368016  -0.246413  0  3.617949  0
N  N72  1  0.96501219  0.55462546  0.16092168  1  0  -0.325045  0  3.392364  0  0  -0.259434  0  3.624961  0  0  -0.275912  0  3.637302  0  0  -0.368671  -0.248427  0  3.616698  0
N  N73  1  0.41056421  0.44557744  0.33930670  1  0  -0.323063  0  3.393705  0  0  -0.257604  0  3.626255  0  0  -0.273994  0  3.638759  0  0  -0.368018  -0.246454  0  3.617829  0
N  N74  1  0.83306424  0.19593776  0.79296766  1  0  -0.402293  0  3.320637  0  0  -0.317356  0  3.627878  0  0  -0.337723  0  3.638893  0  0  -0.364516  -0.303354  0  3.619803  0
N  N75  1  0.63689286  0.80387670  0.70707146  1  0  -0.400478  0  3.320515  0  0  -0.31564  0  3.627441  0  0  -0.336026  0  3.638513  0  0  -0.364153  -0.301794  0  3.6199  0
N  N76  1  0.16693364  0.80406362  0.20703143  1  0  -0.40223  0  3.320733  0  0  -0.3173  0  3.627974  0  0  -0.33767  0  3.638999  0  0  -0.364499  -0.303299  0  3.619904  0
N  N77  1  0.36310594  0.19612114  0.29292923  1  0  -0.400504  0  3.320457  0  0  -0.315678  0  3.62741  0  0  -0.336068  0  3.638492  0  0  -0.364172  -0.301832  0  3.619874  0
O  O78  1  0.42088678  0.99605053  0.63305580  1  0  -0.64542  0  2.05819  0  0  -0.567832  0  2.332554  0  0  -0.596434  0  2.316855  0  0  -0.324689  -0.547742  0  2.34283  0
O  O79  1  0.42515327  0.00382810  0.86740474  1  0  -0.645228  0  2.057257  0  0  -0.56742  0  2.332055  0  0  -0.59602  0  2.316306  0  0  -0.324615  -0.547192  0  2.342391  0
O  O80  1  0.57910600  0.00393795  0.36694095  1  0  -0.645266  0  2.058156  0  0  -0.567721  0  2.332537  0  0  -0.596311  0  2.316807  0  0  -0.324638  -0.547628  0  2.342815  0
O  O81  1  0.57485232  0.99617797  0.13259445  1  0  -0.645336  0  2.057168  0  0  -0.56747  0  2.331908  0  0  -0.596073  0  2.31616  0  0  -0.324588  -0.547244  0  2.342247  0
O  O82  1  0.46574717  0.25087098  0.66848322  1  0  -0.625721  0  1.990871  0  0  -0.579248  0  2.223637  0  0  -0.602606  0  2.213838  0  0  -0.313718  -0.56256  0  2.229765  0
O  O83  1  0.21522460  0.74904917  0.83169536  1  0  -0.624585  0  1.990645  0  0  -0.57788  0  2.223819  0  0  -0.601377  0  2.214044  0  0  -0.31351  -0.561752  0  2.230415  0
O  O84  1  0.53426232  0.74911872  0.33150778  1  0  -0.625708  0  1.991139  0  0  -0.579201  0  2.223875  0  0  -0.60256  0  2.214075  0  0  -0.313635  -0.562506  0  2.230006  0
O  O85  1  0.78478274  0.25096039  0.16830969  1  0  -0.624615  0  1.99042  0  0  -0.577927  0  2.223596  0  0  -0.601427  0  2.213821  0  0  -0.313597  -0.561798  0  2.230193  0
