# generated using pymatgen
data_CdH9C15S2NOF8
_symmetry_space_group_name_H-M   'P 1'
_cell_length_a   7.42412248
_cell_length_b   13.77187270
_cell_length_c   19.18230000
_cell_angle_alpha   110.01720175
_cell_angle_beta   90.00000000
_cell_angle_gamma   90.00000000
_symmetry_Int_Tables_number   1
_chemical_formula_structural   CdH9C15S2NOF8
_chemical_formula_sum   'Cd4 H36 C60 S8 N4 O4 F32'
_cell_volume   1842.79550297
_cell_formula_units_Z   4
loop_
 _symmetry_equiv_pos_site_id
 _symmetry_equiv_pos_as_xyz
  1  'x, y, z'
loop_
 _atom_site_type_symbol
 _atom_site_label
 _atom_site_symmetry_multiplicity
 _atom_site_fract_x
 _atom_site_fract_y
 _atom_site_fract_z
 _atom_site_occupancy
 _atom_site_hle17_bader_spin_density
 _atom_site_hle17_ddec_charge
 _atom_site_hle17_ddec_spin_density
 _atom_site_hle17_ddec_sum_bond_order
 _atom_site_hle17_magmom
 _atom_site_hse06_10hf_bader_spin_density
 _atom_site_hse06_10hf_ddec_charge
 _atom_site_hse06_10hf_ddec_spin_density
 _atom_site_hse06_10hf_ddec_sum_bond_order
 _atom_site_hse06_10hf_magmom
 _atom_site_hse06_bader_spin_density
 _atom_site_hse06_ddec_charge
 _atom_site_hse06_ddec_spin_density
 _atom_site_hse06_ddec_sum_bond_order
 _atom_site_hse06_magmom
 _atom_site_pbe_bader_charge
 _atom_site_pbe_bader_spin_density
 _atom_site_pbe_cm5_charge
 _atom_site_pbe_ddec_charge
 _atom_site_pbe_ddec_spin_density
 _atom_site_pbe_ddec_sum_bond_order
 _atom_site_pbe_magmom
Cd  Cd0  1  0.75811249  0.46261132  0.98416488  1  0  0.806223  0  2.025371  0  0  0.647609  0  2.484496  0  0  0.692624  0  2.449915  0  0.994466  0  0.540537  0.615669  0  2.508398  0
Cd  Cd1  1  0.25810862  0.03738665  0.51583731  1  0  0.806282  0  2.025308  0  0  0.64768  0  2.484431  0  0  0.692694  0  2.44985  0  0.994465  0  0.540558  0.615753  0  2.508308  0
Cd  Cd2  1  0.24189256  0.53739081  0.01583528  1  0  0.806269  0  2.025344  0  0  0.647665  0  2.484446  0  0  0.692679  0  2.449867  0  0.994442  0  0.540548  0.615726  0  2.508344  0
Cd  Cd3  1  0.74188566  0.96261084  0.48416380  1  0  0.806248  0  2.025392  0  0  0.64765  0  2.484518  0  0  0.692666  0  2.449933  0  0.994467  0  0.540537  0.61571  0  2.508421  0
H  H4  1  0.74588074  0.98935832  0.02850579  1  0  0.171988  0  0.920169  0  0  0.174633  0  0.985973  0  0  0.179388  0  0.981795  0  0.140727  0  0.117972  0.171255  0  0.989029  0
H  H5  1  0.24589573  0.51063947  0.47150276  1  0  0.171986  0  0.920071  0  0  0.174611  0  0.985919  0  0  0.179366  0  0.981739  0  0.140604  0  0.117966  0.171231  0  0.988975  0
H  H6  1  0.25411084  0.01063995  0.97149394  1  0  0.171987  0  0.920151  0  0  0.174616  0  0.985976  0  0  0.17937  0  0.981796  0  0.140732  0  0.117959  0.171238  0  0.989032  0
H  H7  1  0.75410933  0.48935493  0.52850279  1  0  0.171905  0  0.920218  0  0  0.174568  0  0.986012  0  0  0.179323  0  0.981831  0  0.140825  0  0.117962  0.17119  0  0.989066  0
H  H8  1  0.60848403  0.79862596  0.78386361  1  0  0.169925  0  0.907937  0  0  0.177078  0  0.965956  0  0  0.181715  0  0.962545  0  0.115962  0  0.121197  0.173782  0  0.9685  0
H  H9  1  0.10848151  0.70137260  0.71613366  1  0  0.169829  0  0.907976  0  0  0.17701  0  0.96598  0  0  0.181648  0  0.962568  0  0.115962  0  0.121191  0.173712  0  0.968529  0
H  H10  1  0.39152102  0.20137462  0.21613669  1  0  0.169885  0  0.907933  0  0  0.177051  0  0.965945  0  0  0.181689  0  0.962531  0  0.115943  0  0.121201  0.173756  0  0.96849  0
H  H11  1  0.89150604  0.29862567  0.28386242  1  0  0.169953  0  0.907872  0  0  0.177105  0  0.96589  0  0  0.18174  0  0.962476  0  0.115905  0  0.121205  0.173809  0  0.968434  0
H  H12  1  0.69595969  0.06423305  0.69731126  1  0  0.099391  0  0.975687  0  0  0.115809  0  1.04741  0  0  0.116447  0  1.048138  0  0.083083  0  0.085414  0.115199  0  1.047143  0
H  H13  1  0.19595851  0.43577188  0.80268899  1  0  0.099364  0  0.975707  0  0  0.115793  0  1.047445  0  0  0.11643  0  1.048173  0  0.083042  0  0.08541  0.115181  0  1.047178  0
H  H14  1  0.30404940  0.93577063  0.30269032  1  0  0.099329  0  0.975733  0  0  0.115741  0  1.047485  0  0  0.11638  0  1.048211  0  0.083049  0  0.085391  0.115128  0  1.047219  0
H  H15  1  0.80405193  0.56423411  0.19731004  1  0  0.099387  0  0.975671  0  0  0.115795  0  1.047426  0  0  0.116437  0  1.04815  0  0.083151  0  0.085424  0.115184  0  1.047162  0
H  H16  1  0.55338661  0.17462715  0.72193154  1  0  0.105168  0  0.932671  0  0  0.126912  0  0.992637  0  0  0.127722  0  0.992071  0  0.079044  0  0.105732  0.126206  0  0.993167  0
H  H17  1  0.05338005  0.32537933  0.77806961  1  0  0.105102  0  0.932738  0  0  0.126862  0  0.992688  0  0  0.12767  0  0.992124  0  0.079182  0  0.105722  0.126171  0  0.993196  0
H  H18  1  0.44662652  0.82537807  0.27806730  1  0  0.105079  0  0.932738  0  0  0.12683  0  0.992695  0  0  0.127639  0  0.99213  0  0.079163  0  0.105727  0.126133  0  0.993211  0
H  H19  1  0.94662635  0.67462899  0.22193259  1  0  0.105177  0  0.932547  0  0  0.126924  0  0.992521  0  0  0.127734  0  0.991955  0  0.079036  0  0.105773  0.126228  0  0.993039  0
H  H20  1  0.49184668  0.06561327  0.74732594  1  0  0.106036  0  0.953259  0  0  0.118528  0  1.025392  0  0  0.120013  0  1.02417  0  0.089709  0  0.095925  0.11738  0  1.026345  0
H  H21  1  0.99184382  0.43439243  0.75267293  1  0  0.106048  0  0.953182  0  0  0.118565  0  1.025307  0  0  0.120051  0  1.024081  0  0.090104  0  0.095973  0.117415  0  1.026261  0
H  H22  1  0.50816241  0.93439195  0.25267342  1  0  0.106031  0  0.953165  0  0  0.118517  0  1.025323  0  0  0.120004  0  1.024098  0  0.089983  0  0.095947  0.117367  0  1.026276  0
H  H23  1  0.00816258  0.56561434  0.24732680  1  0  0.106026  0  0.953179  0  0  0.118549  0  1.025286  0  0  0.120035  0  1.024065  0  0.089592  0  0.095953  0.117399  0  1.026244  0
H  H24  1  0.68379529  0.02225286  0.83577168  1  0  0.103617  0  0.928406  0  0  0.124588  0  0.989758  0  0  0.125363  0  0.988996  0  0.090192  0  0.105159  0.123903  0  0.990415  0
H  H25  1  0.18380085  0.47774589  0.66422444  1  0  0.10351  0  0.928433  0  0  0.124475  0  0.989824  0  0  0.125238  0  0.989074  0  0.090248  0  0.105111  0.12379  0  0.990479  0
H  H26  1  0.31620303  0.97775159  0.16422800  1  0  0.103577  0  0.92839  0  0  0.124555  0  0.989745  0  0  0.125341  0  0.988972  0  0.090472  0  0.105134  0.12387  0  0.9904  0
H  H27  1  0.81620825  0.52225238  0.33576956  1  0  0.103652  0  0.928281  0  0  0.124588  0  0.989674  0  0  0.12537  0  0.988904  0  0.090167  0  0.105179  0.123905  0  0.990333  0
H  H28  1  0.79015399  0.12936023  0.90480456  1  0  0.114518  0  0.93842  0  0  0.131904  0  1.004764  0  0  0.133128  0  1.004248  0  0.052862  0  0.107566  0.130922  0  1.005218  0
H  H29  1  0.29015416  0.37063388  0.59519354  1  0  0.114394  0  0.938498  0  0  0.131787  0  1.004857  0  0  0.133015  0  1.004339  0  0.052823  0  0.107519  0.130806  0  1.00531  0
H  H30  1  0.20984433  0.87064500  0.09519792  1  0  0.114555  0  0.938423  0  0  0.131937  0  1.004766  0  0  0.133161  0  1.004259  0  0.05266  0  0.107593  0.130953  0  1.005222  0
H  H31  1  0.70984820  0.62935975  0.40480296  1  0  0.114505  0  0.938409  0  0  0.131899  0  1.004739  0  0  0.13312  0  1.004231  0  0.052954  0  0.107572  0.130917  0  1.005193  0
H  H32  1  0.90836729  0.05913100  0.82193230  1  0  0.098828  0  0.946874  0  0  0.117142  0  1.014584  0  0  0.117133  0  1.015091  0  0.073266  0  0.096706  0.117014  0  1.014361  0
H  H33  1  0.40837150  0.44086465  0.67806462  1  0  0.098779  0  0.946846  0  0  0.117094  0  1.014563  0  0  0.117086  0  1.015069  0  0.073289  0  0.096694  0.116967  0  1.014339  0
H  H34  1  0.09163507  0.94087267  0.17806980  1  0  0.09884  0  0.946872  0  0  0.117142  0  1.014609  0  0  0.117134  0  1.015117  0  0.073255  0  0.096708  0.117013  0  1.014385  0
H  H35  1  0.59163356  0.55913052  0.32192913  1  0  0.098813  0  0.946737  0  0  0.117119  0  1.014473  0  0  0.117111  0  1.01498  0  0.073302  0  0.096697  0.116992  0  1.01425  0
H  H36  1  0.65189657  0.30581196  0.81283065  1  0  0.042111  0  0.949787  0  0  0.045474  0  1.027753  0  0  0.048207  0  1.021535  0  0.113851  0  0.111305  0.043267  0  1.032398  0
H  H37  1  0.15188596  0.19419142  0.68717131  1  0  0.04229  0  0.949909  0  0  0.045649  0  1.027841  0  0  0.048383  0  1.02162  0  0.113621  0  0.111369  0.043442  0  1.032485  0
H  H38  1  0.34812060  0.69419481  0.18717013  1  0  0.042041  0  0.94986  0  0  0.045428  0  1.027793  0  0  0.048164  0  1.021572  0  0.11359  0  0.111302  0.043222  0  1.032435  0
H  H39  1  0.84810697  0.80581225  0.31283288  1  0  0.04231  0  0.949954  0  0  0.045662  0  1.027898  0  0  0.048395  0  1.021678  0  0.113831  0  0.111386  0.043452  0  1.032546  0
C  C40  1  0.45241306  0.68562056  0.90536033  1  0  0.143989  0  3.790264  0  0  0.112939  0  4.091881  0  0  0.11836  0  4.104089  0  0.481665  0  0.072795  0.108928  0  4.084129  0
C  C41  1  0.95241020  0.81437723  0.59463572  1  0  0.1437  0  3.79049  0  0  0.112587  0  4.092056  0  0  0.11801  0  4.104261  0  0.506628  0  0.072644  0.108576  0  4.084303  0
C  C42  1  0.54758525  0.31437771  0.09463836  1  0  0.143996  0  3.790003  0  0  0.112858  0  4.091656  0  0  0.118282  0  4.103862  0  0.506927  0  0.072759  0.108844  0  4.083903  0
C  C43  1  0.04757869  0.18562259  0.40536074  1  0  0.144134  0  3.790058  0  0  0.11302  0  4.09173  0  0  0.118447  0  4.103932  0  0.506353  0  0.072855  0.109003  0  4.083976  0
C  C44  1  0.94414391  0.76241320  0.92322322  1  0  0.15475  0  3.77754  0  0  0.122774  0  4.08231  0  0  0.128954  0  4.093102  0  0.471171  0  0.076047  0.118309  0  4.075412  0
C  C45  1  0.44416024  0.73758382  0.57678358  1  0  0.1548  0  3.777494  0  0  0.122782  0  4.082334  0  0  0.128963  0  4.093123  0  0.47151  0  0.076021  0.11832  0  4.075437  0
C  C46  1  0.05585037  0.23758893  0.07677381  1  0  0.15462  0  3.777512  0  0  0.122683  0  4.082292  0  0  0.128874  0  4.093092  0  0.471486  0  0.075982  0.118217  0  4.075395  0
C  C47  1  0.55583808  0.26240981  0.42322336  1  0  0.15458  0  3.77753  0  0  0.122593  0  4.082323  0  0  0.128788  0  4.093123  0  0.471106  0  0.075925  0.118131  0  4.075428  0
C  C48  1  0.81190202  0.74552127  0.03163614  1  0  0.15434  0  3.775996  0  0  0.121761  0  4.077843  0  0  0.128585  0  4.087263  0  0.55854  0  0.075412  0.116846  0  4.071835  0
C  C49  1  0.31190892  0.75448192  0.46837427  1  0  0.154362  0  3.775575  0  0  0.121718  0  4.077456  0  0  0.128545  0  4.086871  0  0.558782  0  0.075331  0.116806  0  4.071447  0
C  C50  1  0.18810843  0.25447313  0.96836108  1  0  0.154403  0  3.7759  0  0  0.121864  0  4.077682  0  0  0.128701  0  4.087111  0  0.557989  0  0.075402  0.116948  0  4.071671  0
C  C51  1  0.68809075  0.24552021  0.53163371  1  0  0.154247  0  3.775956  0  0  0.121709  0  4.077699  0  0  0.128548  0  4.087129  0  0.558599  0  0.075376  0.116798  0  4.071692  0
C  C52  1  0.60486340  0.56215605  0.80444337  1  0  0.148281  0  3.779316  0  0  0.11984  0  4.077303  0  0  0.126135  0  4.087565  0  0.5774  0  0.07477  0.115196  0  4.070985  0
C  C53  1  0.10485953  0.93784406  0.69555481  1  0  0.148146  0  3.77918  0  0  0.119673  0  4.077102  0  0  0.125953  0  4.087384  0  0.577455  0  0.07468  0.115028  0  4.070785  0
C  C54  1  0.39513896  0.43784531  0.19555712  1  0  0.14825  0  3.779115  0  0  0.119805  0  4.077031  0  0  0.126104  0  4.087289  0  0.577336  0  0.074763  0.115157  0  4.070715  0
C  C55  1  0.89513071  0.06215575  0.30444269  1  0  0.148288  0  3.779354  0  0  0.11981  0  4.077313  0  0  0.126112  0  4.087568  0  0.577831  0  0.074766  0.115159  0  4.070992  0
C  C56  1  0.48701783  0.76131273  0.87423182  1  0  0.224559  0  3.835373  0  0  0.19395  0  4.14548  0  0  0.202923  0  4.156578  0  0.483304  0  0.082785  0.187583  0  4.138323  0
C  C57  1  0.98701362  0.73868429  0.62576351  1  0  0.224482  0  3.83496  0  0  0.193863  0  4.145115  0  0  0.202836  0  4.156213  0  0.458006  0  0.08277  0.187497  0  4.137958  0
C  C58  1  0.51298723  0.23868709  0.12576725  1  0  0.224522  0  3.835199  0  0  0.193924  0  4.145335  0  0  0.202898  0  4.156426  0  0.458093  0  0.082802  0.187558  0  4.138181  0
C  C59  1  0.01297258  0.26131243  0.37423167  1  0  0.224707  0  3.835023  0  0  0.194119  0  4.145154  0  0  0.203089  0  4.156242  0  0.458448  0  0.082854  0.187753  0  4.138001  0
C  C60  1  0.64155057  0.63851746  0.77417633  1  0  0.226715  0  3.829064  0  0  0.199579  0  4.133986  0  0  0.209558  0  4.142057  0  0.471878  0  0.083661  0.192511  0  4.128931  0
C  C61  1  0.14154400  0.86147646  0.72582033  1  0  0.22671  0  3.829271  0  0  0.199559  0  4.134201  0  0  0.209544  0  4.142277  0  0.471932  0  0.083697  0.192493  0  4.129145  0
C  C62  1  0.35845044  0.36147926  0.22582146  1  0  0.226752  0  3.829136  0  0  0.199638  0  4.134002  0  0  0.209616  0  4.142068  0  0.47198  0  0.083712  0.192571  0  4.128949  0
C  C63  1  0.85844085  0.13852026  0.27417694  1  0  0.226738  0  3.829373  0  0  0.19969  0  4.134171  0  0  0.209665  0  4.142233  0  0.471962  0  0.083701  0.192623  0  4.129117  0
C  C64  1  0.88717556  0.86479102  0.94572802  1  0  0.215046  0  3.828149  0  0  0.185035  0  4.137051  0  0  0.193579  0  4.14763  0  0.520939  0  0.079529  0.178942  0  4.13021  0
C  C65  1  0.38719862  0.63520754  0.55427708  1  0  0.214994  0  3.828116  0  0  0.184983  0  4.137051  0  0  0.193523  0  4.147631  0  0.521211  0  0.079465  0.178891  0  4.130209  0
C  C66  1  0.11281064  0.13520957  0.05427124  1  0  0.215097  0  3.827951  0  0  0.184958  0  4.137007  0  0  0.193504  0  4.147579  0  0.520703  0  0.079508  0.178864  0  4.130168  0
C  C67  1  0.61280239  0.36478918  0.44572696  1  0  0.215085  0  3.828081  0  0  0.184977  0  4.137103  0  0  0.193522  0  4.147673  0  0.520585  0  0.079503  0.178883  0  4.130262  0
C  C68  1  0.79162352  0.90955407  0.01116539  1  0  -0.264433  0  3.765907  0  0  -0.313724  0  4.058294  0  0  -0.316709  0  4.071212  0  0.113103  0  -0.113635  -0.311615  0  4.049745  0
C  C69  1  0.29163312  0.59044758  0.48884411  1  0  -0.26422  0  3.765748  0  0  -0.313509  0  4.058088  0  0  -0.316492  0  4.071008  0  0.112589  0  -0.113521  -0.3114  0  4.049537  0
C  C70  1  0.20837075  0.09044497  0.98883557  1  0  -0.264338  0  3.765741  0  0  -0.313555  0  4.05815  0  0  -0.316537  0  4.071067  0  0.113069  0  -0.11357  -0.311445  0  4.049599  0
C  C71  1  0.70836251  0.40955223  0.51116174  1  0  -0.264228  0  3.765722  0  0  -0.313498  0  4.058077  0  0  -0.316478  0  4.070994  0  0.113083  0  -0.113574  -0.311385  0  4.049521  0
C  C72  1  0.58167009  0.73940454  0.80815381  1  0  -0.269133  0  3.762631  0  0  -0.316619  0  4.050838  0  0  -0.32076  0  4.065039  0  0.10814  0  -0.113848  -0.313815  0  4.041417  0
C  C73  1  0.08166622  0.76059557  0.69184698  1  0  -0.268886  0  3.762561  0  0  -0.316394  0  4.050733  0  0  -0.320538  0  4.06494  0  0.108024  0  -0.113832  -0.313583  0  4.041295  0
C  C74  1  0.41833631  0.26059682  0.19184773  1  0  -0.269057  0  3.762741  0  0  -0.316541  0  4.050879  0  0  -0.320693  0  4.065107  0  0.108107  0  -0.113871  -0.313731  0  4.041445  0
C  C75  1  0.91832671  0.23940193  0.30815152  1  0  -0.269359  0  3.762953  0  0  -0.316831  0  4.051063  0  0  -0.320999  0  4.065339  0  0.108094  0  -0.113936  -0.314022  0  4.04163  0
C  C76  1  0.60486340  0.11274574  0.74032465  1  0  -0.178732  0  3.657914  0  0  -0.28078  0  3.909257  0  0  -0.277934  0  3.920298  0  0.239007  0  -0.139724  -0.282303  0  3.901631  0
C  C77  1  0.10486088  0.38725996  0.75967527  1  0  -0.178613  0  3.657851  0  0  -0.280719  0  3.909182  0  0  -0.277876  0  3.920228  0  0.238507  0  -0.139749  -0.282266  0  3.901578  0
C  C78  1  0.39514434  0.88726026  0.25967542  1  0  -0.178499  0  3.657876  0  0  -0.280546  0  3.909206  0  0  -0.277716  0  3.920268  0  0.238555  0  -0.139705  -0.282076  0  3.901588  0
C  C79  1  0.89514687  0.61274758  0.24032466  1  0  -0.178657  0  3.657601  0  0  -0.28074  0  3.908956  0  0  -0.277893  0  3.919981  0  0.239015  0  -0.139787  -0.282267  0  3.901313  0
C  C80  1  0.77558661  0.08785144  0.84518771  1  0  -0.167508  0  3.644935  0  0  -0.272788  0  3.897165  0  0  -0.268731  0  3.907246  0  0.271346  0  -0.136873  -0.275243  0  3.890351  0
C  C81  1  0.27558813  0.41214730  0.65481101  1  0  -0.167103  0  3.644851  0  0  -0.272393  0  3.89709  0  0  -0.268328  0  3.907181  0  0.270642  0  -0.136721  -0.274844  0  3.89027  0
C  C82  1  0.22441305  0.91215146  0.15481368  1  0  -0.167542  0  3.644995  0  0  -0.272838  0  3.897283  0  0  -0.268797  0  3.90736  0  0.271242  0  -0.136943  -0.275285  0  3.890467  0
C  C83  1  0.72441828  0.58785096  0.34518507  1  0  -0.167417  0  3.644755  0  0  -0.272666  0  3.896999  0  0  -0.268617  0  3.907069  0  0.271349  0  -0.136857  -0.275125  0  3.89019  0
C  C84  1  0.75488652  0.84784654  0.05351704  1  0  0.228699  0  3.815104  0  0  0.20128  0  4.120238  0  0  0.211209  0  4.128038  0  0.464279  0  0.085273  0.194213  0  4.115354  0
C  C85  1  0.25489747  0.65215202  0.44649066  1  0  0.228303  0  3.815177  0  0  0.200948  0  4.120265  0  0  0.210875  0  4.128065  0  0.464631  0  0.085053  0.193884  0  4.115378  0
C  C86  1  0.24510910  0.15214786  0.94648435  1  0  0.228627  0  3.815066  0  0  0.201167  0  4.120225  0  0  0.211095  0  4.128024  0  0.465076  0  0.085168  0.194101  0  4.115342  0
C  C87  1  0.74510490  0.34784702  0.55351343  1  0  0.228578  0  3.814995  0  0  0.201151  0  4.120097  0  0  0.211078  0  4.127895  0  0.464659  0  0.085187  0.194085  0  4.115212  0
C  C88  1  0.72072356  0.25931937  0.84159348  1  0  0.385171  0  3.804223  0  0  0.310595  0  4.086695  0  0  0.339138  0  4.087157  0  1.354477  0  0.16872  0.291501  0  4.085901  0
C  C89  1  0.22070757  0.24068478  0.65841283  1  0  0.385051  0  3.804087  0  0  0.31045  0  4.086581  0  0  0.338998  0  4.087035  0  1.35449  0  0.168729  0.291356  0  4.085783  0
C  C90  1  0.27928957  0.74068430  0.15840654  1  0  0.385193  0  3.804438  0  0  0.310577  0  4.086926  0  0  0.339114  0  4.087389  0  1.35467  0  0.16868  0.291493  0  4.086128  0
C  C91  1  0.77928941  0.75931349  0.34158481  1  0  0.385166  0  3.803984  0  0  0.310565  0  4.086488  0  0  0.339111  0  4.086938  0  1.354299  0  0.168768  0.291469  0  4.085694  0
C  C92  1  0.90650309  0.69883317  0.96518872  1  0  -0.051212  0  3.85423  0  0  -0.055417  0  4.133828  0  0  -0.052867  0  4.155679  0  0.015788  0  -0.031078  -0.057409  0  4.119242  0
C  C93  1  0.40651000  0.80116694  0.53481937  1  0  -0.051191  0  3.85408  0  0  -0.055405  0  4.133758  0  0  -0.052855  0  4.155604  0  0.015538  0  -0.031146  -0.057408  0  4.11919  0
C  C94  1  0.09350061  0.30116742  0.03480846  1  0  -0.051233  0  3.854324  0  0  -0.055418  0  4.133892  0  0  -0.052906  0  4.155798  0  0.015793  0  -0.031069  -0.057407  0  4.119303  0
C  C95  1  0.59348698  0.19882978  0.46518885  1  0  -0.05103  0  3.854173  0  0  -0.05522  0  4.13374  0  0  -0.052716  0  4.155657  0  0.015826  0  -0.031081  -0.057225  0  4.119175  0
C  C96  1  0.50832270  0.58292357  0.87096725  1  0  -0.054694  0  3.876605  0  0  -0.058042  0  4.153943  0  0  -0.055011  0  4.174992  0  0.014805  0  -0.034816  -0.060469  0  4.140385  0
C  C97  1  0.00832018  0.91706958  0.62902713  1  0  -0.054679  0  3.876715  0  0  -0.057819  0  4.153706  0  0  -0.054783  0  4.174761  0  0.014791  0  -0.034802  -0.06025  0  4.14015  0
C  C98  1  0.49168370  0.41707469  0.12903144  1  0  -0.054749  0  3.87649  0  0  -0.057996  0  4.153714  0  0  -0.05497  0  4.174772  0  0.014797  0  -0.034798  -0.060416  0  4.140144  0
C  C99  1  0.99167949  0.08292483  0.37096696  1  0  -0.054714  0  3.876605  0  0  -0.058047  0  4.153981  0  0  -0.055018  0  4.175029  0  0.014783  0  -0.034769  -0.06046  0  4.140401  0
S  S100  1  0.97196538  0.56909195  0.93134196  1  0  -0.358112  0  2.270713  0  0  -0.319214  0  2.653998  0  0  -0.340661  0  2.648357  0  -0.289436  0  -0.195109  -0.303829  0  2.657927  0
S  S101  1  0.47196824  0.93090893  0.56866318  1  0  -0.358115  0  2.270574  0  0  -0.319248  0  2.653922  0  0  -0.340695  0  2.648278  0  -0.289196  0  -0.195101  -0.303862  0  2.657853  0
S  S102  1  0.02804237  0.43090709  0.06865692  1  0  -0.358106  0  2.270849  0  0  -0.319247  0  2.654179  0  0  -0.340682  0  2.648557  0  -0.289356  0  -0.195073  -0.303868  0  2.65811  0
S  S103  1  0.52802739  0.06909166  0.43134129  1  0  -0.358121  0  2.270642  0  0  -0.319261  0  2.653941  0  0  -0.34069  0  2.648321  0  -0.289144  0  -0.195092  -0.303873  0  2.657874  0
S  S104  1  0.46429326  0.48246463  0.90453268  1  0  -0.38645  0  2.344542  0  0  -0.34883  0  2.730762  0  0  -0.370362  0  2.722811  0  -0.283553  0  -0.194245  -0.333449  0  2.736344  0
S  S105  1  0.96429040  0.01753335  0.59546586  1  0  -0.386455  0  2.344642  0  0  -0.348901  0  2.730741  0  0  -0.370447  0  2.722819  0  -0.283599  0  -0.194243  -0.333518  0  2.736319  0
S  S106  1  0.53570910  0.51753673  0.09546729  1  0  -0.386413  0  2.344586  0  0  -0.348823  0  2.730748  0  0  -0.370372  0  2.722836  0  -0.283605  0  -0.194232  -0.333446  0  2.736326  0
S  S107  1  0.03570388  0.98246492  0.40453231  1  0  -0.386485  0  2.344551  0  0  -0.348863  0  2.730751  0  0  -0.370408  0  2.722832  0  -0.283513  0  -0.194268  -0.333486  0  2.736321  0
N  N108  1  0.70072255  0.15761003  0.81017898  1  0  -0.072263  0  3.508069  0  0  0.032572  0  3.739769  0  0  0.012571  0  3.765081  0  -1.206141  0  -0.276178  0.045878  0  3.722258  0
N  N109  1  0.20072271  0.34238872  0.68981923  1  0  -0.072361  0  3.508266  0  0  0.032503  0  3.739931  0  0  0.012505  0  3.765235  0  -1.205472  0  -0.276185  0.045806  0  3.722421  0
N  N110  1  0.29928386  0.84239365  0.18982156  1  0  -0.072329  0  3.508142  0  0  0.032537  0  3.739837  0  0  0.01255  0  3.765149  0  -1.206102  0  -0.276112  0.045828  0  3.722327  0
N  N111  1  0.79928099  0.65761264  0.31017970  1  0  -0.072355  0  3.508407  0  0  0.032513  0  3.740048  0  0  0.012519  0  3.765356  0  -1.206221  0  -0.276165  0.045816  0  3.722545  0
O  O112  1  0.80989370  0.30060250  0.90019566  1  0  -0.52091  0  2.131632  0  0  -0.45502  0  2.39487  0  0  -0.481648  0  2.38867  0  -1.148852  0  -0.321752  -0.436439  0  2.398273  0
O  O113  1  0.30989521  0.19939316  0.59980231  1  0  -0.52101  0  2.1311  0  0  -0.45513  0  2.394366  0  0  -0.481767  0  2.388161  0  -1.148571  0  -0.321839  -0.436561  0  2.397807  0
O  O114  1  0.19011675  0.69940041  0.09980521  1  0  -0.520872  0  2.131831  0  0  -0.454959  0  2.395059  0  0  -0.481587  0  2.388864  0  -1.148652  0  -0.321731  -0.436371  0  2.398431  0
O  O115  1  0.69009503  0.80060588  0.40019813  1  0  -0.521121  0  2.130969  0  0  -0.45525  0  2.394245  0  0  -0.481885  0  2.388037  0  -1.148571  0  -0.321878  -0.436674  0  2.39768  0
F  F116  1  0.03482566  0.72310768  0.85811988  1  0  -0.17015  0  1.24552  0  0  -0.117453  0  1.410696  0  0  -0.12607  0  1.402287  0  -0.631262  0  -0.094364  -0.111179  0  1.416485  0
F  F117  1  0.53485378  0.77689243  0.64188559  1  0  -0.170306  0  1.245689  0  0  -0.117544  0  1.410839  0  0  -0.12616  0  1.402429  0  -0.631394  0  -0.09442  -0.111271  0  1.416628  0
F  F118  1  0.96516188  0.27689214  0.14187658  1  0  -0.170066  0  1.245495  0  0  -0.117413  0  1.410694  0  0  -0.126026  0  1.402283  0  -0.63123  0  -0.094348  -0.11114  0  1.416484  0
F  F119  1  0.46514588  0.22310584  0.35812039  1  0  -0.170195  0  1.245605  0  0  -0.117465  0  1.410762  0  0  -0.126079  0  1.402348  0  -0.631402  0  -0.09437  -0.111192  0  1.41655  0
F  F120  1  0.36453736  0.71385336  0.97142297  1  0  -0.168803  0  1.290053  0  0  -0.110297  0  1.46135  0  0  -0.11953  0  1.452973  0  -0.636197  0  -0.088683  -0.10362  0  1.467131  0
F  F121  1  0.86453585  0.78614133  0.52857231  1  0  -0.168619  0  1.290037  0  0  -0.110087  0  1.461319  0  0  -0.119319  0  1.452943  0  -0.635957  0  -0.088567  -0.103408  0  1.4671  0
F  F122  1  0.63546635  0.28614490  0.02857468  1  0  -0.168773  0  1.289829  0  0  -0.11021  0  1.461109  0  0  -0.119443  0  1.452731  0  -0.636263  0  -0.088643  -0.103532  0  1.46689  0
F  F123  1  0.13545574  0.21385693  0.47142429  1  0  -0.168863  0  1.289907  0  0  -0.110295  0  1.46118  0  0  -0.119528  0  1.452801  0  -0.636149  0  -0.088701  -0.103617  0  1.466964  0
F  F124  1  0.66415661  0.46441504  0.76805904  1  0  -0.16407  0  1.256675  0  0  -0.117604  0  1.432858  0  0  -0.126266  0  1.423301  0  -0.633438  0  -0.085686  -0.111361  0  1.43954  0
F  F125  1  0.16415408  0.03558370  0.73193708  1  0  -0.163985  0  1.256721  0  0  -0.117529  0  1.432905  0  0  -0.126186  0  1.423355  0  -0.633349  0  -0.085635  -0.111289  0  1.439587  0
F  F126  1  0.33584441  0.53558554  0.23194022  1  0  -0.164064  0  1.256693  0  0  -0.117614  0  1.432878  0  0  -0.126276  0  1.423319  0  -0.633427  0  -0.085691  -0.111374  0  1.439563  0
F  F127  1  0.83584020  0.96441379  0.26805881  1  0  -0.164091  0  1.2567  0  0  -0.117621  0  1.432891  0  0  -0.126281  0  1.42333  0  -0.633454  0  -0.085716  -0.11138  0  1.439574  0
F  F128  1  0.73818825  0.61319349  0.71048580  1  0  -0.168607  0  1.234108  0  0  -0.128209  0  1.405916  0  0  -0.135812  0  1.394707  0  -0.622527  0  -0.093836  -0.122703  0  1.413603  0
F  F129  1  0.23817226  0.88680585  0.78951271  1  0  -0.168625  0  1.234075  0  0  -0.128229  0  1.405882  0  0  -0.135831  0  1.394672  0  -0.622501  0  -0.093845  -0.122725  0  1.41357  0
F  F130  1  0.26181950  0.38680710  0.28951398  1  0  -0.168655  0  1.234  0  0  -0.128274  0  1.405791  0  0  -0.135872  0  1.394583  0  -0.622469  0  -0.093882  -0.122769  0  1.41348  0
F  F131  1  0.76181259  0.11319087  0.21048456  1  0  -0.168578  0  1.234164  0  0  -0.128212  0  1.40594  0  0  -0.135811  0  1.394732  0  -0.62259  0  -0.09383  -0.122709  0  1.413628  0
F  F132  1  0.42888570  0.85924306  0.91070178  1  0  -0.181038  0  1.225179  0  0  -0.127296  0  1.384885  0  0  -0.135674  0  1.374687  0  -0.628447  0  -0.09348  -0.121243  0  1.391903  0
F  F133  1  0.92888284  0.64075395  0.58929564  1  0  -0.180968  0  1.225084  0  0  -0.127243  0  1.384813  0  0  -0.135622  0  1.374615  0  -0.628434  0  -0.093465  -0.121192  0  1.391828  0
F  F134  1  0.57111666  0.14075752  0.08929696  1  0  -0.18105  0  1.225216  0  0  -0.127333  0  1.384942  0  0  -0.135711  0  1.374743  0  -0.628457  0  -0.093513  -0.121281  0  1.391959  0
F  F135  1  0.07110470  0.35924509  0.41070167  1  0  -0.181143  0  1.224946  0  0  -0.127427  0  1.384671  0  0  -0.135803  0  1.374475  0  -0.62874  0  -0.093578  -0.121375  0  1.39169  0
F  F136  1  0.92282691  0.92109433  0.90123345  1  0  -0.183287  0  1.235439  0  0  -0.12338  0  1.394653  0  0  -0.132773  0  1.386442  0  -0.639294  0  -0.089658  -0.116557  0  1.400223  0
F  F137  1  0.42285536  0.57890577  0.59877202  1  0  -0.183241  0  1.235549  0  0  -0.123345  0  1.39477  0  0  -0.132738  0  1.38656  0  -0.639527  0  -0.089578  -0.116524  0  1.400339  0
F  F138  1  0.07715525  0.07890471  0.09876386  1  0  -0.183333  0  1.235504  0  0  -0.123358  0  1.394739  0  0  -0.132751  0  1.386525  0  -0.639442  0  -0.089626  -0.116537  0  1.400309  0
F  F139  1  0.57714296  0.42109327  0.40123519  1  0  -0.183278  0  1.235598  0  0  -0.123328  0  1.394828  0  0  -0.13272  0  1.386615  0  -0.6395  0  -0.089569  -0.116507  0  1.400398  0
F  F140  1  0.66012246  0.88731744  0.11761474  1  0  -0.167739  0  1.220932  0  0  -0.124449  0  1.389405  0  0  -0.132286  0  1.378612  0  -0.622649  0  -0.091189  -0.118773  0  1.396852  0
F  F141  1  0.16013071  0.61268112  0.38239504  1  0  -0.167588  0  1.221054  0  0  -0.124307  0  1.389501  0  0  -0.132146  0  1.378709  0  -0.622614  0  -0.091028  -0.118633  0  1.396946  0
F  F142  1  0.33987990  0.11267928  0.88238565  1  0  -0.167798  0  1.220838  0  0  -0.124495  0  1.389316  0  0  -0.132334  0  1.378525  0  -0.622908  0  -0.091168  -0.11882  0  1.396763  0
F  F143  1  0.83987569  0.38731406  0.61761071  1  0  -0.167683  0  1.220938  0  0  -0.124394  0  1.389402  0  0  -0.132232  0  1.37861  0  -0.622793  0  -0.091117  -0.118717  0  1.396847  0
F  F144  1  0.77064865  0.69005258  0.07600739  1  0  -0.172208  0  1.273351  0  0  -0.110883  0  1.441594  0  0  -0.119648  0  1.431519  0  -0.637209  0  -0.092347  -0.104495  0  1.448499  0
F  F145  1  0.27064478  0.80994752  0.42400225  1  0  -0.172159  0  1.273182  0  0  -0.110783  0  1.441411  0  0  -0.119547  0  1.431333  0  -0.637425  0  -0.092236  -0.104393  0  1.448312  0
F  F146  1  0.22936044  0.30994646  0.92399201  1  0  -0.172178  0  1.27325  0  0  -0.11088  0  1.4415  0  0  -0.119645  0  1.431421  0  -0.637217  0  -0.092318  -0.10449  0  1.448403  0
F  F147  1  0.72934546  0.19004997  0.57600615  1  0  -0.172185  0  1.273289  0  0  -0.110883  0  1.441521  0  0  -0.119647  0  1.43144  0  -0.637164  0  -0.092323  -0.104492  0  1.448423  0
