# generated using pymatgen
data_ZnH12C14N2O5
_symmetry_space_group_name_H-M   'P 1'
_cell_length_a   5.34134240
_cell_length_b   14.71791191
_cell_length_c   16.44900000
_cell_angle_alpha   90.00000000
_cell_angle_beta   93.45022006
_cell_angle_gamma   90.00000000
_symmetry_Int_Tables_number   1
_chemical_formula_structural   ZnH12C14N2O5
_chemical_formula_sum   'Zn4 H48 C56 N8 O20'
_cell_volume   1290.76811699
_cell_formula_units_Z   4
loop_
 _symmetry_equiv_pos_site_id
 _symmetry_equiv_pos_as_xyz
  1  'x, y, z'
loop_
 _atom_site_type_symbol
 _atom_site_label
 _atom_site_symmetry_multiplicity
 _atom_site_fract_x
 _atom_site_fract_y
 _atom_site_fract_z
 _atom_site_occupancy
 _atom_site_hle17_bader_spin_density
 _atom_site_hle17_ddec_charge
 _atom_site_hle17_ddec_spin_density
 _atom_site_hle17_ddec_sum_bond_order
 _atom_site_hle17_magmom
 _atom_site_hse06_10hf_bader_spin_density
 _atom_site_hse06_10hf_ddec_charge
 _atom_site_hse06_10hf_ddec_spin_density
 _atom_site_hse06_10hf_ddec_sum_bond_order
 _atom_site_hse06_10hf_magmom
 _atom_site_hse06_bader_spin_density
 _atom_site_hse06_ddec_charge
 _atom_site_hse06_ddec_spin_density
 _atom_site_hse06_ddec_sum_bond_order
 _atom_site_hse06_magmom
 _atom_site_pbe_bader_charge
 _atom_site_pbe_bader_spin_density
 _atom_site_pbe_cm5_charge
 _atom_site_pbe_ddec_charge
 _atom_site_pbe_ddec_spin_density
 _atom_site_pbe_ddec_sum_bond_order
 _atom_site_pbe_magmom
Zn  Zn0  1  0.69387382  0.43728757  0.77111344  1  0  1.06434  0  1.74431  0  0  0.8799  0  2.192551  0  0  0.930546  0  2.136435  0  1.279076  0  0.684738  0.84445  0  2.231077  0
Zn  Zn1  1  0.30610911  0.93728853  0.72888495  1  0  1.06434  0  1.744377  0  0  0.879877  0  2.192651  0  0  0.930521  0  2.136532  0  1.279006  0  0.68476  0.844426  0  2.23118  0
Zn  Zn2  1  0.30611474  0.56271298  0.22888688  1  0  1.064303  0  1.744263  0  0  0.87992  0  2.192559  0  0  0.930568  0  2.136431  0  1.279028  0  0.684782  0.844469  0  2.23109  0
Zn  Zn3  1  0.69389445  0.06271270  0.27111385  1  0  1.064417  0  1.744241  0  0  0.879969  0  2.192509  0  0  0.930611  0  2.136385  0  1.278907  0  0.6848  0.84452  0  2.23104  0
H  H4  1  0.78911994  0.71174363  0.78642239  1  0  0.101652  0  0.977703  0  0  0.110482  0  1.043304  0  0  0.114091  0  1.04099  0  0.079985  0  0.103386  0.10791  0  1.044985  0
H  H5  1  0.21088738  0.21174539  0.71357891  1  0  0.101608  0  0.977673  0  0  0.110445  0  1.043287  0  0  0.114055  0  1.040977  0  0.080218  0  0.103359  0.107874  0  1.044966  0
H  H6  1  0.21089675  0.28825421  0.21357849  1  0  0.101606  0  0.977663  0  0  0.110451  0  1.04326  0  0  0.114059  0  1.04095  0  0.080217  0  0.103353  0.107874  0  1.044937  0
H  H7  1  0.78910493  0.78824972  0.28642148  1  0  0.101646  0  0.977659  0  0  0.110466  0  1.043282  0  0  0.114079  0  1.040964  0  0.080181  0  0.103347  0.107889  0  1.04496  0
H  H8  1  0.26769331  0.72324254  0.00461607  1  0  0.106044  0  0.975257  0  0  0.11231  0  1.047518  0  0  0.116119  0  1.04455  0  0.12723  0  0.104619  0.109588  0  1.049681  0
H  H9  1  0.73230275  0.22323887  0.49538440  1  0  0.10605  0  0.975187  0  0  0.112306  0  1.047474  0  0  0.116114  0  1.044506  0  0.127258  0  0.1046  0.109587  0  1.049636  0
H  H10  1  0.73231963  0.27675801  0.99538169  1  0  0.10602  0  0.975182  0  0  0.112265  0  1.047475  0  0  0.116072  0  1.044509  0  0.127185  0  0.104615  0.109548  0  1.049645  0
H  H11  1  0.26769519  0.77675828  0.50461611  1  0  0.106045  0  0.975194  0  0  0.112283  0  1.047479  0  0  0.116092  0  1.044512  0  0.12726  0  0.1046  0.109562  0  1.049646  0
H  H12  1  0.01597814  0.59623743  0.51546575  1  0  0.108443  0  0.95232  0  0  0.118369  0  1.011275  0  0  0.120931  0  1.012006  0  0.085971  0  0.109019  0.116554  0  1.010874  0
H  H13  1  0.98401605  0.09623784  0.98453407  1  0  0.108497  0  0.952315  0  0  0.118465  0  1.011216  0  0  0.121021  0  1.011954  0  0.085928  0  0.109063  0.11665  0  1.010814  0
H  H14  1  0.98400667  0.40375904  0.48453207  1  0  0.108481  0  0.952298  0  0  0.118466  0  1.011187  0  0  0.121002  0  1.011947  0  0.0859  0  0.109039  0.116651  0  1.010786  0
H  H15  1  0.01598751  0.90376271  0.01546837  1  0  0.108411  0  0.952277  0  0  0.118366  0  1.011223  0  0  0.120922  0  1.011961  0  0.085958  0  0.108995  0.116551  0  1.010821  0
H  H16  1  0.64790128  0.53690361  0.98984420  1  0  0.107645  0  0.95886  0  0  0.117006  0  1.024288  0  0  0.120685  0  1.021419  0  0.076981  0  0.106659  0.114277  0  1.026512  0
H  H17  1  0.35209478  0.03690333  0.51015445  1  0  0.10766  0  0.95882  0  0  0.117047  0  1.02423  0  0  0.120722  0  1.021362  0  0.07698  0  0.106706  0.114317  0  1.026458  0
H  H18  1  0.35210978  0.46309558  0.01015413  1  0  0.107653  0  0.958755  0  0  0.117059  0  1.024157  0  0  0.120729  0  1.021285  0  0.076917  0  0.106704  0.114329  0  1.026386  0
H  H19  1  0.64789753  0.96309382  0.48984413  1  0  0.107691  0  0.95881  0  0  0.117072  0  1.024228  0  0  0.120746  0  1.02136  0  0.076991  0  0.106692  0.114346  0  1.026453  0
H  H20  1  0.40716392  0.72763243  0.63098562  1  0  0.125736  0  0.956147  0  0  0.134888  0  1.016076  0  0  0.138669  0  1.014757  0  0.121624  0  0.110298  0.1321  0  1.017304  0
H  H21  1  0.59283589  0.22762808  0.86901189  1  0  0.125631  0  0.956127  0  0  0.134803  0  1.016057  0  0  0.138588  0  1.014732  0  0.121684  0  0.110276  0.132013  0  1.017283  0
H  H22  1  0.59283026  0.27237016  0.36901360  1  0  0.125662  0  0.956128  0  0  0.134835  0  1.016038  0  0  0.138618  0  1.014717  0  0.1217  0  0.11029  0.132045  0  1.017268  0
H  H23  1  0.40716204  0.77237179  0.13098741  1  0  0.125654  0  0.956154  0  0  0.134836  0  1.016061  0  0  0.13862  0  1.01474  0  0.121688  0  0.110283  0.132046  0  1.01729  0
H  H24  1  0.22770015  0.57335171  0.74379622  1  0  0.099251  0  0.936886  0  0  0.113707  0  1.001843  0  0  0.114354  0  1.002088  0  0.097723  0  0.118112  0.11322  0  1.001709  0
H  H25  1  0.77230154  0.07335551  0.75620375  1  0  0.099227  0  0.936958  0  0  0.113698  0  1.001873  0  0  0.114348  0  1.002125  0  0.097713  0  0.118128  0.113211  0  1.001739  0
H  H26  1  0.77230154  0.42665088  0.25620497  1  0  0.099197  0  0.937031  0  0  0.113671  0  1.001947  0  0  0.114316  0  1.002188  0  0.097666  0  0.1181  0.113182  0  1.001815  0
H  H27  1  0.22769077  0.92664504  0.24379603  1  0  0.099215  0  0.937087  0  0  0.113721  0  1.001968  0  0  0.114371  0  1.002211  0  0.097725  0  0.118134  0.113233  0  1.001837  0
H  H28  1  0.34799099  0.68193573  0.77018246  1  0  0.07793  0  0.948983  0  0  0.092743  0  1.013033  0  0  0.092882  0  1.013353  0  0.046801  0  0.106274  0.092598  0  1.012821  0
H  H29  1  0.65199194  0.18193545  0.72981775  1  0  0.077966  0  0.948889  0  0  0.092737  0  1.012983  0  0  0.092878  0  1.013311  0  0.046725  0  0.106248  0.092593  0  1.01277  0
H  H30  1  0.65201257  0.31806754  0.22981876  1  0  0.077965  0  0.948954  0  0  0.092779  0  1.012997  0  0  0.092915  0  1.013315  0  0.046843  0  0.106289  0.092634  0  1.012783  0
H  H31  1  0.34799849  0.81806374  0.27017896  1  0  0.077983  0  0.948915  0  0  0.09277  0  1.012989  0  0  0.09291  0  1.013309  0  0.046898  0  0.106289  0.092625  0  1.012778  0
H  H32  1  0.03470588  0.48325469  0.62974261  1  0  0.081038  0  0.96279  0  0  0.088907  0  1.028391  0  0  0.091653  0  1.025496  0  0.108519  0  0.115629  0.086809  0  1.030594  0
H  H33  1  0.96527892  0.98325565  0.87025521  1  0  0.081001  0  0.962817  0  0  0.088886  0  1.028398  0  0  0.091629  0  1.0255  0  0.108459  0  0.115624  0.086789  0  1.030597  0
H  H34  1  0.96527705  0.51674518  0.37025396  1  0  0.080993  0  0.962814  0  0  0.088874  0  1.0284  0  0  0.091619  0  1.025499  0  0.10841  0  0.115608  0.086776  0  1.030602  0
H  H35  1  0.03472276  0.01674490  0.12974659  1  0  0.081037  0  0.962821  0  0  0.088923  0  1.028398  0  0  0.091665  0  1.025499  0  0.108415  0  0.115616  0.086825  0  1.0306  0
H  H36  1  0.68237647  0.71731983  0.51358619  1  0  0.101782  0  0.964796  0  0  0.110188  0  1.028084  0  0  0.112096  0  1.027162  0  0.133426  0  0.108745  0.108712  0  1.028853  0
H  H37  1  0.31762897  0.21731819  0.98641386  1  0  0.101753  0  0.964774  0  0  0.110147  0  1.028085  0  0  0.112053  0  1.027167  0  0.133366  0  0.108717  0.108672  0  1.028853  0
H  H38  1  0.31761772  0.28268140  0.48641120  1  0  0.101786  0  0.964796  0  0  0.110168  0  1.028119  0  0  0.112076  0  1.027199  0  0.133465  0  0.108735  0.108694  0  1.028888  0
H  H39  1  0.68237834  0.78268304  0.01358805  1  0  0.101788  0  0.9648  0  0  0.110182  0  1.028108  0  0  0.112089  0  1.027188  0  0.133501  0  0.108721  0.10871  0  1.028877  0
H  H40  1  0.38460247  0.53287654  0.86505624  1  0  0.297027  0  0.920796  0  0  0.282402  0  0.981013  0  0  0.289561  0  0.975799  0  0.498061  0  0.301323  0.277289  0  0.984769  0
H  H41  1  0.61539921  0.03287491  0.63494434  1  0  0.297022  0  0.920838  0  0  0.282388  0  0.981062  0  0  0.289548  0  0.975847  0  0.498046  0  0.301321  0.277274  0  0.984817  0
H  H42  1  0.61540484  0.46712333  0.13494384  1  0  0.297109  0  0.920727  0  0  0.282389  0  0.981061  0  0  0.289551  0  0.975843  0  0.498022  0  0.301326  0.277277  0  0.984817  0
H  H43  1  0.38459497  0.96712156  0.36505670  1  0  0.296989  0  0.920843  0  0  0.282341  0  0.981078  0  0  0.289502  0  0.975861  0  0.498047  0  0.301303  0.277228  0  0.984833  0
H  H44  1  0.20849225  0.37279541  0.72448232  1  0  0.43355  0  0.863143  0  0  0.402256  0  0.927527  0  0  0.413095  0  0.911717  0  0.634867  0  0.295273  0.394538  0  0.938774  0
H  H45  1  0.79150193  0.87279908  0.77551690  1  0  0.433541  0  0.863174  0  0  0.402255  0  0.927539  0  0  0.413089  0  0.911737  0  0.634776  0  0.295284  0.39453  0  0.938791  0
H  H46  1  0.79150568  0.62720174  0.27551880  1  0  0.433531  0  0.863182  0  0  0.402182  0  0.927613  0  0  0.413057  0  0.911772  0  0.634904  0  0.295272  0.394459  0  0.938862  0
H  H47  1  0.20849975  0.12720351  0.22448246  1  0  0.433534  0  0.863181  0  0  0.402245  0  0.927546  0  0  0.413085  0  0.911738  0  0.634868  0  0.295283  0.394522  0  0.938795  0
H  H48  1  0.43241496  0.37351222  0.66050759  1  0  0.411642  0  0.905436  0  0  0.379351  0  0.971573  0  0  0.391395  0  0.954368  0  0.656974  0  0.283529  0.370905  0  0.983602  0
H  H49  1  0.56758110  0.87352337  0.83949106  1  0  0.411664  0  0.905416  0  0  0.379404  0  0.971499  0  0  0.391448  0  0.954294  0  0.656818  0  0.283538  0.370957  0  0.98353  0
H  H50  1  0.56758297  0.62648357  0.33949292  1  0  0.411601  0  0.905481  0  0  0.379357  0  0.971548  0  0  0.391401  0  0.954341  0  0.656765  0  0.283527  0.370911  0  0.983577  0
H  H51  1  0.43242247  0.12648262  0.16050895  1  0  0.411544  0  0.905583  0  0  0.37927  0  0.971687  0  0  0.391314  0  0.954482  0  0.656807  0  0.283477  0.370824  0  0.983716  0
C  C52  1  0.03216634  0.59519109  0.09109854  1  0  0.635963  0  3.912876  0  0  0.587689  0  4.199864  0  0  0.621241  0  4.194242  0  1.549221  0  0.203102  0.564974  0  4.202889  0
C  C53  1  0.96783910  0.09518945  0.40890272  1  0  0.635929  0  3.912851  0  0  0.587632  0  4.199813  0  0  0.621183  0  4.194196  0  1.549136  0  0.203108  0.564917  0  4.202836  0
C  C54  1  0.96785598  0.40480946  0.90890062  1  0  0.635947  0  3.912757  0  0  0.587631  0  4.199736  0  0  0.621185  0  4.194121  0  1.548895  0  0.203055  0.564915  0  4.202758  0
C  C55  1  0.03214383  0.90481042  0.59109810  1  0  0.635999  0  3.912633  0  0  0.587666  0  4.199627  0  0  0.621218  0  4.194013  0  1.548896  0  0.203077  0.564948  0  4.202652  0
C  C56  1  0.18465915  0.80202342  0.85820102  1  0  0.636439  0  3.896624  0  0  0.583795  0  4.192361  0  0  0.617734  0  4.184895  0  1.54203  0  0.207695  0.560859  0  4.196676  0
C  C57  1  0.81534066  0.30201974  0.64180014  1  0  0.636166  0  3.896874  0  0  0.58354  0  4.19256  0  0  0.617477  0  4.185103  0  1.541921  0  0.20762  0.560605  0  4.196871  0
C  C58  1  0.81533878  0.19797781  0.14179767  1  0  0.636207  0  3.896806  0  0  0.583593  0  4.192496  0  0  0.617528  0  4.185035  0  1.54194  0  0.207615  0.56066  0  4.196807  0
C  C59  1  0.18466290  0.69797741  0.35820291  1  0  0.636378  0  3.896573  0  0  0.583774  0  4.192245  0  0  0.617709  0  4.184782  0  1.541924  0  0.207703  0.56084  0  4.196559  0
C  C60  1  0.96145085  0.62746673  0.00632971  1  0  -0.053985  0  3.782268  0  0  -0.028575  0  4.018274  0  0  -0.035879  0  4.04067  0  0.086439  0  -0.018447  -0.023934  0  4.003211  0
C  C61  1  0.03855271  0.12746713  0.49367151  1  0  -0.053942  0  3.782206  0  0  -0.028594  0  4.018295  0  0  -0.035901  0  4.040695  0  0.086513  0  -0.018468  -0.023956  0  4.003235  0
C  C62  1  0.03856959  0.37253179  0.99366880  1  0  -0.054029  0  3.782203  0  0  -0.028628  0  4.018278  0  0  -0.035933  0  4.04067  0  0.086501  0  -0.018432  -0.023987  0  4.003221  0
C  C63  1  0.96143397  0.87252934  0.50632999  1  0  -0.054145  0  3.782292  0  0  -0.02877  0  4.018369  0  0  -0.036075  0  4.040763  0  0.086448  0  -0.018521  -0.024128  0  4.003314  0
C  C64  1  0.83309497  0.68733052  0.84804046  1  0  -0.151312  0  3.667796  0  0  -0.185148  0  3.922398  0  0  -0.185871  0  3.940228  0  -0.039063  0  -0.091985  -0.184389  0  3.910365  0
C  C65  1  0.16691421  0.18733296  0.65195723  1  0  -0.151215  0  3.667734  0  0  -0.185112  0  3.922272  0  0  -0.185817  0  3.940058  0  -0.039314  0  -0.091937  -0.184351  0  3.910237  0
C  C66  1  0.16691421  0.31266460  0.15195601  1  0  -0.151204  0  3.667739  0  0  -0.185087  0  3.922261  0  0  -0.185805  0  3.940082  0  -0.039281  0  -0.091952  -0.184319  0  3.91022  0
C  C67  1  0.83308372  0.81266215  0.34804328  1  0  -0.151243  0  3.667754  0  0  -0.185056  0  3.922281  0  0  -0.185778  0  3.940107  0  -0.039332  0  -0.091926  -0.184289  0  3.910241  0
C  C68  1  0.69694228  0.61598955  0.88083479  1  0  0.238211  0  3.790865  0  0  0.234134  0  4.044883  0  0  0.240318  0  4.066758  0  0.300429  0  0.093222  0.229606  0  4.030114  0
C  C69  1  0.30306503  0.11598996  0.61916408  1  0  0.238016  0  3.791113  0  0  0.234088  0  4.044898  0  0  0.240275  0  4.066777  0  0.29996  0  0.093159  0.229559  0  4.03013  0
C  C70  1  0.30306878  0.38400828  0.11916415  1  0  0.238033  0  3.790961  0  0  0.234107  0  4.044764  0  0  0.240294  0  4.066634  0  0.300471  0  0.093172  0.229579  0  4.03  0
C  C71  1  0.69692728  0.88400448  0.38083571  1  0  0.238094  0  3.790849  0  0  0.234051  0  4.04481  0  0  0.240235  0  4.066685  0  0.30096  0  0.093134  0.229523  0  4.030044  0
C  C72  1  0.10487163  0.69481188  0.97118858  1  0  -0.089984  0  3.714901  0  0  -0.132279  0  3.970627  0  0  -0.13036  0  3.988886  0  -0.106943  0  -0.088805  -0.133313  0  3.958248  0
C  C73  1  0.89513380  0.19481364  0.52881147  1  0  -0.089952  0  3.714809  0  0  -0.132252  0  3.970575  0  0  -0.130335  0  3.988837  0  -0.106908  0  -0.088753  -0.133287  0  3.958198  0
C  C74  1  0.89515068  0.30518460  0.02880876  1  0  -0.089821  0  3.714721  0  0  -0.132137  0  3.970527  0  0  -0.130214  0  3.988782  0  -0.106762  0  -0.088826  -0.133184  0  3.958164  0
C  C75  1  0.10486038  0.80518487  0.47118957  1  0  -0.089843  0  3.714805  0  0  -0.132082  0  3.970525  0  0  -0.130164  0  3.988782  0  -0.106958  0  -0.088724  -0.133123  0  3.958154  0
C  C76  1  0.03498347  0.72694823  0.89325645  1  0  -0.064565  0  3.786227  0  0  -0.038452  0  4.023495  0  0  -0.045623  0  4.045244  0  0.010397  0  -0.026057  -0.033873  0  4.008816  0
C  C77  1  0.96502759  0.22694931  0.60674249  1  0  -0.064429  0  3.786249  0  0  -0.038314  0  4.023461  0  0  -0.045484  0  4.045216  0  0.010352  0  -0.026012  -0.033738  0  4.008782  0
C  C78  1  0.96503134  0.27304892  0.10674013  1  0  -0.064534  0  3.786243  0  0  -0.038391  0  4.023422  0  0  -0.045564  0  4.045173  0  0.010387  0  -0.025968  -0.033814  0  4.008745  0
C  C79  1  0.03497597  0.77304988  0.39325935  1  0  -0.064632  0  3.786265  0  0  -0.038563  0  4.023526  0  0  -0.045731  0  4.045274  0  0.010384  0  -0.0261  -0.033985  0  4.008849  0
C  C80  1  0.88320131  0.60023800  0.56305637  1  0  -0.129126  0  3.72357  0  0  -0.140151  0  3.971508  0  0  -0.148838  0  3.993572  0  0.003777  0  -0.084381  -0.134639  0  3.95671  0
C  C81  1  0.11679850  0.10023637  0.93694418  1  0  -0.129272  0  3.723616  0  0  -0.140337  0  3.971567  0  0  -0.149024  0  3.993636  0  0.003807  0  -0.084429  -0.134824  0  3.956768  0
C  C82  1  0.11679475  0.39976459  0.43694471  1  0  -0.129176  0  3.72347  0  0  -0.140259  0  3.971426  0  0  -0.148924  0  3.993497  0  0.003796  0  -0.08436  -0.134747  0  3.956628  0
C  C83  1  0.88320131  0.89976554  0.06305637  1  0  -0.128993  0  3.723357  0  0  -0.140037  0  3.971303  0  0  -0.148721  0  3.993368  0  0.004028  0  -0.084347  -0.134525  0  3.956509  0
C  C84  1  0.75628777  0.58967468  0.96182491  1  0  -0.137362  0  3.658858  0  0  -0.170365  0  3.912423  0  0  -0.171418  0  3.930403  0  -0.015542  0  -0.081066  -0.16937  0  3.900382  0
C  C85  1  0.24371767  0.08967508  0.53817514  1  0  -0.137346  0  3.658925  0  0  -0.170394  0  3.912429  0  0  -0.171449  0  3.930413  0  -0.015437  0  -0.081081  -0.169395  0  3.900381  0
C  C86  1  0.24373455  0.41032043  0.03817303  1  0  -0.137343  0  3.658939  0  0  -0.170434  0  3.912478  0  0  -0.171475  0  3.930445  0  -0.015898  0  -0.081072  -0.169421  0  3.9004  0
C  C87  1  0.75627089  0.91032003  0.46182397  1  0  -0.137337  0  3.658931  0  0  -0.170387  0  3.912505  0  0  -0.171435  0  3.93048  0  -0.015826  0  -0.081027  -0.16937  0  3.900413  0
C  C88  1  0.54439320  0.67299017  0.62745302  1  0  -0.164552  0  3.672746  0  0  -0.179647  0  3.914023  0  0  -0.189043  0  3.934684  0  0.008306  0  -0.081132  -0.173669  0  3.900386  0
C  C89  1  0.45560473  0.17298785  0.87254688  1  0  -0.164309  0  3.672672  0  0  -0.179439  0  3.913945  0  0  -0.188825  0  3.934589  0  0.008387  0  -0.081127  -0.17346  0  3.900309  0
C  C90  1  0.45560849  0.32701378  0.37254696  1  0  -0.164433  0  3.672674  0  0  -0.179533  0  3.913915  0  0  -0.188927  0  3.934581  0  0.008411  0  -0.081163  -0.173552  0  3.900274  0
C  C91  1  0.54438757  0.82701473  0.12745351  1  0  -0.164287  0  3.672542  0  0  -0.179402  0  3.913782  0  0  -0.188794  0  3.934437  0  0.008337  0  -0.081073  -0.17342  0  3.900141  0
C  C92  1  0.56852827  0.60805908  0.68923113  1  0  0.240292  0  3.719551  0  0  0.240947  0  3.95865  0  0  0.249272  0  3.980074  0  0.448986  0  0.123939  0.23544  0  3.944089  0
C  C93  1  0.43147154  0.10805541  0.81077002  1  0  0.240129  0  3.719798  0  0  0.240777  0  3.958882  0  0  0.24911  0  3.980319  0  0.448958  0  0.123918  0.23527  0  3.944319  0
C  C94  1  0.43147342  0.39194554  0.31077067  1  0  0.240249  0  3.71971  0  0  0.240892  0  3.958822  0  0  0.24921  0  3.980252  0  0.448946  0  0.123961  0.235389  0  3.944251  0
C  C95  1  0.56852264  0.89194650  0.18923102  1  0  0.240112  0  3.719731  0  0  0.240787  0  3.958815  0  0  0.249112  0  3.980247  0  0.448902  0  0.123924  0.235287  0  3.944238  0
C  C96  1  0.40131209  0.61079317  0.76012593  1  0  -0.047708  0  3.695052  0  0  -0.109678  0  3.946019  0  0  -0.106463  0  3.957516  0  0.336956  0  -0.061429  -0.111691  0  3.937897  0
C  C97  1  0.59868772  0.11079289  0.73987401  1  0  -0.047688  0  3.695022  0  0  -0.109613  0  3.945931  0  0  -0.106431  0  3.957479  0  0.337057  0  -0.061427  -0.111629  0  3.937809  0
C  C98  1  0.59869148  0.38920942  0.23987469  1  0  -0.047702  0  3.695088  0  0  -0.10972  0  3.946136  0  0  -0.106487  0  3.957606  0  0.337006  0  -0.061433  -0.111732  0  3.938013  0
C  C99  1  0.40130271  0.88920698  0.26012574  1  0  -0.047728  0  3.695145  0  0  -0.10976  0  3.946156  0  0  -0.106547  0  3.957655  0  0.337172  0  -0.061472  -0.111776  0  3.938035  0
C  C100  1  0.89540576  0.53747842  0.62618684  1  0  0.134849  0  3.70931  0  0  0.101276  0  3.963664  0  0  0.109459  0  3.981337  0  0.46464  0  0.045557  0.096039  0  3.951646  0
C  C101  1  0.10458279  0.03747814  0.87381227  1  0  0.134981  0  3.709222  0  0  0.101373  0  3.96361  0  0  0.109562  0  3.981278  0  0.464617  0  0.045533  0.096135  0  3.951594  0
C  C102  1  0.10458467  0.46252417  0.37381291  1  0  0.134887  0  3.709225  0  0  0.101291  0  3.963622  0  0  0.109481  0  3.981278  0  0.464404  0  0.045502  0.096053  0  3.951607  0
C  C103  1  0.89541327  0.96252309  0.12618881  1  0  0.134715  0  3.709327  0  0  0.101109  0  3.963725  0  0  0.1093  0  3.98139  0  0.464385  0  0.045477  0.095872  0  3.951708  0
C  C104  1  0.70133679  0.66837266  0.56302839  1  0  0.035501  0  3.690672  0  0  0.016134  0  3.936022  0  0  0.022405  0  3.952998  0  -0.067706  0  -0.057132  0.012224  0  3.924549  0
C  C105  1  0.29866677  0.16836899  0.93697283  1  0  0.035543  0  3.690542  0  0  0.016187  0  3.935889  0  0  0.022459  0  3.952869  0  -0.067609  0  -0.057084  0.012277  0  3.924413  0
C  C106  1  0.29866115  0.33163060  0.43697212  1  0  0.035505  0  3.690526  0  0  0.016149  0  3.935875  0  0  0.022422  0  3.952844  0  -0.067656  0  -0.057096  0.01224  0  3.924401  0
C  C107  1  0.70133116  0.83163292  0.06302889  1  0  0.035403  0  3.690422  0  0  0.016032  0  3.935791  0  0  0.022306  0  3.952764  0  -0.067843  0  -0.057117  0.012116  0  3.924325  0
N  N108  1  0.51401055  0.56793247  0.83323534  1  0  -0.439833  0  3.322725  0  0  -0.369872  0  3.564662  0  0  -0.390041  0  3.57501  0  -1.19029  0  -0.447034  -0.35572  0  3.557305  0
N  N109  1  0.48599301  0.06793219  0.66676466  1  0  -0.439752  0  3.322715  0  0  -0.369837  0  3.564575  0  0  -0.390002  0  3.574936  0  -1.189902  0  -0.447021  -0.355678  0  3.557209  0
N  N110  1  0.48599676  0.43206876  0.16676352  1  0  -0.439733  0  3.322558  0  0  -0.36976  0  3.564468  0  0  -0.389933  0  3.574807  0  -1.189988  0  -0.447007  -0.355606  0  3.557108  0
N  N111  1  0.51399929  0.93206428  0.33323634  1  0  -0.439655  0  3.322491  0  0  -0.369676  0  3.564377  0  0  -0.389851  0  3.574731  0  -1.190748  0  -0.446979  -0.355519  0  3.557012  0
N  N112  1  0.74032839  0.54109238  0.68785627  1  0  -0.377832  0  3.281885  0  0  -0.297549  0  3.547075  0  0  -0.318934  0  3.562828  0  -1.272861  0  -0.330159  -0.28318  0  3.536261  0
N  N113  1  0.25966392  0.04109075  0.81214291  1  0  -0.37789  0  3.281957  0  0  -0.297566  0  3.5471  0  0  -0.318954  0  3.562857  0  -1.272927  0  -0.330106  -0.283197  0  3.536288  0
N  N114  1  0.25966767  0.45891021  0.31214420  1  0  -0.37785  0  3.281894  0  0  -0.297545  0  3.547065  0  0  -0.318932  0  3.562823  0  -1.272694  0  -0.330127  -0.283178  0  3.536253  0
N  N115  1  0.74033026  0.95890980  0.18785813  1  0  -0.37779  0  3.281912  0  0  -0.297497  0  3.547089  0  0  -0.318884  0  3.562848  0  -1.272694  0  -0.330099  -0.283129  0  3.536273  0
O  O116  1  0.25322690  0.61939697  0.12033191  1  0  -0.638603  0  2.036205  0  0  -0.564043  0  2.299444  0  0  -0.593794  0  2.286243  0  -1.155945  0  -0.325528  -0.543174  0  2.307688  0
O  O117  1  0.74677478  0.11939465  0.37966928  1  0  -0.638803  0  2.036426  0  0  -0.564011  0  2.299458  0  0  -0.593764  0  2.28626  0  -1.155852  0  -0.325509  -0.543143  0  2.307704  0
O  O118  1  0.74678791  0.38060698  0.87966771  1  0  -0.638816  0  2.036308  0  0  -0.564018  0  2.299366  0  0  -0.593784  0  2.286173  0  -1.155788  0  -0.325486  -0.543148  0  2.307612  0
O  O119  1  0.25321190  0.88060725  0.62033161  1  0  -0.638848  0  2.036318  0  0  -0.564024  0  2.299364  0  0  -0.593783  0  2.286167  0  -1.155766  0  -0.325496  -0.543154  0  2.307612  0
O  O120  1  0.88707252  0.54693017  0.13033002  1  0  -0.616186  0  1.957698  0  0  -0.5634  0  2.188552  0  0  -0.587067  0  2.179764  0  -1.20092  0  -0.313706  -0.546897  0  2.194072  0
O  O121  1  0.11294041  0.04693057  0.36967321  1  0  -0.616055  0  1.957573  0  0  -0.563376  0  2.188533  0  0  -0.587025  0  2.179705  0  -1.200891  0  -0.313711  -0.54688  0  2.194067  0
O  O122  1  0.11295542  0.45307106  0.86967228  1  0  -0.616022  0  1.957561  0  0  -0.563373  0  2.188564  0  0  -0.58701  0  2.179711  0  -1.20087  0  -0.313696  -0.546875  0  2.194098  0
O  O123  1  0.88704814  0.95307270  0.63032590  1  0  -0.615999  0  1.957532  0  0  -0.563343  0  2.188546  0  0  -0.586975  0  2.179679  0  -1.200872  0  -0.313681  -0.546852  0  2.19409  0
O  O124  1  0.10596698  0.83469993  0.78806815  1  0  -0.676521  0  2.075595  0  0  -0.598302  0  2.329346  0  0  -0.626328  0  2.314549  0  -1.193645  0  -0.324247  -0.578756  0  2.338884  0
O  O125  1  0.89403846  0.33470373  0.71193007  1  0  -0.676478  0  2.075646  0  0  -0.59826  0  2.329383  0  0  -0.626288  0  2.314582  0  -1.193612  0  -0.324277  -0.578719  0  2.338934  0
O  O126  1  0.89403471  0.16529587  0.21192757  1  0  -0.676449  0  2.075726  0  0  -0.598257  0  2.329475  0  0  -0.626273  0  2.314667  0  -1.193535  0  -0.324251  -0.578724  0  2.339027  0
O  O127  1  0.10596510  0.66529614  0.28807176  1  0  -0.676526  0  2.075679  0  0  -0.598301  0  2.329386  0  0  -0.626329  0  2.314598  0  -1.193505  0  -0.324268  -0.578764  0  2.338933  0
O  O128  1  0.38103885  0.82834101  0.89794970  1  0  -0.606434  0  1.992825  0  0  -0.554927  0  2.218183  0  0  -0.579578  0  2.211142  0  -1.178196  0  -0.31049  -0.537769  0  2.222526  0
O  O129  1  0.61895345  0.32833326  0.60205252  1  0  -0.606333  0  1.992945  0  0  -0.554808  0  2.218292  0  0  -0.579461  0  2.211255  0  -1.17813  0  -0.310447  -0.53765  0  2.222632  0
O  O130  1  0.61894595  0.17166566  0.10204995  1  0  -0.606359  0  1.992856  0  0  -0.554871  0  2.218217  0  0  -0.579525  0  2.211184  0  -1.17825  0  -0.310481  -0.537712  0  2.222558  0
O  O131  1  0.38104823  0.67166593  0.39795049  1  0  -0.60637  0  1.992898  0  0  -0.554894  0  2.218253  0  0  -0.579544  0  2.211216  0  -1.178218  0  -0.310468  -0.537737  0  2.222594  0
O  O132  1  0.35854305  0.40617107  0.70809735  1  0  -0.84333  0  1.954975  0  0  -0.77415  0  2.169031  0  0  -0.797341  0  2.133149  0  -1.277297  0  -0.579571  -0.757773  0  2.193921  0
O  O133  1  0.64145488  0.90617950  0.79189951  1  0  -0.843291  0  1.954973  0  0  -0.774137  0  2.16898  0  0  -0.797323  0  2.133095  0  -1.276984  0  -0.579578  -0.757753  0  2.193888  0
O  O134  1  0.64145301  0.59382540  0.29190251  1  0  -0.843251  0  1.954987  0  0  -0.774035  0  2.169101  0  0  -0.797267  0  2.133117  0  -1.277077  0  -0.579558  -0.757652  0  2.194004  0
O  O135  1  0.35855430  0.09382717  0.20810061  1  0  -0.843242  0  1.955105  0  0  -0.774053  0  2.169142  0  0  -0.797244  0  2.133245  0  -1.27703  0  -0.579535  -0.757669  0  2.194047  0
