# generated using pymatgen
data_CdH14C10(IN2)2
_symmetry_space_group_name_H-M   'P 1'
_cell_length_a   10.76824975
_cell_length_b   11.49465765
_cell_length_c   13.29240000
_cell_angle_alpha   90.00000000
_cell_angle_beta   101.38204180
_cell_angle_gamma   90.00000000
_symmetry_Int_Tables_number   1
_chemical_formula_structural   CdH14C10(IN2)2
_chemical_formula_sum   'Cd4 H56 C40 I8 N16'
_cell_volume   1612.94002667
_cell_formula_units_Z   4
loop_
 _symmetry_equiv_pos_site_id
 _symmetry_equiv_pos_as_xyz
  1  'x, y, z'
loop_
 _atom_site_type_symbol
 _atom_site_label
 _atom_site_symmetry_multiplicity
 _atom_site_fract_x
 _atom_site_fract_y
 _atom_site_fract_z
 _atom_site_occupancy
 _atom_site_hle17_bader_spin_density
 _atom_site_hle17_ddec_charge
 _atom_site_hle17_ddec_spin_density
 _atom_site_hle17_ddec_sum_bond_order
 _atom_site_hle17_magmom
 _atom_site_hse06_10hf_bader_spin_density
 _atom_site_hse06_10hf_ddec_charge
 _atom_site_hse06_10hf_ddec_spin_density
 _atom_site_hse06_10hf_ddec_sum_bond_order
 _atom_site_hse06_10hf_magmom
 _atom_site_hse06_bader_spin_density
 _atom_site_hse06_ddec_charge
 _atom_site_hse06_ddec_spin_density
 _atom_site_hse06_ddec_sum_bond_order
 _atom_site_hse06_magmom
 _atom_site_pbe_bader_charge
 _atom_site_pbe_bader_spin_density
 _atom_site_pbe_cm5_charge
 _atom_site_pbe_ddec_charge
 _atom_site_pbe_ddec_spin_density
 _atom_site_pbe_ddec_sum_bond_order
 _atom_site_pbe_magmom
Cd  Cd0  1  0.62039764  0.60092003  0.25104092  1  0  0.7498  0  2.121989  0  0  0.582229  0  2.60063  0  0  0.628474  0  2.561787  0  0.891569  0  0.52891  0.551372  0  2.627197  0
Cd  Cd1  1  0.87959410  0.10092950  0.24896096  1  0  0.749765  0  2.122049  0  0  0.582243  0  2.600621  0  0  0.628485  0  2.561778  0  0.891516  0  0.528922  0.551388  0  2.627185  0
Cd  Cd2  1  0.37958706  0.39907061  0.74894873  1  0  0.749779  0  2.122062  0  0  0.582261  0  2.600593  0  0  0.628506  0  2.561743  0  0.891555  0  0.528935  0.551403  0  2.627158  0
Cd  Cd3  1  0.12041713  0.89906723  0.75105175  1  0  0.749742  0  2.122004  0  0  0.582175  0  2.600608  0  0  0.62842  0  2.561763  0  0.891451  0  0.528902  0.551318  0  2.627169  0
H  H4  1  0.62217475  0.88078569  0.17127704  1  0  0.272881  0  0.916996  0  0  0.249494  0  0.994711  0  0  0.256899  0  0.988594  0  0.47755  0  0.303988  0.243955  0  0.999671  0
H  H5  1  0.87782552  0.38078385  0.32872319  1  0  0.272995  0  0.916941  0  0  0.2496  0  0.99464  0  0  0.257005  0  0.988524  0  0.477567  0  0.304005  0.244061  0  0.999601  0
H  H6  1  0.37783458  0.11920407  0.82872558  1  0  0.272926  0  0.917085  0  0  0.249541  0  0.994744  0  0  0.256939  0  0.988646  0  0.477713  0  0.303986  0.244004  0  0.999703  0
H  H7  1  0.12216582  0.61920330  0.67127730  1  0  0.272859  0  0.917109  0  0  0.249472  0  0.994791  0  0  0.25687  0  0.988691  0  0.477712  0  0.30397  0.243935  0  0.999749  0
H  H8  1  0.12371274  0.15157650  0.42856999  1  0  0.299067  0  0.847193  0  0  0.289962  0  0.893996  0  0  0.296116  0  0.889887  0  0.494865  0  0.345303  0.284909  0  0.898182  0
H  H9  1  0.37628956  0.65158095  0.07143169  1  0  0.299059  0  0.847186  0  0  0.289964  0  0.894006  0  0  0.296117  0  0.889893  0  0.494836  0  0.345282  0.28491  0  0.898194  0
H  H10  1  0.87630418  0.84843414  0.57143760  1  0  0.299059  0  0.847335  0  0  0.29001  0  0.894114  0  0  0.296163  0  0.890004  0  0.494951  0  0.345302  0.28495  0  0.898308  0
H  H11  1  0.62370178  0.34842012  0.92856805  1  0  0.298957  0  0.847307  0  0  0.289872  0  0.894126  0  0  0.296029  0  0.890015  0  0.494728  0  0.345238  0.284816  0  0.898313  0
H  H12  1  0.31184284  0.65720531  0.31936384  1  0  0.108296  0  0.982632  0  0  0.124484  0  1.052691  0  0  0.125828  0  1.053683  0  0.038096  0  0.088293  0.123451  0  1.052137  0
H  H13  1  0.18816041  0.15719737  0.18063198  1  0  0.108216  0  0.982662  0  0  0.124511  0  1.052637  0  0  0.125856  0  1.053629  0  0.03797  0  0.088313  0.123475  0  1.052087  0
H  H14  1  0.68815987  0.34279925  0.68063622  1  0  0.108297  0  0.982672  0  0  0.124532  0  1.052678  0  0  0.125877  0  1.053669  0  0.037967  0  0.088293  0.123496  0  1.052127  0
H  H15  1  0.81183945  0.84280196  0.81936085  1  0  0.108327  0  0.98267  0  0  0.124597  0  1.05261  0  0  0.125941  0  1.053601  0  0.038059  0  0.088318  0.12356  0  1.05206  0
H  H16  1  0.32686490  0.75688901  0.42284429  1  0  0.127555  0  0.973634  0  0  0.148039  0  1.033189  0  0  0.150124  0  1.032763  0  0.07469  0  0.08024  0.146597  0  1.033331  0
H  H17  1  0.17314498  0.25688281  0.07715860  1  0  0.127528  0  0.973609  0  0  0.14803  0  1.033162  0  0  0.150115  0  1.032736  0  0.074848  0  0.080226  0.146588  0  1.033305  0
H  H18  1  0.67313875  0.24311294  0.57716193  1  0  0.127517  0  0.973712  0  0  0.148065  0  1.03319  0  0  0.150149  0  1.032766  0  0.074758  0  0.080237  0.146624  0  1.03333  0
H  H19  1  0.82685868  0.74311478  0.92283634  1  0  0.127548  0  0.973725  0  0  0.148094  0  1.033199  0  0  0.150177  0  1.032779  0  0.074748  0  0.080255  0.146653  0  1.033338  0
H  H20  1  0.45327646  0.66054251  0.41330193  1  0  0.113556  0  0.96303  0  0  0.130618  0  1.031634  0  0  0.13242  0  1.031194  0  0.06319  0  0.083531  0.129114  0  1.032202  0
H  H21  1  0.04673342  0.16053980  0.08669344  1  0  0.113556  0  0.963013  0  0  0.130647  0  1.031613  0  0  0.132451  0  1.031171  0  0.063222  0  0.083526  0.12915  0  1.032174  0
H  H22  1  0.54673288  0.33945944  0.58670069  1  0  0.11359  0  0.963136  0  0  0.130676  0  1.031713  0  0  0.132479  0  1.031271  0  0.06319  0  0.083575  0.129172  0  1.032281  0
H  H23  1  0.95326834  0.83946128  0.91329819  1  0  0.113642  0  0.963061  0  0  0.13072  0  1.031651  0  0  0.132523  0  1.031208  0  0.063224  0  0.08358  0.129213  0  1.032221  0
H  H24  1  0.53122391  0.14155967  0.23028060  1  0  0.113691  0  0.975088  0  0  0.13157  0  1.041878  0  0  0.133341  0  1.041609  0  0.064802  0  0.082031  0.130289  0  1.04198  0
H  H25  1  0.96877163  0.64155717  0.26971285  1  0  0.113531  0  0.97502  0  0  0.131395  0  1.041871  0  0  0.133167  0  1.041604  0  0.064865  0  0.081943  0.130115  0  1.041972  0
H  H26  1  0.46878638  0.85844053  0.76972066  1  0  0.113638  0  0.975065  0  0  0.131504  0  1.041886  0  0  0.133276  0  1.041609  0  0.065035  0  0.082007  0.130221  0  1.041993  0
H  H27  1  0.03122350  0.35844217  0.73028073  1  0  0.113653  0  0.975005  0  0  0.131504  0  1.041855  0  0  0.133276  0  1.041588  0  0.06483  0  0.081986  0.130224  0  1.041957  0
H  H28  1  0.37799373  0.11761377  0.15321388  1  0  0.123883  0  0.956397  0  0  0.145483  0  1.014347  0  0  0.147195  0  1.014321  0  0.037073  0  0.090742  0.144095  0  1.014599  0
H  H29  1  0.12200762  0.61761909  0.34678164  1  0  0.123759  0  0.956489  0  0  0.145407  0  1.014392  0  0  0.147121  0  1.014362  0  0.037083  0  0.090743  0.144019  0  1.014643  0
H  H30  1  0.62201371  0.88237861  0.84679371  1  0  0.123968  0  0.956353  0  0  0.145551  0  1.014303  0  0  0.147266  0  1.014273  0  0.037073  0  0.090768  0.144163  0  1.014555  0
H  H31  1  0.87799129  0.38237415  0.65321180  1  0  0.123852  0  0.956393  0  0  0.145505  0  1.014291  0  0  0.147219  0  1.014262  0  0.037107  0  0.090771  0.144116  0  1.014543  0
H  H32  1  0.51647087  0.07713670  0.10725753  1  0  0.115802  0  0.97355  0  0  0.130751  0  1.042026  0  0  0.133553  0  1.040102  0  0.077609  0  0.078668  0.128494  0  1.043844  0
H  H33  1  0.98352845  0.57713159  0.39274104  1  0  0.115675  0  0.97348  0  0  0.13061  0  1.041999  0  0  0.133412  0  1.040073  0  0.077681  0  0.078615  0.128352  0  1.043814  0
H  H34  1  0.48353562  0.92286785  0.89274313  1  0  0.115732  0  0.973528  0  0  0.130666  0  1.042023  0  0  0.133469  0  1.040098  0  0.077449  0  0.078621  0.128409  0  1.043838  0
H  H35  1  0.01646573  0.42286862  0.60725690  1  0  0.1157  0  0.97353  0  0  0.130647  0  1.042026  0  0  0.133451  0  1.040099  0  0.077447  0  0.078618  0.12839  0  1.043841  0
H  H36  1  0.99772164  0.84406777  0.20137772  1  0  0.115102  0  0.957472  0  0  0.132779  0  1.022373  0  0  0.134663  0  1.021473  0  0.048415  0  0.086887  0.131299  0  1.023212  0
H  H37  1  0.50226916  0.34406418  0.29861272  1  0  0.115127  0  0.957474  0  0  0.132777  0  1.022397  0  0  0.134662  0  1.021497  0  0.048472  0  0.08689  0.131297  0  1.023236  0
H  H38  1  0.00228012  0.15594375  0.79863196  1  0  0.115039  0  0.957421  0  0  0.132774  0  1.022289  0  0  0.134657  0  1.021387  0  0.048318  0  0.086894  0.131294  0  1.023127  0
H  H39  1  0.49771460  0.65593602  0.70138431  1  0  0.1152  0  0.957506  0  0  0.132859  0  1.022398  0  0  0.134745  0  1.021499  0  0.048497  0  0.086949  0.131379  0  1.023237  0
H  H40  1  0.15236720  0.78565019  0.20712571  1  0  0.11917  0  0.952808  0  0  0.141585  0  1.011087  0  0  0.142531  0  1.012169  0  0.056537  0  0.093454  0.140775  0  1.010583  0
H  H41  1  0.34762942  0.28563965  0.29287281  1  0  0.119128  0  0.952677  0  0  0.141577  0  1.010929  0  0  0.14252  0  1.012017  0  0.056476  0  0.093466  0.140768  0  1.010426  0
H  H42  1  0.84763172  0.21435871  0.79287750  1  0  0.119058  0  0.952764  0  0  0.141495  0  1.011054  0  0  0.142438  0  1.01214  0  0.056456  0  0.093427  0.140686  0  1.010551  0
H  H43  1  0.65235813  0.71435794  0.70713386  1  0  0.119134  0  0.952732  0  0  0.141533  0  1.01103  0  0  0.142476  0  1.012117  0  0.057433  0  0.093451  0.140724  0  1.010526  0
H  H44  1  0.09553097  0.89791800  0.11879377  1  0  0.117282  0  0.967783  0  0  0.132141  0  1.039534  0  0  0.134522  0  1.03854  0  0.065882  0  0.081245  0.130391  0  1.040356  0
H  H45  1  0.40446091  0.39791442  0.38119722  1  0  0.117324  0  0.967709  0  0  0.132163  0  1.039497  0  0  0.134545  0  1.0385  0  0.065988  0  0.081279  0.130413  0  1.04032  0
H  H46  1  0.90446226  0.10209003  0.88120853  1  0  0.117301  0  0.967746  0  0  0.132188  0  1.039473  0  0  0.134568  0  1.038477  0  0.066016  0  0.081305  0.130439  0  1.040295  0
H  H47  1  0.59552949  0.60208840  0.61880463  1  0  0.117409  0  0.967592  0  0  0.13224  0  1.039388  0  0  0.134623  0  1.038393  0  0.066002  0  0.081324  0.130491  0  1.040211  0
H  H48  1  0.36304461  0.21284757  0.47702834  1  0  0.11694  0  0.957972  0  0  0.133945  0  1.024453  0  0  0.135948  0  1.023814  0  0.062286  0  0.089701  0.132139  0  1.025682  0
H  H49  1  0.13695201  0.71284681  0.02295814  1  0  0.116828  0  0.958081  0  0  0.13381  0  1.02462  0  0  0.135814  0  1.023982  0  0.062283  0  0.089673  0.132003  0  1.025848  0
H  H50  1  0.63698557  0.78715176  0.52297761  1  0  0.116815  0  0.957934  0  0  0.133841  0  1.024375  0  0  0.135846  0  1.023733  0  0.062452  0  0.089648  0.132033  0  1.025606  0
H  H51  1  0.86303080  0.28715079  0.97703197  1  0  0.116867  0  0.95796  0  0  0.133872  0  1.024422  0  0  0.135875  0  1.023784  0  0.062416  0  0.089674  0.132066  0  1.025653  0
H  H52  1  0.47337598  0.12677194  0.42513003  1  0  0.127698  0  0.95164  0  0  0.148846  0  1.010009  0  0  0.150394  0  1.010315  0  0.068806  0  0.091247  0.148213  0  1.008767  0
H  H53  1  0.02661401  0.62677465  0.07485238  1  0  0.127602  0  0.951647  0  0  0.148777  0  1.010016  0  0  0.150326  0  1.010321  0  0.068925  0  0.091197  0.148144  0  1.008779  0
H  H54  1  0.52663809  0.87321696  0.57486583  1  0  0.127571  0  0.951552  0  0  0.148643  0  1.010039  0  0  0.150189  0  1.010347  0  0.069159  0  0.091122  0.148009  0  1.008797  0
H  H55  1  0.97336597  0.37322208  0.92513727  1  0  0.127596  0  0.951725  0  0  0.148683  0  1.010169  0  0  0.15023  0  1.010477  0  0.069092  0  0.091175  0.148052  0  1.008924  0
H  H56  1  0.40854939  0.07356200  0.52921327  1  0  0.126534  0  0.954456  0  0  0.142437  0  1.021292  0  0  0.144479  0  1.021345  0  0.079601  0  0.090027  0.140726  0  1.021711  0
H  H57  1  0.09145007  0.57355949  0.97077592  1  0  0.126425  0  0.954477  0  0  0.142373  0  1.02128  0  0  0.144412  0  1.021333  0  0.079751  0  0.090014  0.14066  0  1.021701  0
H  H58  1  0.59146468  0.92643124  0.47078334  1  0  0.126539  0  0.95441  0  0  0.14241  0  1.021272  0  0  0.14445  0  1.021326  0  0.079609  0  0.089996  0.140699  0  1.021691  0
H  H59  1  0.90854317  0.42643375  0.02922036  1  0  0.126495  0  0.954373  0  0  0.142414  0  1.02119  0  0  0.144452  0  1.021243  0  0.079517  0  0.09003  0.140704  0  1.021611  0
C  C60  1  0.37833949  0.71532361  0.36910001  1  0  -0.360169  0  3.71259  0  0  -0.435527  0  3.947177  0  0  -0.439581  0  3.954079  0  -0.070615  0  -0.248087  -0.432204  0  3.942001  0
C  C61  1  0.12166944  0.21531829  0.13089898  1  0  -0.360044  0  3.712466  0  0  -0.435589  0  3.947099  0  0  -0.439647  0  3.954001  0  -0.070863  0  -0.248089  -0.43227  0  3.941922  0
C  C62  1  0.62166606  0.28468355  0.63090201  1  0  -0.360164  0  3.71275  0  0  -0.435673  0  3.947322  0  0  -0.439728  0  3.95422  0  -0.070652  0  -0.248124  -0.432347  0  3.942147  0
C  C63  1  0.87833137  0.78468192  0.86909476  1  0  -0.360342  0  3.712728  0  0  -0.435844  0  3.947322  0  0  -0.4399  0  3.954222  0  -0.070735  0  -0.248171  -0.432515  0  3.942152  0
C  C64  1  0.43067895  0.80424753  0.30764589  1  0  0.230403  0  3.749822  0  0  0.223571  0  4.01599  0  0  0.23456  0  4.033953  0  0.494461  0  0.09709  0.216544  0  4.003276  0
C  C65  1  0.06932525  0.30424134  0.19235233  1  0  0.23029  0  3.749897  0  0  0.223485  0  4.016073  0  0  0.234475  0  4.034033  0  0.494734  0  0.097017  0.216456  0  4.003361  0
C  C66  1  0.56932660  0.19575877  0.69235687  1  0  0.230293  0  3.749869  0  0  0.223504  0  4.015996  0  0  0.234494  0  4.033957  0  0.494553  0  0.097032  0.216475  0  4.003284  0
C  C67  1  0.93067083  0.69575800  0.80764215  1  0  0.230397  0  3.749898  0  0  0.22357  0  4.016068  0  0  0.234561  0  4.034026  0  0.494677  0  0.097071  0.216541  0  4.003355  0
C  C68  1  0.38889984  0.91977337  0.28437881  1  0  -0.146284  0  3.788483  0  0  -0.138124  0  4.035711  0  0  -0.146991  0  4.061121  0  0.037883  0  -0.033726  -0.132527  0  4.018784  0
C  C69  1  0.11110057  0.41977327  0.21561580  1  0  -0.146433  0  3.788983  0  0  -0.138258  0  4.036186  0  0  -0.147123  0  4.061596  0  0.037377  0  -0.033825  -0.13266  0  4.019258  0
C  C70  1  0.61110761  0.08022944  0.71562351  1  0  -0.146337  0  3.788637  0  0  -0.138172  0  4.035925  0  0  -0.147038  0  4.061337  0  0.037545  0  -0.033837  -0.132575  0  4.018997  0
C  C71  1  0.88889077  0.58022781  0.78438018  1  0  -0.146342  0  3.788631  0  0  -0.138162  0  4.035913  0  0  -0.147026  0  4.06132  0  0.03772  0  -0.033839  -0.132564  0  4.018985  0
C  C72  1  0.46921266  0.96498307  0.22270101  1  0  0.242072  0  3.715143  0  0  0.225635  0  3.98689  0  0  0.236945  0  4.00399  0  0.403922  0  0.104489  0.218404  0  3.974929  0
C  C73  1  0.03079533  0.46498123  0.27729181  1  0  0.242029  0  3.715463  0  0  0.225632  0  3.9871  0  0  0.236941  0  4.004208  0  0.403918  0  0.10451  0.218403  0  3.975128  0
C  C74  1  0.53080426  0.03501192  0.77730207  1  0  0.242296  0  3.715015  0  0  0.225808  0  3.986777  0  0  0.237121  0  4.003878  0  0.40341  0  0.104624  0.218576  0  3.974817  0
C  C75  1  0.96919412  0.53501028  0.72270237  1  0  0.242176  0  3.71497  0  0  0.225654  0  3.986809  0  0  0.236966  0  4.00391  0  0.403587  0  0.10454  0.218425  0  3.974836  0
C  C76  1  0.47367532  0.08159182  0.17548859  1  0  -0.365221  0  3.737949  0  0  -0.439476  0  3.971381  0  0  -0.443552  0  3.978108  0  -0.051435  0  -0.24689  -0.436305  0  3.966598  0
C  C77  1  0.02632698  0.58158496  0.32450557  1  0  -0.364655  0  3.737758  0  0  -0.438969  0  3.971241  0  0  -0.443048  0  3.977973  0  -0.051455  0  -0.246687  -0.435799  0  3.966462  0
C  C78  1  0.52633686  0.91840839  0.82451449  1  0  -0.365218  0  3.737823  0  0  -0.439432  0  3.971318  0  0  -0.443507  0  3.978047  0  -0.051349  0  -0.246885  -0.436265  0  3.966542  0
C  C79  1  0.97366815  0.41840742  0.67548801  1  0  -0.365002  0  3.737735  0  0  -0.43927  0  3.971208  0  0  -0.443351  0  3.977936  0  -0.051295  0  -0.24681  -0.436101  0  3.966432  0
C  C80  1  0.09566265  0.86553078  0.19676312  1  0  -0.357746  0  3.720595  0  0  -0.433064  0  3.953182  0  0  -0.437009  0  3.960871  0  -0.06211  0  -0.24261  -0.430072  0  3.947743  0
C  C81  1  0.40432734  0.36552285  0.30322982  1  0  -0.357706  0  3.720386  0  0  -0.433018  0  3.952957  0  0  -0.436965  0  3.960646  0  -0.061851  0  -0.242621  -0.430027  0  3.94752  0
C  C82  1  0.90433627  0.13447986  0.80324385  1  0  -0.357508  0  3.720105  0  0  -0.432973  0  3.952702  0  0  -0.436913  0  3.960391  0  -0.061725  0  -0.242639  -0.429982  0  3.947263  0
C  C83  1  0.59565832  0.63447823  0.69677052  1  0  -0.357932  0  3.720322  0  0  -0.433185  0  3.95297  0  0  -0.437133  0  3.960659  0  -0.063033  0  -0.242727  -0.430193  0  3.947534  0
C  C84  1  0.15070661  0.95306449  0.27520530  1  0  0.237046  0  3.735645  0  0  0.232028  0  3.997882  0  0  0.242899  0  4.015926  0  0.485311  0  0.103205  0.224964  0  3.985477  0
C  C85  1  0.34928338  0.45305569  0.22478614  1  0  0.236876  0  3.735762  0  0  0.23187  0  3.998005  0  0  0.242742  0  4.016049  0  0.484994  0  0.103069  0.224806  0  3.985601  0
C  C86  1  0.84930178  0.04694616  0.72479793  1  0  0.237119  0  3.735289  0  0  0.23223  0  3.997402  0  0  0.243099  0  4.015442  0  0.484516  0  0.103306  0.225163  0  3.985002  0
C  C87  1  0.65069754  0.54694452  0.77521344  1  0  0.237243  0  3.735252  0  0  0.23211  0  3.99766  0  0  0.242981  0  4.015702  0  0.484913  0  0.103236  0.225045  0  3.985258  0
C  C88  1  0.28047345  0.97759936  0.31406506  1  0  -0.146205  0  3.789798  0  0  -0.137553  0  4.036795  0  0  -0.14646  0  4.062135  0  0.018475  0  -0.032556  -0.131843  0  4.019801  0
C  C89  1  0.21951937  0.47759404  0.18592834  1  0  -0.145924  0  3.790126  0  0  -0.13739  0  4.037187  0  0  -0.146301  0  4.06253  0  0.019551  0  -0.03246  -0.13168  0  4.020188  0
C  C90  1  0.71953494  0.02240954  0.68593441  1  0  -0.14632  0  3.789997  0  0  -0.137876  0  4.037119  0  0  -0.146784  0  4.062465  0  0.019337  0  -0.032655  -0.132164  0  4.020123  0
C  C91  1  0.78046912  0.52240529  0.81407320  1  0  -0.146324  0  3.789996  0  0  -0.137718  0  4.037093  0  0  -0.146624  0  4.062433  0  0.018749  0  -0.032579  -0.132009  0  4.020098  0
C  C92  1  0.28152305  0.06807510  0.38493341  1  0  0.243371  0  3.720139  0  0  0.225136  0  3.996673  0  0  0.236725  0  4.012738  0  0.38463  0  0.107331  0.217711  0  3.985205  0
C  C93  1  0.21846789  0.56806998  0.11506345  1  0  0.243294  0  3.720064  0  0  0.225169  0  3.996549  0  0  0.236757  0  4.012603  0  0.384164  0  0.10739  0.217743  0  3.985081  0
C  C94  1  0.71849103  0.93193380  0.61506922  1  0  0.243295  0  3.720249  0  0  0.225282  0  3.996639  0  0  0.236862  0  4.012711  0  0.384243  0  0.10736  0.217854  0  3.985169  0
C  C95  1  0.78151872  0.43193109  0.88493704  1  0  0.243222  0  3.720185  0  0  0.225076  0  3.996639  0  0  0.236659  0  4.01271  0  0.38455  0  0.107297  0.217651  0  3.985166  0
C  C96  1  0.38712178  0.12394280  0.45746730  1  0  -0.360113  0  3.705814  0  0  -0.430921  0  3.938056  0  0  -0.435003  0  3.944916  0  -0.069595  0  -0.238084  -0.427986  0  3.933033  0
C  C97  1  0.11287294  0.62394203  0.04252189  1  0  -0.359751  0  3.705593  0  0  -0.430633  0  3.937787  0  0  -0.434714  0  3.944647  0  -0.070035  0  -0.23802  -0.4277  0  3.932764  0
C  C98  1  0.61289419  0.87605654  0.54253262  1  0  -0.359773  0  3.705531  0  0  -0.430533  0  3.937758  0  0  -0.434611  0  3.944622  0  -0.070304  0  -0.237846  -0.427597  0  3.932731  0
C  C99  1  0.88711555  0.37605644  0.95747364  1  0  -0.359787  0  3.705554  0  0  -0.430582  0  3.937827  0  0  -0.434656  0  3.944686  0  -0.0702  0  -0.237976  -0.427655  0  3.932803  0
I  I100  1  0.72481322  0.52324916  0.44308864  1  0  -0.463334  0  1.044757  0  0  -0.397666  0  1.351238  0  0  -0.41661  0  1.328475  0  -0.493455  0  -0.211455  -0.383468  0  1.368432  0
I  I101  1  0.77519748  0.02325341  0.05691326  1  0  -0.463317  0  1.044807  0  0  -0.397661  0  1.351251  0  0  -0.416604  0  1.328491  0  -0.493379  0  -0.211443  -0.383463  0  1.368446  0
I  I102  1  0.27518760  0.47676061  0.55690510  1  0  -0.463322  0  1.044786  0  0  -0.39765  0  1.351209  0  0  -0.416593  0  1.32845  0  -0.493446  0  -0.211446  -0.383453  0  1.368401  0
I  I103  1  0.22482228  0.97674070  0.94309855  1  0  -0.463262  0  1.044755  0  0  -0.397589  0  1.351207  0  0  -0.416532  0  1.328447  0  -0.493453  0  -0.211421  -0.383393  0  1.3684  0
I  I104  1  0.73544745  0.63966063  0.08894936  1  0  -0.496786  0  1.057887  0  0  -0.445628  0  1.366652  0  0  -0.462732  0  1.343758  0  -0.512137  0  -0.251238  -0.433334  0  1.382969  0
I  I105  1  0.76454051  0.13967358  0.41104816  1  0  -0.496756  0  1.057882  0  0  -0.445619  0  1.36664  0  0  -0.462722  0  1.343741  0  -0.512172  0  -0.251209  -0.433329  0  1.382957  0
I  I106  1  0.26454105  0.36032217  0.91104091  1  0  -0.496775  0  1.057897  0  0  -0.44562  0  1.366629  0  0  -0.462724  0  1.343734  0  -0.512103  0  -0.251218  -0.433327  0  1.382945  0
I  I107  1  0.23544136  0.86034489  0.58894406  1  0  -0.496759  0  1.05785  0  0  -0.445601  0  1.366597  0  0  -0.462705  0  1.343698  0  -0.512136  0  -0.251242  -0.433309  0  1.382912  0
N  N108  1  0.53002654  0.78082621  0.26351354  1  0  -0.299149  0  3.165994  0  0  -0.250131  0  3.452726  0  0  -0.266951  0  3.470336  0  -0.763693  0  -0.276087  -0.238959  0  3.441025  0
N  N109  1  0.96997752  0.28082089  0.23648279  1  0  -0.29897  0  3.166143  0  0  -0.249992  0  3.452846  0  0  -0.266809  0  3.470457  0  -0.763564  0  -0.276011  -0.238821  0  3.441145  0
N  N110  1  0.46997712  0.21917573  0.73648893  1  0  -0.298975  0  3.166022  0  0  -0.250002  0  3.452705  0  0  -0.266821  0  3.470317  0  -0.763424  0  -0.276052  -0.23883  0  3.441003  0
N  N111  1  0.03002045  0.71917496  0.76351125  1  0  -0.298978  0  3.165995  0  0  -0.249982  0  3.452688  0  0  -0.266801  0  3.470298  0  -0.763442  0  -0.276011  -0.23881  0  3.440985  0
N  N112  1  0.55149394  0.87876562  0.21259953  1  0  -0.207034  0  3.5085  0  0  -0.157523  0  3.750829  0  0  -0.169602  0  3.768457  0  -0.825303  0  -0.287336  -0.149704  0  3.739529  0
N  N113  1  0.94850823  0.37876465  0.28739874  1  0  -0.20734  0  3.508469  0  0  -0.157778  0  3.750744  0  0  -0.169861  0  3.768368  0  -0.825272  0  -0.287413  -0.149954  0  3.739443  0
N  N114  1  0.44851350  0.12122849  0.78740655  1  0  -0.207334  0  3.508366  0  0  -0.157725  0  3.750657  0  0  -0.169808  0  3.76828  0  -0.825315  0  -0.287356  -0.149902  0  3.739353  0
N  N115  1  0.05148974  0.62122772  0.71259454  1  0  -0.207217  0  3.508195  0  0  -0.157609  0  3.750496  0  0  -0.16969  0  3.768121  0  -0.825272  0  -0.287347  -0.149786  0  3.739198  0
N  N116  1  0.07735729  0.02492288  0.31815572  1  0  -0.289883  0  3.135628  0  0  -0.241439  0  3.423914  0  0  -0.258198  0  3.440938  0  -0.738584  0  -0.268921  -0.230994  0  3.412737  0
N  N117  1  0.42263649  0.52491515  0.18184084  1  0  -0.289844  0  3.135726  0  0  -0.241338  0  3.423964  0  0  -0.258104  0  3.440984  0  -0.738109  0  -0.268807  -0.230892  0  3.412785  0
N  N118  1  0.92265016  0.97508254  0.68185261  1  0  -0.290026  0  3.135938  0  0  -0.241472  0  3.424142  0  0  -0.258231  0  3.441166  0  -0.737844  0  -0.268969  -0.231029  0  3.41296  0
N  N119  1  0.57734917  0.47508157  0.81815649  1  0  -0.289925  0  3.135597  0  0  -0.241371  0  3.423884  0  0  -0.258127  0  3.440907  0  -0.73785  0  -0.268914  -0.230929  0  3.412703  0
N  N120  1  0.15852930  0.09400193  0.38324779  1  0  -0.208226  0  3.492337  0  0  -0.16369  0  3.741926  0  0  -0.174931  0  3.758753  0  -0.838699  0  -0.289427  -0.156054  0  3.730898  0
N  N121  1  0.34146732  0.59399942  0.11674922  1  0  -0.208273  0  3.492362  0  0  -0.163812  0  3.741946  0  0  -0.17504  0  3.758762  0  -0.839511  0  -0.289471  -0.156175  0  3.730915  0
N  N122  1  0.84148572  0.90600610  0.61676175  1  0  -0.208125  0  3.492767  0  0  -0.163849  0  3.742474  0  0  -0.175083  0  3.759302  0  -0.839118  0  -0.289409  -0.156198  0  3.731441  0
N  N123  1  0.65851928  0.40599991  0.88324977  1  0  -0.208104  0  3.492182  0  0  -0.163663  0  3.741778  0  0  -0.17491  0  3.758618  0  -0.839104  0  -0.289347  -0.156016  0  3.730738  0
