# generated using pymatgen
data_NiH6C10N3
_symmetry_space_group_name_H-M   'P 1'
_cell_length_a   6.74336378
_cell_length_b   7.11048302
_cell_length_c   27.56515637
_cell_angle_alpha   90.00128045
_cell_angle_beta   87.55749972
_cell_angle_gamma   89.99957892
_symmetry_Int_Tables_number   1
_chemical_formula_structural   NiH6C10N3
_chemical_formula_sum   'Ni4 H24 C40 N12'
_cell_volume   1320.50914645
_cell_formula_units_Z   4
loop_
 _symmetry_equiv_pos_site_id
 _symmetry_equiv_pos_as_xyz
  1  'x, y, z'
loop_
 _atom_site_type_symbol
 _atom_site_label
 _atom_site_symmetry_multiplicity
 _atom_site_fract_x
 _atom_site_fract_y
 _atom_site_fract_z
 _atom_site_occupancy
 _atom_site_pbe_bader_charge
 _atom_site_pbe_bader_spin_density
 _atom_site_pbe_cm5_charge
 _atom_site_pbe_ddec_charge
 _atom_site_pbe_ddec_spin_density
 _atom_site_pbe_ddec_sum_bond_order
 _atom_site_pbe_magmom
Ni  Ni0  1  0.00000980  0.54980893  0.24999919  1  1.193885  1.526832  0.744328  0.749478  1.742623  2.817191  1.512
Ni  Ni1  1  0.50001384  0.04886925  0.24999730  1  0.648202  0.023529  0.400217  0.13246  0.023693  3.827225  0.025
Ni  Ni2  1  0.00000168  0.45019884  0.74999978  1  1.193744  1.526817  0.744329  0.749693  1.742614  2.816821  1.512
Ni  Ni3  1  0.49999892  0.95113624  0.75000160  1  0.648352  0.023533  0.400218  0.132358  0.023696  3.82758  0.025
H  H4  1  0.41641487  0.53955897  0.28622986  1  0.115032  0.002287  0.120599  0.092288  0.000827  1.023756  0.001
H  H5  1  0.58357753  0.46045074  0.71377407  1  0.114876  0.002287  0.120644  0.092364  0.000827  1.023887  0.001
H  H6  1  0.19004479  0.68572051  0.49450381  1  0.039966  8.6e-05  0.104751  0.104977  5.5e-05  1.000027  0.0
H  H7  1  0.80989433  0.31426670  0.50549964  1  0.040132  8.6e-05  0.104696  0.104926  5.5e-05  1.000083  0.0
H  H8  1  0.41573010  0.48304132  0.63672018  1  0.042001  0.001314  0.105171  0.108505  0.000631  1.044556  0.001
H  H9  1  0.86257400  0.56572101  0.35547613  1  0.104689  0.002601  0.114531  0.079692  0.001041  1.036631  0.001
H  H10  1  0.58423282  0.51696276  0.36328986  1  0.042152  0.001314  0.105197  0.10844  0.000631  1.044482  0.001
H  H11  1  0.13739202  0.43429714  0.64451248  1  0.105091  0.0026  0.11449  0.079727  0.001041  1.03669  0.001
H  H12  1  0.35327406  0.66386692  0.57251368  1  0.072446  5.3e-05  0.10818  0.110236  2.1e-05  0.994992  0.0
H  H13  1  0.64664891  0.33613013  0.42748900  1  0.072244  5.3e-05  0.108205  0.110164  2.1e-05  0.995193  0.0
H  H14  1  0.99422758  0.45705114  0.56265919  1  0.052038  0.001228  0.099766  0.101245  0.000551  1.037893  0.001
H  H15  1  0.00569554  0.54295997  0.43733586  1  0.052316  0.001228  0.099754  0.101175  0.000551  1.037818  0.001
H  H16  1  0.58360890  0.53957136  0.21377065  1  0.115512  0.002285  0.120547  0.092236  0.000826  1.023771  0.001
H  H17  1  0.41641876  0.46043272  0.78622792  1  0.115148  0.002285  0.12064  0.092318  0.000826  1.023903  0.001
H  H18  1  0.80995350  0.68569236  0.00549926  1  0.039322  8.6e-05  0.10468  0.104843  5.5e-05  1.000172  0.0
H  H19  1  0.19009039  0.31428079  0.99449971  1  0.040106  8.6e-05  0.104665  0.104778  5.5e-05  1.000156  0.0
H  H20  1  0.58426073  0.48301629  0.86328248  1  0.042124  0.001313  0.105197  0.10858  0.000631  1.044496  0.001
H  H21  1  0.13743542  0.56568847  0.14451739  1  0.104638  0.002601  0.114491  0.07974  0.001041  1.036515  0.001
H  H22  1  0.41577044  0.51696811  0.13671356  1  0.042173  0.001314  0.105201  0.108457  0.000631  1.044415  0.001
H  H23  1  0.86259583  0.43434234  0.85548518  1  0.104952  0.002601  0.114512  0.079813  0.001041  1.036645  0.001
H  H24  1  0.64672788  0.66384263  0.92748756  1  0.072396  5.3e-05  0.108199  0.110274  2.1e-05  0.994971  0.0
H  H25  1  0.35332951  0.33612630  0.07251072  1  0.072521  5.3e-05  0.108206  0.110243  2.1e-05  0.995185  0.0
H  H26  1  0.00575604  0.45707891  0.93734023  1  0.051963  0.001228  0.099757  0.101176  0.000551  1.037974  0.001
H  H27  1  0.99429479  0.54292236  0.06266093  1  0.051749  0.001229  0.09975  0.101184  0.000551  1.038039  0.001
C  C28  1  0.68211568  0.86759908  0.26485466  1  0.788773  0.004553  0.021709  0.051262  0.001117  3.806682  0.01
C  C29  1  0.32998036  0.53818483  0.32037383  1  0.566839  -0.003834  0.059039  0.115848  -0.004731  3.924975  -0.003
C  C30  1  0.67000213  0.46182207  0.67962790  1  0.566867  -0.003831  0.059077  0.116  -0.004731  3.92477  -0.003
C  C31  1  0.32456994  0.60152816  0.49684625  1  -0.077349  -0.000496  -0.0883  -0.127629  -0.000578  3.992473  0.0
C  C32  1  0.40602454  0.51268253  0.45500209  1  -0.042403  -0.000461  -0.006137  0.06394  -0.000573  4.001179  0.0
C  C33  1  0.67535686  0.39845343  0.50315934  1  -0.076848  -0.000495  -0.088262  -0.127539  -0.000578  3.991971  0.0
C  C34  1  0.59389812  0.48730749  0.54500204  1  -0.045106  -0.000463  -0.006124  0.064006  -0.000574  4.001575  0.0
C  C35  1  0.31043218  0.52669955  0.40802029  1  0.039321  -0.005465  0.007902  0.103912  -0.006216  4.003001  -0.004
C  C36  1  0.57677351  0.47450200  0.63588129  1  0.032122  0.006509  -0.08006  -0.16936  0.003646  3.931567  0.005
C  C37  1  0.68950467  0.47330313  0.59197988  1  -0.030033  -0.005468  0.007949  0.104263  -0.006214  4.002484  -0.004
C  C38  1  0.02196425  0.55331130  0.35944312  1  0.482532  -0.003208  0.052049  0.102857  -0.004029  3.948619  -0.002
C  C39  1  0.42318480  0.52550772  0.36412256  1  -0.038409  0.006504  -0.080007  -0.168927  0.003646  3.931635  0.005
C  C40  1  0.97799624  0.44669560  0.64055056  1  0.483923  -0.003213  0.052075  0.102749  -0.004028  3.948517  -0.002
C  C41  1  0.41667399  0.58928142  0.54092730  1  0.007648  -0.000492  -0.085178  -0.120879  -0.000587  3.978777  0.0
C  C42  1  0.58325646  0.41071001  0.45907504  1  0.008598  -0.000492  -0.085331  -0.120934  -0.000588  3.978359  0.0
C  C43  1  0.89627325  0.45741499  0.59517461  1  -0.022345  0.005955  -0.089486  -0.184509  0.003326  3.954418  0.004
C  C44  1  0.10366743  0.54259332  0.40482158  1  -0.021194  0.00595  -0.089316  -0.184202  0.003326  3.954659  0.004
C  C45  1  0.31654432  0.22928530  0.23504449  1  0.798623  0.004443  0.022132  0.04734  0.000981  3.806489  0.009
C  C46  1  0.68347390  0.22928663  0.26494791  1  0.798819  0.004456  0.021916  0.047029  0.000989  3.80625  0.009
C  C47  1  0.31790897  0.86757670  0.23514484  1  0.789476  0.004553  0.021766  0.051246  0.001119  3.806475  0.01
C  C48  1  0.67003464  0.53818480  0.17962631  1  0.566597  -0.003831  0.059074  0.115966  -0.004731  3.92465  -0.003
C  C49  1  0.32999419  0.46181648  0.82037372  1  0.566932  -0.003831  0.059104  0.116071  -0.004731  3.925044  -0.003
C  C50  1  0.67542432  0.60150797  0.00315625  1  -0.076529  -0.000496  -0.088238  -0.127458  -0.000578  3.992284  0.0
C  C51  1  0.59396445  0.51267087  0.04499949  1  -0.042557  -0.000461  -0.006096  0.064136  -0.000573  4.00106  0.0
C  C52  1  0.32462729  0.39846096  0.99684129  1  -0.077025  -0.000495  -0.088136  -0.127191  -0.000578  3.992015  0.0
C  C53  1  0.40608818  0.48730509  0.95500023  1  -0.044897  -0.000463  -0.006242  0.064027  -0.000574  4.001587  0.0
C  C54  1  0.68956703  0.52668007  0.09197946  1  0.038719  -0.005466  0.007781  0.103781  -0.006217  4.003043  -0.004
C  C55  1  0.42322084  0.47449208  0.86412030  1  0.031567  0.006511  -0.080044  -0.169345  0.003647  3.931688  0.005
C  C56  1  0.31048240  0.47330995  0.90802134  1  -0.029597  -0.00547  0.007877  0.104031  -0.006216  4.002479  -0.004
C  C57  1  0.97804347  0.55328412  0.14055369  1  0.482892  -0.003205  0.052125  0.102823  -0.004026  3.948307  -0.002
C  C58  1  0.57681860  0.52549795  0.13587866  1  -0.03777  0.006505  -0.079995  -0.168972  0.003647  3.93146  0.005
C  C59  1  0.02199231  0.44672841  0.85944853  1  0.482084  -0.003206  0.05207  0.102645  -0.004026  3.948405  -0.002
C  C60  1  0.58331878  0.58926949  0.95907479  1  0.007766  -0.000491  -0.085143  -0.121009  -0.000587  3.978695  0.0
C  C61  1  0.41672604  0.41070928  0.04092672  1  0.008308  -0.000492  -0.085336  -0.121226  -0.000588  3.978442  0.0
C  C62  1  0.10371318  0.45744357  0.90482555  1  -0.020462  0.00595  -0.089408  -0.184287  0.003326  3.954209  0.004
C  C63  1  0.89633313  0.54256192  0.09517597  1  -0.021244  0.005951  -0.089336  -0.184217  0.003326  3.954708  0.004
C  C64  1  0.31789708  0.13240220  0.73514424  1  0.789294  0.004554  0.021717  0.051312  0.001118  3.806412  0.01
C  C65  1  0.68345908  0.77072441  0.76495657  1  0.79834  0.004458  0.022224  0.047539  0.000989  3.806269  0.009
C  C66  1  0.31654455  0.77072027  0.73505209  1  0.798313  0.004467  0.02202  0.047258  0.000995  3.806206  0.009
C  C67  1  0.68210262  0.13241754  0.76485260  1  0.789492  0.004554  0.021783  0.051342  0.001119  3.806518  0.01
N  N68  1  0.80145280  0.75139653  0.27144778  1  -1.307125  0.064374  -0.365165  -0.361316  0.037312  3.397962  0.053
N  N69  1  0.86787424  0.45011493  0.68226077  1  -1.220218  0.081913  -0.308488  -0.19812  0.047232  3.542841  0.074
N  N70  1  0.80309281  0.34525679  0.27164465  1  -1.324741  0.06346  -0.365197  -0.361452  0.036811  3.386585  0.053
N  N71  1  0.13211215  0.54989056  0.31773661  1  -1.220842  0.081914  -0.308487  -0.198151  0.047232  3.543409  0.074
N  N72  1  0.19692403  0.34524735  0.22835406  1  -1.32454  0.063468  -0.365391  -0.361764  0.036817  3.387284  0.053
N  N73  1  0.19856030  0.75138716  0.22855047  1  -1.307699  0.064375  -0.365219  -0.361331  0.037311  3.398067  0.053
N  N74  1  0.13212003  0.45012999  0.81773869  1  -1.22038  0.081909  -0.308529  -0.198172  0.04723  3.543046  0.074
N  N75  1  0.86790576  0.54988394  0.18226169  1  -1.220551  0.081905  -0.30849  -0.198186  0.047228  3.543082  0.074
N  N76  1  0.19854803  0.24860756  0.72855145  1  -1.307673  0.064374  -0.36517  -0.361414  0.037311  3.397776  0.053
N  N77  1  0.19692486  0.65474871  0.72835208  1  -1.32418  0.063454  -0.365312  -0.36174  0.036806  3.38661  0.053
N  N78  1  0.80308647  0.65475955  0.77164847  1  -1.324117  0.063456  -0.365489  -0.361995  0.036808  3.387062  0.053
N  N79  1  0.80144825  0.24861833  0.77144732  1  -1.307778  0.064371  -0.365206  -0.361426  0.037311  3.397915  0.053
