# generated using pymatgen
data_KH3C3(N2O3)2
_symmetry_space_group_name_H-M   'P 1'
_cell_length_a   6.93508847
_cell_length_b   9.19639300
_cell_length_c   12.38017223
_cell_angle_alpha   90.00052126
_cell_angle_beta   89.99988824
_cell_angle_gamma   95.91856376
_symmetry_Int_Tables_number   1
_chemical_formula_structural   KH3C3(N2O3)2
_chemical_formula_sum   'K4 H12 C12 N16 O24'
_cell_volume   785.37124945
_cell_formula_units_Z   4
loop_
 _symmetry_equiv_pos_site_id
 _symmetry_equiv_pos_as_xyz
  1  'x, y, z'
loop_
 _atom_site_type_symbol
 _atom_site_label
 _atom_site_symmetry_multiplicity
 _atom_site_fract_x
 _atom_site_fract_y
 _atom_site_fract_z
 _atom_site_occupancy
 _atom_site_hle17_bader_spin_density
 _atom_site_hle17_ddec_charge
 _atom_site_hle17_ddec_spin_density
 _atom_site_hle17_ddec_sum_bond_order
 _atom_site_hle17_magmom
 _atom_site_hse06_10hf_bader_spin_density
 _atom_site_hse06_10hf_ddec_charge
 _atom_site_hse06_10hf_ddec_spin_density
 _atom_site_hse06_10hf_ddec_sum_bond_order
 _atom_site_hse06_10hf_magmom
 _atom_site_hse06_bader_spin_density
 _atom_site_hse06_ddec_charge
 _atom_site_hse06_ddec_spin_density
 _atom_site_hse06_ddec_sum_bond_order
 _atom_site_hse06_magmom
 _atom_site_pbe_bader_spin_density
 _atom_site_pbe_cm5_charge
 _atom_site_pbe_ddec_charge
 _atom_site_pbe_ddec_spin_density
 _atom_site_pbe_ddec_sum_bond_order
 _atom_site_pbe_magmom
K  K0  1  0.38449878  0.39920301  0.36464392  1  0  0.920076  0  0.447314  0  0  0.862947  0  0.644172  0  0  0.877907  0  0.61987  0  0  0.764046  0.85124  0  0.662557  0
K  K1  1  0.11550169  0.60078419  0.86464100  1  0  0.920056  0  0.447356  0  0  0.862941  0  0.64418  0  0  0.877896  0  0.619882  0  0  0.764078  0.851222  0  0.662568  0
K  K2  1  0.61552262  0.60079407  0.63535236  1  0  0.920068  0  0.447357  0  0  0.862953  0  0.644199  0  0  0.877912  0  0.619898  0  0  0.764069  0.851241  0  0.662587  0
K  K3  1  0.88449662  0.39920192  0.13535043  1  0  0.920064  0  0.44732  0  0  0.862943  0  0.644157  0  0  0.8779  0  0.619858  0  0  0.764075  0.851226  0  0.662544  0
H  H4  1  0.21018828  0.90754340  0.06669186  1  0  0.169159  0  0.919007  0  0  0.173345  0  0.982874  0  0  0.177651  0  0.978464  0  0  0.144983  0.170223  0  0.986279  0
H  H5  1  0.28981972  0.09245880  0.56670473  1  0  0.168953  0  0.919194  0  0  0.173254  0  0.982951  0  0  0.177493  0  0.978627  0  0  0.14496  0.170135  0  0.986367  0
H  H6  1  0.78979607  0.09245690  0.93330521  1  0  0.169092  0  0.919111  0  0  0.173351  0  0.982888  0  0  0.177626  0  0.97852  0  0  0.145001  0.170227  0  0.986296  0
H  H7  1  0.71017573  0.90753824  0.43330204  1  0  0.169001  0  0.919209  0  0  0.17329  0  0.982976  0  0  0.177528  0  0.978655  0  0  0.144947  0.170181  0  0.986376  0
H  H8  1  0.40839500  0.47315222  0.11884467  1  0  0.410232  0  0.897478  0  0  0.379601  0  0.96287  0  0  0.391206  0  0.945901  0  0  0.286259  0.371205  0  0.975174  0
H  H9  1  0.09161561  0.52684952  0.61884289  1  0  0.41017  0  0.897541  0  0  0.379574  0  0.962869  0  0  0.391176  0  0.945899  0  0  0.286236  0.371184  0  0.975165  0
H  H10  1  0.59160218  0.52684701  0.88115322  1  0  0.410261  0  0.897451  0  0  0.379659  0  0.962787  0  0  0.391263  0  0.945815  0  0  0.286291  0.371271  0  0.975079  0
H  H11  1  0.90838431  0.47314862  0.38115581  1  0  0.41019  0  0.89752  0  0  0.379594  0  0.96285  0  0  0.391198  0  0.945878  0  0  0.286242  0.371206  0  0.975144  0
H  H12  1  0.44033929  0.30773754  0.10775459  1  0  0.408343  0  0.890483  0  0  0.37589  0  0.959936  0  0  0.385129  0  0.945957  0  0  0.292647  0.369277  0  0.96994  0
H  H13  1  0.05965892  0.69225749  0.60774911  1  0  0.408297  0  0.890541  0  0  0.375831  0  0.960022  0  0  0.385067  0  0.946048  0  0  0.292619  0.369218  0  0.970029  0
H  H14  1  0.55965183  0.69225949  0.89224653  1  0  0.408388  0  0.890464  0  0  0.37592  0  0.959906  0  0  0.385154  0  0.945936  0  0  0.29266  0.369306  0  0.969911  0
H  H15  1  0.94034344  0.30773737  0.39224797  1  0  0.408343  0  0.890472  0  0  0.375889  0  0.959932  0  0  0.385121  0  0.945964  0  0  0.292642  0.36928  0  0.969934  0
C  C16  1  0.24481088  0.78894251  0.31734790  1  0  0.133727  0  3.774623  0  0  0.086835  0  4.067249  0  0  0.087842  0  4.087291  0  0  0.190445  0.086894  0  4.052918  0
C  C17  1  0.25518513  0.21106379  0.81735433  1  0  0.133776  0  3.774457  0  0  0.086824  0  4.067092  0  0  0.087837  0  4.087128  0  0  0.190489  0.086885  0  4.052767  0
C  C18  1  0.75518948  0.21105891  0.68264999  1  0  0.133799  0  3.774461  0  0  0.086937  0  4.06705  0  0  0.087943  0  4.087098  0  0  0.190516  0.086999  0  4.052716  0
C  C19  1  0.74481364  0.78893653  0.18264921  1  0  0.13388  0  3.77443  0  0  0.08687  0  4.067068  0  0  0.087878  0  4.087112  0  0  0.190532  0.086937  0  4.052737  0
C  C20  1  0.20462121  0.90668782  0.24980240  1  0  -0.052136  0  3.751934  0  0  -0.0695  0  4.037748  0  0  -0.077469  0  4.063189  0  0  0.07048  -0.064547  0  4.02072  0
C  C21  1  0.29538838  0.09332096  0.74981285  1  0  -0.052163  0  3.752046  0  0  -0.069546  0  4.037901  0  0  -0.077511  0  4.063326  0  0  0.070484  -0.064599  0  4.020875  0
C  C22  1  0.79538089  0.09331578  0.75019710  1  0  -0.052302  0  3.751841  0  0  -0.069696  0  4.037709  0  0  -0.077667  0  4.063147  0  0  0.070382  -0.06475  0  4.020683  0
C  C23  1  0.70462237  0.90668266  0.25019069  1  0  -0.052145  0  3.752165  0  0  -0.06954  0  4.038044  0  0  -0.077506  0  4.063473  0  0  0.070443  -0.064597  0  4.021025  0
C  C24  1  0.21873013  0.85426306  0.14435054  1  0  -0.083477  0  3.536426  0  0  -0.15244  0  3.830562  0  0  -0.147797  0  3.843174  0  0  0.026307  -0.155659  0  3.822847  0
C  C25  1  0.28127235  0.14574335  0.64435973  1  0  -0.083288  0  3.536842  0  0  -0.152315  0  3.830928  0  0  -0.147613  0  3.843588  0  0  0.02634  -0.15555  0  3.823232  0
C  C26  1  0.78126187  0.14574053  0.85564816  1  0  -0.083333  0  3.536494  0  0  -0.152358  0  3.830647  0  0  -0.147687  0  3.843276  0  0  0.026351  -0.155589  0  3.822944  0
C  C27  1  0.71872383  0.85425916  0.35564462  1  0  -0.083356  0  3.536767  0  0  -0.152362  0  3.830836  0  0  -0.147663  0  3.843502  0  0  0.026351  -0.155591  0  3.823125  0
N  N28  1  0.26064399  0.71316516  0.15399853  1  0  0.37402  0  3.801942  0  0  0.418298  0  4.091311  0  0  0.422206  0  4.113603  0  0  -0.023107  0.414829  0  4.076233  0
N  N29  1  0.23935673  0.28683917  0.65400388  1  0  0.3741  0  3.802052  0  0  0.418358  0  4.091453  0  0  0.422266  0  4.113737  0  0  -0.023113  0.414898  0  4.076381  0
N  N30  1  0.73935393  0.28683953  0.84600016  1  0  0.374044  0  3.802066  0  0  0.41831  0  4.091464  0  0  0.422218  0  4.11375  0  0  -0.023192  0.414843  0  4.076388  0
N  N31  1  0.76063453  0.71315895  0.34599724  1  0  0.373997  0  3.80194  0  0  0.418279  0  4.091326  0  0  0.422188  0  4.113606  0  0  -0.023075  0.414804  0  4.076257  0
N  N32  1  0.27920520  0.67198981  0.25819241  1  0  -0.31886  0  2.855082  0  0  -0.313235  0  3.141639  0  0  -0.315924  0  3.152803  0  0  -0.254919  -0.310568  0  3.133821  0
N  N33  1  0.22079890  0.32802125  0.75819724  1  0  -0.318841  0  2.854948  0  0  -0.313228  0  3.141533  0  0  -0.31592  0  3.152702  0  0  -0.254897  -0.310556  0  3.133689  0
N  N34  1  0.72079993  0.32801489  0.74180628  1  0  -0.318849  0  2.855032  0  0  -0.313236  0  3.141587  0  0  -0.315926  0  3.152753  0  0  -0.254879  -0.310572  0  3.133756  0
N  N35  1  0.77919987  0.67197907  0.24180549  1  0  -0.318869  0  2.854869  0  0  -0.313255  0  3.141459  0  0  -0.315946  0  3.152624  0  0  -0.254919  -0.310591  0  3.133648  0
N  N36  1  0.24351651  0.77249291  0.43173559  1  0  0.462361  0  3.960065  0  0  0.530512  0  4.201131  0  0  0.553854  0  4.203485  0  0  0.049987  0.514753  0  4.198953  0
N  N37  1  0.25647002  0.22752131  0.93174051  1  0  0.462146  0  3.959881  0  0  0.53047  0  4.200766  0  0  0.553817  0  4.203114  0  0  0.049968  0.514717  0  4.198584  0
N  N38  1  0.75648485  0.22750523  0.56826230  1  0  0.462349  0  3.959997  0  0  0.530522  0  4.201059  0  0  0.553859  0  4.203419  0  0  0.050003  0.514767  0  4.198885  0
N  N39  1  0.74352428  0.77247791  0.06826222  1  0  0.462104  0  3.959953  0  0  0.530613  0  4.200635  0  0  0.553948  0  4.202993  0  0  0.050013  0.514852  0  4.198456  0
N  N40  1  0.17312051  0.05330916  0.27457867  1  0  0.525967  0  3.945188  0  0  0.555227  0  4.24231  0  0  0.577497  0  4.250647  0  0  0.040297  0.540142  0  4.236724  0
N  N41  1  0.32688541  0.94669445  0.77457547  1  0  0.525854  0  3.944832  0  0  0.555089  0  4.241985  0  0  0.577358  0  4.250321  0  0  0.040183  0.540016  0  4.23639  0
N  N42  1  0.82688562  0.94669227  0.72542245  1  0  0.526003  0  3.945081  0  0  0.555276  0  4.242193  0  0  0.577546  0  4.250531  0  0  0.040293  0.540204  0  4.236593  0
N  N43  1  0.67312490  0.05330589  0.22542646  1  0  0.525798  0  3.944926  0  0  0.555037  0  4.242075  0  0  0.577306  0  4.250412  0  0  0.040134  0.539958  0  4.236487  0
O  O44  1  0.27863836  0.62187892  0.07641933  1  0  -0.536159  0  1.783007  0  0  -0.516031  0  2.014627  0  0  -0.544529  0  2.017226  0  0  -0.258314  -0.495294  0  2.012437  0
O  O45  1  0.22135937  0.37812229  0.57641884  1  0  -0.536259  0  1.782946  0  0  -0.516113  0  2.014601  0  0  -0.54461  0  2.0172  0  0  -0.258358  -0.495389  0  2.012403  0
O  O46  1  0.72135494  0.37812358  0.92358098  1  0  -0.536187  0  1.782983  0  0  -0.516076  0  2.014653  0  0  -0.544573  0  2.017251  0  0  -0.258333  -0.495344  0  2.012448  0
O  O47  1  0.77862251  0.62187036  0.42357824  1  0  -0.536156  0  1.782912  0  0  -0.516025  0  2.014538  0  0  -0.544519  0  2.017134  0  0  -0.258385  -0.495318  0  2.012398  0
O  O48  1  0.34333005  0.67901658  0.47052709  1  0  -0.409269  0  1.805201  0  0  -0.403237  0  2.016846  0  0  -0.411324  0  2.009315  0  0  -0.197483  -0.397387  0  2.022119  0
O  O49  1  0.15667470  0.32099486  0.97052951  1  0  -0.40909  0  1.805496  0  0  -0.403148  0  2.017092  0  0  -0.41122  0  2.009551  0  0  -0.197415  -0.397305  0  2.02236  0
O  O50  1  0.65667608  0.32098484  0.52947241  1  0  -0.409201  0  1.8052  0  0  -0.403191  0  2.016839  0  0  -0.411279  0  2.009312  0  0  -0.197457  -0.397331  0  2.022079  0
O  O51  1  0.84331990  0.67900655  0.02946918  1  0  -0.409138  0  1.805541  0  0  -0.40324  0  2.017052  0  0  -0.411319  0  2.00952  0  0  -0.197431  -0.397392  0  2.022323  0
O  O52  1  0.14043379  0.84724417  0.48686436  1  0  -0.331206  0  1.803899  0  0  -0.321227  0  2.000437  0  0  -0.330076  0  1.993951  0  0  -0.108288  -0.314958  0  2.005148  0
O  O53  1  0.35955691  0.15275979  0.98687919  1  0  -0.331241  0  1.803419  0  0  -0.321281  0  1.999799  0  0  -0.330162  0  1.993343  0  0  -0.108463  -0.315018  0  2.004475  0
O  O54  1  0.85955992  0.15275068  0.51313110  1  0  -0.331305  0  1.803893  0  0  -0.321289  0  2.000362  0  0  -0.330119  0  1.993861  0  0  -0.108365  -0.315034  0  2.005085  0
O  O55  1  0.64043985  0.84724709  0.01312839  1  0  -0.331149  0  1.803294  0  0  -0.321316  0  1.99967  0  0  -0.330151  0  1.993174  0  0  -0.108437  -0.315052  0  2.004373  0
O  O56  1  0.20963413  0.10157275  0.36723019  1  0  -0.380182  0  1.776002  0  0  -0.36525  0  1.997778  0  0  -0.376486  0  1.992318  0  0  -0.165689  -0.35796  0  2.001961  0
O  O57  1  0.29035209  0.89842648  0.86723963  1  0  -0.380133  0  1.775298  0  0  -0.365145  0  1.996932  0  0  -0.376391  0  1.991488  0  0  -0.165596  -0.35786  0  2.001101  0
O  O58  1  0.79037430  0.89842431  0.63277093  1  0  -0.380175  0  1.775996  0  0  -0.365232  0  1.997765  0  0  -0.37647  0  1.992308  0  0  -0.165662  -0.357948  0  2.00194  0
O  O59  1  0.70965504  0.10157167  0.13276230  1  0  -0.380048  0  1.775246  0  0  -0.365087  0  1.996947  0  0  -0.376331  0  1.991495  0  0  -0.165553  -0.357799  0  2.001116  0
O  O60  1  0.11318037  0.12729173  0.19930132  1  0  -0.38462  0  1.748204  0  0  -0.373898  0  1.968759  0  0  -0.384823  0  1.964332  0  0  -0.142813  -0.366454  0  1.972185  0
O  O61  1  0.38682169  0.87271315  0.69931291  1  0  -0.384563  0  1.748641  0  0  -0.373784  0  1.969153  0  0  -0.384702  0  1.964718  0  0  -0.142768  -0.366349  0  1.972588  0
O  O62  1  0.88682446  0.87271078  0.80070222  1  0  -0.384609  0  1.748101  0  0  -0.37393  0  1.968693  0  0  -0.384858  0  1.964266  0  0  -0.142841  -0.366494  0  1.972119  0
O  O63  1  0.61319180  0.12728938  0.30068901  1  0  -0.38461  0  1.748588  0  0  -0.373849  0  1.969152  0  0  -0.384769  0  1.964719  0  0  -0.1428  -0.366412  0  1.972587  0
O  O64  1  0.48065691  0.39539668  0.15008303  1  0  -0.907941  0  1.837659  0  0  -0.867852  0  2.016185  0  0  -0.884874  0  1.983963  0  0  -0.714824  -0.855726  0  2.039595  0
O  O65  1  0.01934986  0.60459887  0.65008265  1  0  -0.90784  0  1.837806  0  0  -0.867771  0  2.016364  0  0  -0.884785  0  1.984156  0  0  -0.714779  -0.855637  0  2.039767  0
O  O66  1  0.51934171  0.60460254  0.84991324  1  0  -0.908035  0  1.837711  0  0  -0.867944  0  2.016215  0  0  -0.884962  0  1.984008  0  0  -0.714847  -0.855824  0  2.03962  0
O  O67  1  0.98065121  0.39539709  0.34991604  1  0  -0.907883  0  1.837734  0  0  -0.867812  0  2.016235  0  0  -0.884829  0  1.984033  0  0  -0.714751  -0.85568  0  2.039643  0
