# generated using pymatgen
data_GdH3(C3O2)3
_symmetry_space_group_name_H-M   'P 1'
_cell_length_a   10.39564672
_cell_length_b   10.39589267
_cell_length_c   13.98577061
_cell_angle_alpha   89.99992309
_cell_angle_beta   90.00029956
_cell_angle_gamma   90.00006693
_symmetry_Int_Tables_number   1
_chemical_formula_structural   GdH3(C3O2)3
_chemical_formula_sum   'Gd4 H12 C36 O24'
_cell_volume   1511.47058545
_cell_formula_units_Z   4
loop_
 _symmetry_equiv_pos_site_id
 _symmetry_equiv_pos_as_xyz
  1  'x, y, z'
loop_
 _atom_site_type_symbol
 _atom_site_label
 _atom_site_symmetry_multiplicity
 _atom_site_fract_x
 _atom_site_fract_y
 _atom_site_fract_z
 _atom_site_occupancy
 _atom_site_hle17_bader_spin_density
 _atom_site_hle17_ddec_charge
 _atom_site_hle17_ddec_spin_density
 _atom_site_hle17_ddec_sum_bond_order
 _atom_site_hle17_magmom
 _atom_site_hse06_10hf_bader_spin_density
 _atom_site_hse06_10hf_ddec_charge
 _atom_site_hse06_10hf_ddec_spin_density
 _atom_site_hse06_10hf_ddec_sum_bond_order
 _atom_site_hse06_10hf_magmom
 _atom_site_hse06_bader_spin_density
 _atom_site_hse06_ddec_charge
 _atom_site_hse06_ddec_spin_density
 _atom_site_hse06_ddec_sum_bond_order
 _atom_site_hse06_magmom
 _atom_site_pbe_bader_spin_density
 _atom_site_pbe_cm5_charge
 _atom_site_pbe_ddec_charge
 _atom_site_pbe_ddec_spin_density
 _atom_site_pbe_ddec_sum_bond_order
 _atom_site_pbe_magmom
Gd  Gd0  1  0.87791442  0.87791686  0.62498864  1  0  2.237722  0  1.782383  0  0  2.146557  0  2.153597  0  0  2.207742  0  2.085765  0  0  1.522744  2.09581  0  2.212815  0
Gd  Gd1  1  0.12208623  0.12208567  0.12498864  1  0  2.23776  0  1.782319  0  0  2.14661  0  2.153503  0  0  2.20778  0  2.085698  0  0  1.522782  2.095851  0  2.212715  0
Gd  Gd2  1  0.12208562  0.87791664  0.37501310  1  0  2.237683  0  1.782449  0  0  2.146616  0  2.15351  0  0  2.207744  0  2.085768  0  0  1.522767  2.095847  0  2.212744  0
Gd  Gd3  1  0.87791582  0.12208255  0.87501314  1  0  2.237768  0  1.782298  0  0  2.146685  0  2.153386  0  0  2.207831  0  2.085617  0  0  1.522797  2.095909  0  2.212648  0
H  H4  1  0.93031984  0.47212969  0.64520521  1  0  0.127322  0  0.919944  0  0  0.135286  0  0.981133  0  0  0.139842  0  0.97651  0  0  0.121598  0.13191  0  0.984607  0
H  H5  1  0.06967806  0.52786992  0.14520460  1  0  0.127325  0  0.919946  0  0  0.135278  0  0.98114  0  0  0.139834  0  0.976516  0  0  0.121604  0.131899  0  0.984621  0
H  H6  1  0.52786904  0.93030390  0.39520010  1  0  0.127286  0  0.919965  0  0  0.135215  0  0.981201  0  0  0.139772  0  0.976576  0  0  0.121597  0.131841  0  0.98468  0
H  H7  1  0.47213543  0.06969526  0.89520004  1  0  0.127309  0  0.920056  0  0  0.135244  0  0.981276  0  0  0.1398  0  0.976654  0  0  0.121618  0.131866  0  0.984749  0
H  H8  1  0.06967203  0.47213137  0.35479622  1  0  0.127347  0  0.919938  0  0  0.135319  0  0.981107  0  0  0.139875  0  0.976482  0  0  0.121637  0.131945  0  0.984584  0
H  H9  1  0.93032638  0.52786593  0.85479535  1  0  0.127358  0  0.919948  0  0  0.135304  0  0.981149  0  0  0.13986  0  0.976526  0  0  0.121639  0.131924  0  0.984627  0
H  H10  1  0.47213299  0.93030368  0.60480231  1  0  0.127203  0  0.920051  0  0  0.135145  0  0.981279  0  0  0.139704  0  0.976653  0  0  0.121561  0.131769  0  0.984758  0
H  H11  1  0.52786175  0.06969408  0.10480108  1  0  0.127328  0  0.920001  0  0  0.135239  0  0.981246  0  0  0.139794  0  0.976624  0  0  0.121627  0.131858  0  0.984719  0
H  H12  1  0.99999925  0.11351034  0.50000008  1  0  0.09599  0  0.99005  0  0  0.096542  0  1.07166  0  0  0.1009  0  1.067462  0  0  0.114879  0.09361  0  1.07416  0
H  H13  1  0.00000307  0.88648862  0.99999737  1  0  0.096007  0  0.990052  0  0  0.096592  0  1.07163  0  0  0.100936  0  1.067444  0  0  0.114899  0.093659  0  1.074133  0
H  H14  1  0.88649310  0.00000029  0.24999724  1  0  0.096131  0  0.989972  0  0  0.09659  0  1.071699  0  0  0.100944  0  1.067514  0  0  0.114922  0.093659  0  1.074193  0
H  H15  1  0.11350591  0.00000035  0.75000108  1  0  0.09615  0  0.989873  0  0  0.096606  0  1.0716  0  0  0.100962  0  1.067413  0  0  0.114962  0.093675  0  1.074106  0
C  C16  1  0.99999378  0.62978732  0.49999982  1  0  0.749256  0  3.826171  0  0  0.703867  0  4.116959  0  0  0.740113  0  4.106463  0  0  0.250403  0.679102  0  4.123143  0
C  C17  1  0.00000503  0.37021159  0.00000125  1  0  0.74918  0  3.826207  0  0  0.703769  0  4.117033  0  0  0.74001  0  4.106541  0  0  0.250364  0.679009  0  4.123209  0
C  C18  1  0.37020199  0.99999999  0.24999910  1  0  0.749207  0  3.826254  0  0  0.703818  0  4.117028  0  0  0.740061  0  4.106538  0  0  0.250508  0.679057  0  4.123208  0
C  C19  1  0.62979799  0.00000065  0.75000280  1  0  0.749384  0  3.825966  0  0  0.703974  0  4.116772  0  0  0.740218  0  4.106277  0  0  0.25052  0.679223  0  4.122943  0
C  C20  1  0.92817946  0.21095921  0.67005059  1  0  0.719091  0  3.858007  0  0  0.67669  0  4.144455  0  0  0.712271  0  4.135259  0  0  0.235724  0.652418  0  4.149542  0
C  C21  1  0.07181862  0.78904324  0.17004758  1  0  0.719179  0  3.857701  0  0  0.67674  0  4.144214  0  0  0.712332  0  4.135  0  0  0.23574  0.65247  0  4.149301  0
C  C22  1  0.78902845  0.92817146  0.42005015  1  0  0.719246  0  3.857951  0  0  0.676646  0  4.144682  0  0  0.712283  0  4.135405  0  0  0.235625  0.652375  0  4.14977  0
C  C23  1  0.21097716  0.07183247  0.92005407  1  0  0.719248  0  3.858149  0  0  0.676664  0  4.14484  0  0  0.712303  0  4.13556  0  0  0.235678  0.652399  0  4.149911  0
C  C24  1  0.07181884  0.21096191  0.32995039  1  0  0.719081  0  3.857924  0  0  0.676638  0  4.144458  0  0  0.71222  0  4.135261  0  0  0.235719  0.652364  0  4.149549  0
C  C25  1  0.92818613  0.78904218  0.82994996  1  0  0.719249  0  3.857893  0  0  0.676725  0  4.144535  0  0  0.712319  0  4.135325  0  0  0.235786  0.652463  0  4.14961  0
C  C26  1  0.21097358  0.92817097  0.57995012  1  0  0.719263  0  3.857922  0  0  0.676639  0  4.144701  0  0  0.712276  0  4.135419  0  0  0.235635  0.652367  0  4.149785  0
C  C27  1  0.78902675  0.07183260  0.07994704  1  0  0.719256  0  3.858023  0  0  0.676651  0  4.144766  0  0  0.71229  0  4.135483  0  0  0.235664  0.65239  0  4.149832  0
C  C28  1  0.99999370  0.48592762  0.49999989  1  0  -0.073242  0  3.730059  0  0  -0.046526  0  3.964823  0  0  -0.057859  0  3.98758  0  0  -0.005579  -0.039573  0  3.949841  0
C  C29  1  0.00000381  0.51407231  0.99999899  1  0  -0.07323  0  3.73013  0  0  -0.046518  0  3.964886  0  0  -0.057848  0  3.987642  0  0  -0.005598  -0.039571  0  3.949903  0
C  C30  1  0.51406472  0.99999789  0.25000031  1  0  -0.073199  0  3.730048  0  0  -0.046445  0  3.964749  0  0  -0.057771  0  3.9875  0  0  -0.005562  -0.039492  0  3.949763  0
C  C31  1  0.48593547  0.99999839  0.75000059  1  0  -0.07312  0  3.729927  0  0  -0.046371  0  3.96467  0  0  -0.057698  0  3.98742  0  0  -0.005534  -0.03942  0  3.949682  0
C  C32  1  0.96083910  0.41915596  0.58187235  1  0  -0.023994  0  3.631089  0  0  -0.064177  0  3.874276  0  0  -0.058232  0  3.890533  0  0  -0.051631  -0.06767  0  3.863377  0
C  C33  1  0.03915933  0.58084281  0.08187229  1  0  -0.023998  0  3.631037  0  0  -0.064147  0  3.874206  0  0  -0.058204  0  3.890462  0  0  -0.051644  -0.067641  0  3.863313  0
C  C34  1  0.58084294  0.96083143  0.33186653  1  0  -0.023804  0  3.631019  0  0  -0.063984  0  3.8742  0  0  -0.058042  0  3.890459  0  0  -0.051592  -0.067475  0  3.863313  0
C  C35  1  0.41915917  0.03916784  0.83186987  1  0  -0.023859  0  3.631121  0  0  -0.064046  0  3.874305  0  0  -0.0581  0  3.890566  0  0  -0.051643  -0.06753  0  3.863396  0
C  C36  1  0.03915176  0.41915653  0.41812699  1  0  -0.023955  0  3.630962  0  0  -0.064112  0  3.874118  0  0  -0.058167  0  3.890374  0  0  -0.051651  -0.067609  0  3.863229  0
C  C37  1  0.96084807  0.58084162  0.91812618  1  0  -0.023982  0  3.631054  0  0  -0.064118  0  3.874212  0  0  -0.05817  0  3.89047  0  0  -0.051665  -0.067611  0  3.863312  0
C  C38  1  0.41915817  0.96083295  0.66813513  1  0  -0.023702  0  3.631124  0  0  -0.063889  0  3.874297  0  0  -0.057946  0  3.890558  0  0  -0.051524  -0.067378  0  3.863406  0
C  C39  1  0.58083990  0.03916662  0.16813128  1  0  -0.023799  0  3.631182  0  0  -0.063961  0  3.874356  0  0  -0.058017  0  3.890616  0  0  -0.051602  -0.067448  0  3.86345  0
C  C40  1  0.96274559  0.28451047  0.58233932  1  0  -0.077617  0  3.750776  0  0  -0.049536  0  3.981491  0  0  -0.061734  0  4.005591  0  0  -0.011172  -0.042  0  3.965634  0
C  C41  1  0.03725188  0.71548925  0.08233840  1  0  -0.077594  0  3.750628  0  0  -0.049525  0  3.981371  0  0  -0.061723  0  4.005459  0  0  -0.011147  -0.04199  0  3.965519  0
C  C42  1  0.71548391  0.96273995  0.33233727  1  0  -0.077842  0  3.750864  0  0  -0.049646  0  3.981595  0  0  -0.061862  0  4.00568  0  0  -0.011202  -0.042118  0  3.965755  0
C  C43  1  0.28451723  0.03726028  0.83233794  1  0  -0.07789  0  3.751106  0  0  -0.049684  0  3.981784  0  0  -0.061911  0  4.005891  0  0  -0.01123  -0.042148  0  3.965927  0
C  C44  1  0.03724799  0.28451105  0.41766086  1  0  -0.077557  0  3.750795  0  0  -0.049491  0  3.981532  0  0  -0.061691  0  4.005634  0  0  -0.011133  -0.041956  0  3.965681  0
C  C45  1  0.96275375  0.71548903  0.91765921  1  0  -0.077638  0  3.750983  0  0  -0.049532  0  3.981705  0  0  -0.061744  0  4.005822  0  0  -0.011142  -0.041994  0  3.965841  0
C  C46  1  0.28451719  0.96274132  0.66766296  1  0  -0.077881  0  3.750911  0  0  -0.0497  0  3.981674  0  0  -0.061919  0  4.005762  0  0  -0.011224  -0.042167  0  3.965829  0
C  C47  1  0.71548183  0.03725921  0.16766178  1  0  -0.077917  0  3.751093  0  0  -0.04971  0  3.981807  0  0  -0.061932  0  4.005904  0  0  -0.011246  -0.042176  0  3.965947  0
C  C48  1  0.99999739  0.21807664  0.50000003  1  0  -0.037058  0  3.669328  0  0  -0.07771  0  3.915677  0  0  -0.072749  0  3.934281  0  0  -0.060341  -0.080477  0  3.903064  0
C  C49  1  0.00000397  0.78192233  0.99999885  1  0  -0.037104  0  3.669408  0  0  -0.077781  0  3.915751  0  0  -0.07281  0  3.93437  0  0  -0.060389  -0.080556  0  3.903145  0
C  C50  1  0.78193011  0.00000023  0.24999776  1  0  -0.037019  0  3.669067  0  0  -0.07769  0  3.915508  0  0  -0.07273  0  3.934109  0  0  -0.060374  -0.080461  0  3.902895  0
C  C51  1  0.21806988  0.00000137  0.75000200  1  0  -0.037053  0  3.668982  0  0  -0.077699  0  3.915406  0  0  -0.072737  0  3.934008  0  0  -0.060405  -0.080471  0  3.902803  0
O  O52  1  0.91475254  0.68598057  0.55016419  1  0  -0.732282  0  2.019961  0  0  -0.691956  0  2.26177  0  0  -0.71923  0  2.248156  0  0  -0.405785  -0.671675  0  2.27087  0
O  O53  1  0.08524373  0.31402114  0.05016457  1  0  -0.73223  0  2.020097  0  0  -0.6919  0  2.261922  0  0  -0.719168  0  2.248308  0  0  -0.405732  -0.67163  0  2.271023  0
O  O54  1  0.31400803  0.91475349  0.30016452  1  0  -0.732355  0  2.020048  0  0  -0.692048  0  2.261853  0  0  -0.719314  0  2.248246  0  0  -0.405898  -0.671772  0  2.270955  0
O  O55  1  0.68599385  0.08523911  0.80015956  1  0  -0.732429  0  2.020161  0  0  -0.692115  0  2.26199  0  0  -0.719379  0  2.248377  0  0  -0.405901  -0.671837  0  2.27109  0
O  O56  1  0.08523381  0.68598210  0.44983775  1  0  -0.732345  0  2.020201  0  0  -0.692044  0  2.262015  0  0  -0.719307  0  2.248405  0  0  -0.405829  -0.67176  0  2.271115  0
O  O57  1  0.91476335  0.31401696  0.94983702  1  0  -0.732342  0  2.020105  0  0  -0.69203  0  2.261936  0  0  -0.719294  0  2.248324  0  0  -0.405861  -0.671752  0  2.271037  0
O  O58  1  0.68599014  0.91475430  0.69983718  1  0  -0.73254  0  2.019951  0  0  -0.692213  0  2.261787  0  0  -0.719489  0  2.248173  0  0  -0.405904  -0.67194  0  2.27089  0
O  O59  1  0.31400719  0.08523847  0.19984226  1  0  -0.732395  0  2.020298  0  0  -0.692082  0  2.262127  0  0  -0.719351  0  2.248514  0  0  -0.405915  -0.671806  0  2.271229  0
O  O60  1  0.91830930  0.26926870  0.74962928  1  0  -0.685082  0  1.943636  0  0  -0.647058  0  2.170681  0  0  -0.672539  0  2.158662  0  0  -0.378893  -0.628404  0  2.178706  0
O  O61  1  0.08168357  0.73073457  0.24962994  1  0  -0.685163  0  1.943569  0  0  -0.647127  0  2.170637  0  0  -0.672609  0  2.158609  0  0  -0.378917  -0.628479  0  2.178664  0
O  O62  1  0.73068892  0.91828475  0.49962520  1  0  -0.685269  0  1.943148  0  0  -0.647147  0  2.170256  0  0  -0.672661  0  2.158217  0  0  -0.37897  -0.628497  0  2.178281  0
O  O63  1  0.26931437  0.08171999  0.99962506  1  0  -0.685262  0  1.943407  0  0  -0.647154  0  2.170509  0  0  -0.672663  0  2.158465  0  0  -0.378961  -0.628508  0  2.178528  0
O  O64  1  0.08168908  0.26927155  0.25037236  1  0  -0.685077  0  1.943712  0  0  -0.647028  0  2.170784  0  0  -0.672512  0  2.158761  0  0  -0.378881  -0.628379  0  2.17881  0
O  O65  1  0.91832303  0.73073172  0.75036766  1  0  -0.685191  0  1.943565  0  0  -0.647112  0  2.170675  0  0  -0.672601  0  2.158646  0  0  -0.378967  -0.62847  0  2.1787  0
O  O66  1  0.26931214  0.91828352  0.50037578  1  0  -0.685263  0  1.943214  0  0  -0.647152  0  2.170328  0  0  -0.672656  0  2.158289  0  0  -0.378958  -0.628497  0  2.178349  0
O  O67  1  0.73068571  0.08171924  0.00037319  1  0  -0.685305  0  1.943248  0  0  -0.647199  0  2.170362  0  0  -0.672705  0  2.158317  0  0  -0.378989  -0.62855  0  2.178378  0
O  O68  1  0.91193314  0.08891197  0.66391581  1  0  -0.813733  0  2.143501  0  0  -0.770601  0  2.405713  0  0  -0.79943  0  2.392606  0  0  -0.420898  -0.748788  0  2.414134  0
O  O69  1  0.08806874  0.91108665  0.16390989  1  0  -0.813735  0  2.143465  0  0  -0.77059  0  2.405692  0  0  -0.799415  0  2.392574  0  0  -0.420915  -0.748776  0  2.414106  0
O  O70  1  0.91107469  0.91194012  0.41394133  1  0  -0.813665  0  2.143843  0  0  -0.770464  0  2.406092  0  0  -0.799299  0  2.392965  0  0  -0.420678  -0.748643  0  2.414502  0
O  O71  1  0.08892702  0.08806381  0.91394333  1  0  -0.813687  0  2.143744  0  0  -0.770485  0  2.405979  0  0  -0.799323  0  2.392843  0  0  -0.420718  -0.748673  0  2.414393  0
O  O72  1  0.08806790  0.08891275  0.33608529  1  0  -0.813778  0  2.143451  0  0  -0.770628  0  2.405655  0  0  -0.799447  0  2.392548  0  0  -0.420908  -0.748809  0  2.41407  0
O  O73  1  0.91193327  0.91108556  0.83608468  1  0  -0.813743  0  2.143497  0  0  -0.770576  0  2.405766  0  0  -0.799401  0  2.392652  0  0  -0.420875  -0.74877  0  2.41419  0
O  O74  1  0.08892635  0.91193756  0.58605895  1  0  -0.81372  0  2.143819  0  0  -0.770476  0  2.406053  0  0  -0.799321  0  2.392922  0  0  -0.42072  -0.748663  0  2.414469  0
O  O75  1  0.91107210  0.08806504  0.08605634  1  0  -0.813685  0  2.143881  0  0  -0.770464  0  2.406123  0  0  -0.799306  0  2.39299  0  0  -0.4207  -0.748659  0  2.414535  0
