# generated using pymatgen
data_Zr3H2(C3O4)4
_symmetry_space_group_name_H-M   'P 1'
_cell_length_a   13.07758557
_cell_length_b   13.07551779
_cell_length_c   13.07759428
_cell_angle_alpha   59.99895100
_cell_angle_beta   89.99911940
_cell_angle_gamma   120.00642302
_symmetry_Int_Tables_number   1
_chemical_formula_structural   Zr3H2(C3O4)4
_chemical_formula_sum   'Zr6 H4 C24 O32'
_cell_volume   1581.05483172
_cell_formula_units_Z   2
loop_
 _symmetry_equiv_pos_site_id
 _symmetry_equiv_pos_as_xyz
  1  'x, y, z'
loop_
 _atom_site_type_symbol
 _atom_site_label
 _atom_site_symmetry_multiplicity
 _atom_site_fract_x
 _atom_site_fract_y
 _atom_site_fract_z
 _atom_site_occupancy
 _atom_site_pbe_bader_charge
 _atom_site_pbe_bader_spin_density
 _atom_site_pbe_cm5_charge
 _atom_site_pbe_ddec_charge
 _atom_site_pbe_ddec_spin_density
 _atom_site_pbe_ddec_sum_bond_order
 _atom_site_pbe_magmom
Zr  Zr0  1  0.86089735  0.72441089  0.13683364  1  2.63955  0  1.630672  2.376259  0  2.737008  0
Zr  Zr1  1  0.13193275  0.99545064  0.86576684  1  2.636617  0  1.631108  2.376185  0  2.736656  0
Zr  Zr2  1  0.86089468  0.99550722  0.13685177  1  2.637885  0  1.630979  2.375913  0  2.736576  0
Zr  Zr3  1  0.86089567  0.99551371  0.86575576  1  2.631754  0  1.631252  2.375994  0  2.735947  0
Zr  Zr4  1  0.13197018  0.99553671  0.13682062  1  2.635597  0  1.631198  2.376699  0  2.735287  0
Zr  Zr5  1  0.13201537  0.26663592  0.86572504  1  2.640304  0  1.630225  2.376009  0  2.735848  0
H  H6  1  0.88973374  0.78215875  0.89460956  1  0.594251  0  0.333789  0.42508  0  0.855629  0
H  H7  1  0.88970130  0.78208591  0.32135395  1  0.620448  0  0.333393  0.42462  0  0.85777  0
H  H8  1  0.88973790  0.20894528  0.89454719  1  0.607455  0  0.3333  0.424868  0  0.857431  0
H  H9  1  0.31658600  0.20898162  0.89453011  1  0.593579  0  0.333248  0.424491  0  0.857774  0
C  C10  1  0.64863407  0.65234531  0.33952167  1  1.639062  0  0.252508  0.710343  0  4.156491  0
C  C11  1  0.00102717  0.65248340  0.00596452  1  1.671943  0  0.253186  0.712626  0  4.153516  0
C  C12  1  0.64889848  0.65247427  0.00604487  1  1.673608  0  0.252596  0.710129  0  4.156325  0
C  C13  1  0.00110579  0.65249822  0.33950970  1  1.674313  0  0.252474  0.711215  0  4.154911  0
C  C14  1  0.33454201  0.33829792  0.65359897  1  1.693126  0  0.252429  0.710384  0  4.157861  0
C  C15  1  0.00131036  0.33858085  0.00593267  1  1.669514  0  0.252126  0.712313  0  4.153342  0
C  C16  1  0.00112812  0.00480259  0.65363461  1  1.665256  0  0.252269  0.709997  0  4.156669  0
C  C17  1  0.33453020  0.98580051  0.00616164  1  1.694383  0  0.253442  0.712299  0  4.155346  0
C  C18  1  0.00114878  0.00495902  0.33951645  1  1.686069  0  0.252918  0.711504  0  4.154653  0
C  C19  1  0.64862590  0.98584170  0.00632938  1  1.659313  0  0.252025  0.710282  0  4.154178  0
C  C20  1  0.00115098  0.33841018  0.65354724  1  1.674223  0  0.252093  0.710232  0  4.155509  0
C  C21  1  0.33468436  0.33850912  0.00605877  1  1.65838  0  0.2524  0.711354  0  4.154467  0
C  C22  1  0.00267726  0.54185066  0.00764824  1  -0.136674  0  -0.008416  -0.101657  0  3.88873  0
C  C23  1  0.00285989  0.44914312  0.00758718  1  -0.024166  0  -0.00757  -0.101589  0  3.889669  0
C  C24  1  0.53636613  0.54172188  0.44847515  1  0.045662  0  -0.00827  -0.100976  0  3.888784  0
C  C25  1  0.44353319  0.44890845  0.54131022  1  -0.212871  0  -0.008226  -0.101273  0  3.888292  0
C  C26  1  0.53664235  0.54191166  0.00766000  1  -0.222823  0  -0.008516  -0.100519  0  3.887923  0
C  C27  1  0.44373631  0.44912764  0.00768067  1  0.074357  0  -0.007833  -0.10195  0  3.886245  0
C  C28  1  0.00278020  0.54187121  0.44847651  1  -0.232271  0  -0.008573  -0.101953  0  3.887735  0
C  C29  1  0.00279605  0.44902948  0.54129156  1  0.051388  0  -0.008247  -0.100786  0  3.887939  0
C  C30  1  0.44347839  0.98241471  0.00791746  1  0.03641  0  -0.00859  -0.102403  0  3.887384  0
C  C31  1  0.53628451  0.98236882  0.00805404  1  -0.209877  0  -0.008202  -0.100704  0  3.888193  0
C  C32  1  0.00279843  0.00819371  0.54134241  1  -0.204934  0  -0.008083  -0.100399  0  3.887929  0
C  C33  1  0.00282383  0.00828278  0.44847386  1  0.027645  0  -0.008204  -0.102328  0  3.887556  0
O  O34  1  0.69339175  0.78313645  0.29725763  1  -1.14405  0  -0.338941  -0.5969  0  2.213441  0
O  O35  1  0.08703213  0.78324246  0.91743178  1  -1.149674  0  -0.339636  -0.597782  0  2.213634  0
O  O36  1  0.69361673  0.60866769  0.09204429  1  -1.144953  0  -0.339183  -0.596618  0  2.215955  0
O  O37  1  0.91260322  0.60868982  0.29724516  1  -1.145543  0  -0.338575  -0.596675  0  2.213512  0
O  O38  1  0.08705160  0.78327993  0.29731195  1  -1.147108  0  -0.339227  -0.59717  0  2.21529  0
O  O39  1  0.69361919  0.78325577  0.91757789  1  -1.152299  0  -0.339291  -0.596669  0  2.213915  0
O  O40  1  0.91255238  0.60872194  0.09197557  1  -1.153247  0  -0.339214  -0.597278  0  2.213895  0
O  O41  1  0.69340512  0.60859580  0.29727504  1  -1.149133  0  -0.33921  -0.596742  0  2.213476  0
O  O42  1  0.05247724  0.88344228  0.05732346  1  -1.19883  0  -0.788211  -1.157748  0  2.128744  0
O  O43  1  0.82835647  0.88347206  0.05732354  1  -1.200022  0  -0.788124  -1.157008  0  2.127554  0
O  O44  1  0.92002999  0.84274240  0.92489449  1  -1.221738  0  -0.691297  -1.079384  0  2.359848  0
O  O45  1  0.91999545  0.84270443  0.23049098  1  -1.248593  0  -0.690941  -1.079178  0  2.3612  0
O  O46  1  0.29226678  0.20752048  0.69834474  1  -1.143269  0  -0.338978  -0.596807  0  2.214815  0
O  O47  1  0.91283178  0.20777969  0.09199467  1  -1.146869  0  -0.338958  -0.597385  0  2.212931  0
O  O48  1  0.91268911  0.00239804  0.69835655  1  -1.14934  0  -0.338989  -0.596656  0  2.213514  0
O  O49  1  0.29227659  0.98833913  0.09211217  1  -1.148427  0  -0.339471  -0.597694  0  2.215379  0
O  O50  1  0.08713300  0.00243215  0.29728729  1  -1.150069  0  -0.339291  -0.597086  0  2.213501  0
O  O51  1  0.69335784  0.98830552  0.91785022  1  -1.147277  0  -0.338327  -0.596556  0  2.211994  0
O  O52  1  0.08715037  0.38220158  0.69829147  1  -1.14364  0  -0.338664  -0.596576  0  2.213813  0
O  O53  1  0.29243476  0.38230966  0.91756899  1  -1.149854  0  -0.338657  -0.5966  0  2.213611  0
O  O54  1  0.91266116  0.20765124  0.69829763  1  -1.150282  0  -0.338699  -0.596597  0  2.213652  0
O  O55  1  0.29239308  0.20773382  0.09208992  1  -1.15554  0  -0.33913  -0.59729  0  2.214441  0
O  O56  1  0.08706465  0.00212854  0.69844206  1  -1.146459  0  -0.338731  -0.596767  0  2.214564  0
O  O57  1  0.69350590  0.98858469  0.09221870  1  -1.147248  0  -0.33882  -0.596962  0  2.213378  0
O  O58  1  0.91264352  0.00247218  0.29728052  1  -1.145582  0  -0.338589  -0.596581  0  2.21424  0
O  O59  1  0.29234067  0.98834297  0.91761875  1  -1.150882  0  -0.338505  -0.596911  0  2.213749  0
O  O60  1  0.29236004  0.38210319  0.69830864  1  -1.149552  0  -0.339083  -0.596383  0  2.215393  0
O  O61  1  0.08732896  0.38239198  0.91740897  1  -1.150644  0  -0.339308  -0.597707  0  2.212676  0
O  O62  1  0.05249437  0.10763741  0.05727866  1  -1.201011  0  -0.787855  -1.157236  0  2.127799  0
O  O63  1  0.05249156  0.10762383  0.83314098  1  -1.201155  0  -0.787976  -1.157188  0  2.127339  0
O  O64  1  0.92005684  0.14839738  0.92483895  1  -1.233765  0  -0.69056  -1.079215  0  2.360677  0
O  O65  1  0.22571994  0.14840842  0.92484346  1  -1.222425  0  -0.690461  -1.078915  0  2.359995  0
