# generated using pymatgen
data_SmH15C12S2O15
_symmetry_space_group_name_H-M   'P 1'
_cell_length_a   6.96799054
_cell_length_b   10.79223316
_cell_length_c   12.17646503
_cell_angle_alpha   96.03454519
_cell_angle_beta   103.01915255
_cell_angle_gamma   89.64489578
_symmetry_Int_Tables_number   1
_chemical_formula_structural   SmH15C12S2O15
_chemical_formula_sum   'Sm2 H30 C24 S4 O30'
_cell_volume   887.04674240
_cell_formula_units_Z   2
loop_
 _symmetry_equiv_pos_site_id
 _symmetry_equiv_pos_as_xyz
  1  'x, y, z'
loop_
 _atom_site_type_symbol
 _atom_site_label
 _atom_site_symmetry_multiplicity
 _atom_site_fract_x
 _atom_site_fract_y
 _atom_site_fract_z
 _atom_site_occupancy
 _atom_site_hle17_bader_spin_density
 _atom_site_hle17_ddec_charge
 _atom_site_hle17_ddec_spin_density
 _atom_site_hle17_ddec_sum_bond_order
 _atom_site_hle17_magmom
 _atom_site_hse06_10hf_bader_spin_density
 _atom_site_hse06_10hf_ddec_charge
 _atom_site_hse06_10hf_ddec_spin_density
 _atom_site_hse06_10hf_ddec_sum_bond_order
 _atom_site_hse06_10hf_magmom
 _atom_site_hse06_bader_spin_density
 _atom_site_hse06_ddec_charge
 _atom_site_hse06_ddec_spin_density
 _atom_site_hse06_ddec_sum_bond_order
 _atom_site_hse06_magmom
 _atom_site_pbe_bader_spin_density
 _atom_site_pbe_cm5_charge
 _atom_site_pbe_ddec_charge
 _atom_site_pbe_ddec_spin_density
 _atom_site_pbe_ddec_sum_bond_order
 _atom_site_pbe_magmom
Sm  Sm0  1  0.28706595  0.40290575  0.21358045  1  0  2.38623  0  1.495667  0  0  2.30167  0  1.831353  0  0  2.339172  0  1.791593  0  0  1.499513  2.274502  0  1.859355  0
Sm  Sm1  1  0.71293514  0.59709271  0.78642080  1  0  2.386236  0  1.495702  0  0  2.301671  0  1.831395  0  0  2.339173  0  1.791635  0  0  1.499521  2.27451  0  1.859395  0
H  H2  1  0.53473673  0.77847939  0.26463576  1  0  0.423545  0  0.846753  0  0  0.391908  0  0.92569  0  0  0.403697  0  0.912404  0  0  0.318699  0.383564  0  0.935106  0
H  H3  1  0.46526730  0.22151907  0.73536588  1  0  0.423507  0  0.846807  0  0  0.391869  0  0.925744  0  0  0.403657  0  0.912461  0  0  0.318687  0.383522  0  0.935167  0
H  H4  1  0.51755916  0.15729539  0.26973142  1  0  0.450503  0  0.840004  0  0  0.423873  0  0.895735  0  0  0.434003  0  0.880951  0  0  0.304985  0.416565  0  0.90641  0
H  H5  1  0.48244202  0.84270587  0.73026929  1  0  0.450419  0  0.840129  0  0  0.423783  0  0.895874  0  0  0.433912  0  0.881092  0  0  0.304935  0.416475  0  0.90655  0
H  H6  1  0.65888691  0.27387321  0.32712299  1  0  0.449323  0  0.843589  0  0  0.420794  0  0.90202  0  0  0.430717  0  0.887584  0  0  0.303482  0.413742  0  0.912292  0
H  H7  1  0.34111572  0.72612711  0.67287781  1  0  0.449364  0  0.843542  0  0  0.420836  0  0.901971  0  0  0.430758  0  0.887535  0  0  0.303496  0.413788  0  0.912236  0
H  H8  1  0.71917731  0.41398907  0.16640544  1  0  0.447411  0  0.845201  0  0  0.419235  0  0.904066  0  0  0.42979  0  0.888451  0  0  0.303562  0.41175  0  0.915192  0
H  H9  1  0.28082678  0.58601125  0.83359720  1  0  0.447434  0  0.845168  0  0  0.419258  0  0.904034  0  0  0.429813  0  0.888419  0  0  0.303587  0.411773  0  0.915159  0
H  H10  1  0.62886856  0.55144716  0.16807028  1  0  0.438316  0  0.855957  0  0  0.408789  0  0.916491  0  0  0.418932  0  0.901515  0  0  0.302827  0.401529  0  0.927213  0
H  H11  1  0.37113406  0.44855316  0.83193134  1  0  0.438323  0  0.85595  0  0  0.408798  0  0.91648  0  0  0.418941  0  0.901504  0  0  0.30283  0.401539  0  0.927201  0
H  H12  1  0.01212954  0.57557226  0.33968018  1  0  0.450183  0  0.841968  0  0  0.419391  0  0.904532  0  0  0.429782  0  0.889238  0  0  0.304985  0.412126  0  0.915197  0
H  H13  1  0.98787162  0.42442806  0.66032044  1  0  0.450186  0  0.841971  0  0  0.419397  0  0.904526  0  0  0.429787  0  0.889233  0  0  0.304993  0.412128  0  0.915195  0
H  H14  1  0.06646026  0.64820426  0.24610569  1  0  0.430027  0  0.871995  0  0  0.402179  0  0.931418  0  0  0.411625  0  0.917471  0  0  0.303614  0.395537  0  0.941237  0
H  H15  1  0.93354381  0.35179512  0.75389522  1  0  0.43  0  0.872027  0  0  0.40215  0  0.931454  0  0  0.411596  0  0.917506  0  0  0.303607  0.395504  0  0.941277  0
H  H16  1  0.14448030  0.64511772  0.09751418  1  0  0.440068  0  0.857678  0  0  0.409819  0  0.91981  0  0  0.419775  0  0.905228  0  0  0.307491  0.40275  0  0.93022  0
H  H17  1  0.85552088  0.35488354  0.90248735  1  0  0.440073  0  0.857678  0  0  0.409819  0  0.919817  0  0  0.419776  0  0.905234  0  0  0.307492  0.402749  0  0.930228  0
H  H18  1  0.23223129  0.55794641  0.01059368  1  0  0.453179  0  0.811939  0  0  0.42752  0  0.876609  0  0  0.436924  0  0.862457  0  0  0.324749  0.420833  0  0.886699  0
H  H19  1  0.76776842  0.44205485  0.98940847  1  0  0.45314  0  0.811969  0  0  0.42748  0  0.876661  0  0  0.436885  0  0.862507  0  0  0.324724  0.420794  0  0.886749  0
H  H20  1  0.62978826  0.55597099  0.39155837  1  0  0.456303  0  0.834313  0  0  0.424182  0  0.898328  0  0  0.434758  0  0.88287  0  0  0.306659  0.416736  0  0.909208  0
H  H21  1  0.37021288  0.44402933  0.60844307  1  0  0.456284  0  0.834342  0  0  0.424168  0  0.898346  0  0  0.434742  0  0.882893  0  0  0.306662  0.416718  0  0.909232  0
H  H22  1  0.43139264  0.56204867  0.43428383  1  0  0.453658  0  0.799164  0  0  0.431991  0  0.859177  0  0  0.440811  0  0.848205  0  0  0.330145  0.4257  0  0.866898  0
H  H23  1  0.56860416  0.43795352  0.56571557  1  0  0.453647  0  0.799125  0  0  0.431982  0  0.859139  0  0  0.440803  0  0.848203  0  0  0.330154  0.425688  0  0.866858  0
H  H24  1  0.40401563  0.74696108  0.98331868  1  0  0.11239  0  0.972059  0  0  0.118844  0  1.039512  0  0  0.122949  0  1.035642  0  0  0.115551  0.115647  0  1.042868  0
H  H25  1  0.59597811  0.25303833  0.01668416  1  0  0.112401  0  0.972059  0  0  0.118863  0  1.039524  0  0  0.122968  0  1.035653  0  0  0.115554  0.115666  0  1.042878  0
H  H26  1  0.99432434  0.02046833  0.84774857  1  0  0.12407  0  0.945125  0  0  0.130841  0  1.009172  0  0  0.134324  0  1.00724  0  0  0.113191  0.128338  0  1.010555  0
H  H27  1  0.00567250  0.97953479  0.15224928  1  0  0.124115  0  0.945134  0  0  0.130889  0  1.009179  0  0  0.134371  0  1.007246  0  0  0.113202  0.128389  0  1.010558  0
H  H28  1  0.18339704  0.78782220  0.42165496  1  0  0.115698  0  0.96774  0  0  0.121431  0  1.036565  0  0  0.125773  0  1.032381  0  0  0.112741  0.118168  0  1.039859  0
H  H29  1  0.81660265  0.21217813  0.57834300  1  0  0.115708  0  0.96773  0  0  0.12143  0  1.036563  0  0  0.125775  0  1.032371  0  0  0.112745  0.118158  0  1.039858  0
H  H30  1  0.32715747  0.16023315  0.37019211  1  0  0.109285  0  1.002073  0  0  0.114652  0  1.071179  0  0  0.119357  0  1.066674  0  0  0.117867  0.111184  0  1.074591  0
H  H31  1  0.67284365  0.83976624  0.62980923  1  0  0.109383  0  1.002109  0  0  0.114777  0  1.071142  0  0  0.119483  0  1.066635  0  0  0.117917  0.111311  0  1.074557  0
C  C32  1  0.37280674  0.84351322  0.96926104  1  0  -0.065281  0  3.634038  0  0  -0.103076  0  3.886265  0  0  -0.099095  0  3.900161  0  0  -0.061109  -0.105976  0  3.877755  0
C  C33  1  0.62719297  0.15648710  0.03073528  1  0  -0.065311  0  3.634097  0  0  -0.103151  0  3.886372  0  0  -0.099168  0  3.900268  0  0  -0.06115  -0.106049  0  3.877851  0
C  C34  1  0.18761926  0.87346744  0.91082052  1  0  -0.036374  0  3.725127  0  0  -0.011378  0  3.960259  0  0  -0.019982  0  3.981298  0  0  -0.008614  -0.00584  0  3.946355  0
C  C35  1  0.81237894  0.12653196  0.08917634  1  0  -0.036327  0  3.725087  0  0  -0.011313  0  3.960211  0  0  -0.019919  0  3.98125  0  0  -0.008588  -0.005769  0  3.946289  0
C  C36  1  0.14184216  0.99846585  0.89250008  1  0  -0.037622  0  3.686751  0  0  -0.078928  0  3.940378  0  0  -0.075129  0  3.957997  0  0  -0.067254  -0.081147  0  3.92856  0
C  C37  1  0.85815758  0.00153540  0.10749551  1  0  -0.037782  0  3.686736  0  0  -0.079114  0  3.9404  0  0  -0.075306  0  3.958006  0  0  -0.067312  -0.081336  0  3.928579  0
C  C38  1  0.28366493  0.09049305  0.93115206  1  0  -0.151888  0  3.695511  0  0  -0.133217  0  3.952536  0  0  -0.140931  0  3.972692  0  0  -0.006845  -0.128206  0  3.939062  0
C  C39  1  0.71633181  0.90950728  0.06884634  1  0  -0.151693  0  3.695255  0  0  -0.133016  0  3.952252  0  0  -0.140731  0  3.972409  0  0  -0.006783  -0.128005  0  3.938783  0
C  C40  1  0.47840197  0.06373270  0.99026182  1  0  0.082611  0  3.705942  0  0  0.088183  0  3.940133  0  0  0.089197  0  3.961846  0  0  0.01477  0.087596  0  3.925431  0
C  C41  1  0.52159634  0.93627043  0.00973704  1  0  0.082553  0  3.705913  0  0  0.088144  0  3.940064  0  0  0.089158  0  3.961778  0  0  0.014803  0.087555  0  3.925366  0
C  C42  1  0.03164593  0.77564289  0.86621946  1  0  0.646425  0  3.919652  0  0  0.596541  0  4.21829  0  0  0.630773  0  4.209859  0  0  0.199327  0.573517  0  4.223105  0
C  C43  1  0.96835080  0.22435744  0.13378058  1  0  0.646429  0  3.919527  0  0  0.596556  0  4.218143  0  0  0.630788  0  4.209713  0  0  0.199354  0.573527  0  4.22296  0
C  C44  1  0.16006430  0.88754311  0.43366538  1  0  -0.063875  0  3.621032  0  0  -0.105414  0  3.878632  0  0  -0.101271  0  3.892658  0  0  -0.064589  -0.108013  0  3.869506  0
C  C45  1  0.83993386  0.11245536  0.56633303  1  0  -0.063907  0  3.621138  0  0  -0.105412  0  3.878711  0  0  -0.101264  0  3.892746  0  0  -0.064605  -0.108003  0  3.869567  0
C  C46  1  0.27069039  0.96822109  0.39048887  1  0  -0.061296  0  3.75316  0  0  -0.038659  0  3.996316  0  0  -0.047761  0  4.018637  0  0  -0.012345  -0.032744  0  3.98148  0
C  C47  1  0.72931077  0.03177923  0.60951092  1  0  -0.06122  0  3.753071  0  0  -0.038575  0  3.996177  0  0  -0.047698  0  4.018528  0  0  -0.012338  -0.032663  0  3.981335  0
C  C48  1  0.24053007  0.09774747  0.40468978  1  0  -0.047749  0  3.739423  0  0  -0.08962  0  3.992677  0  0  -0.086363  0  4.010698  0  0  -0.072534  -0.091367  0  3.980573  0
C  C49  1  0.75946805  0.90225006  0.59530936  1  0  -0.047972  0  3.739663  0  0  -0.089868  0  3.992944  0  0  -0.08661  0  4.010981  0  0  -0.072607  -0.091617  0  3.980847  0
C  C50  1  0.09917132  0.14539963  0.45879817  1  0  -0.160504  0  3.679723  0  0  -0.138195  0  3.929239  0  0  -0.146389  0  3.950905  0  0  -0.012342  -0.133104  0  3.915188  0
C  C51  1  0.90082537  0.85459884  0.54119922  1  0  -0.160419  0  3.679766  0  0  -0.138126  0  3.929289  0  0  -0.146321  0  3.950956  0  0  -0.012368  -0.133033  0  3.915237  0
C  C52  1  0.98289231  0.06625016  0.50661435  1  0  0.076123  0  3.701396  0  0  0.082762  0  3.935621  0  0  0.083403  0  3.958504  0  0  0.009839  0.082217  0  3.920654  0
C  C53  1  0.01710439  0.93374831  0.49338222  1  0  0.076123  0  3.7013  0  0  0.082822  0  3.93548  0  0  0.083461  0  3.958365  0  0  0.009934  0.082277  0  3.920519  0
C  C54  1  0.41900049  0.92444166  0.32462241  1  0  0.65996  0  3.797422  0  0  0.609657  0  4.094536  0  0  0.642145  0  4.087234  0  0  0.239657  0.587431  0  4.099285  0
C  C55  1  0.58099751  0.07555308  0.67538056  1  0  0.65992  0  3.797545  0  0  0.609632  0  4.09463  0  0  0.642125  0  4.087329  0  0  0.239688  0.587418  0  4.099364  0
S  S56  1  0.21707634  0.24529265  0.90394100  1  0  1.362745  0  5.540394  0  0  1.257219  0  6.057476  0  0  1.30509  0  6.033712  0  0  0.552606  1.224064  0  6.073155  0
S  S57  1  0.78292187  0.75470768  0.09605923  1  0  1.362686  0  5.540443  0  0  1.257154  0  6.057534  0  0  1.305023  0  6.033772  0  0  0.552559  1.224004  0  6.073217  0
S  S58  1  0.06725506  0.31036026  0.46256987  1  0  1.359367  0  5.574034  0  0  1.254261  0  6.093977  0  0  1.302236  0  6.070667  0  0  0.544997  1.221331  0  6.109029  0
S  S59  1  0.93274752  0.68963820  0.53742830  1  0  1.359262  0  5.574248  0  0  1.25413  0  6.094229  0  0  1.302106  0  6.070921  0  0  0.544983  1.221204  0  6.109267  0
O  O60  1  0.07341390  0.65896962  0.86630161  1  0  -0.74817  0  2.036314  0  0  -0.696614  0  2.27424  0  0  -0.720705  0  2.261305  0  0  -0.367617  -0.680046  0  2.283011  0
O  O61  1  0.92658584  0.34103257  0.13369981  1  0  -0.748188  0  2.036278  0  0  -0.696639  0  2.274197  0  0  -0.72073  0  2.261263  0  0  -0.367636  -0.68007  0  2.282965  0
O  O62  1  0.85633772  0.80920223  0.82887118  1  0  -0.677543  0  2.023595  0  0  -0.635289  0  2.268222  0  0  -0.660941  0  2.263149  0  0  -0.369676  -0.617312  0  2.270999  0
O  O63  1  0.14366049  0.19079810  0.17112905  1  0  -0.677543  0  2.02354  0  0  -0.635271  0  2.268124  0  0  -0.660925  0  2.263055  0  0  -0.369674  -0.617297  0  2.270905  0
O  O64  1  0.26787830  0.32604126  0.01144793  1  0  -0.766213  0  2.104128  0  0  -0.719138  0  2.383645  0  0  -0.740763  0  2.368812  0  0  -0.386633  -0.703693  0  2.393487  0
O  O65  1  0.73212138  0.67395906  0.98855332  1  0  -0.766191  0  2.104177  0  0  -0.719113  0  2.383683  0  0  -0.740734  0  2.368841  0  0  -0.386624  -0.70367  0  2.393527  0
O  O66  1  0.33125519  0.28356575  0.82435213  1  0  -0.676419  0  2.0261  0  0  -0.612031  0  2.267096  0  0  -0.634012  0  2.251716  0  0  -0.318235  -0.596204  0  2.277351  0
O  O67  1  0.66874599  0.71643551  0.17564940  1  0  -0.676405  0  2.026186  0  0  -0.612012  0  2.267176  0  0  -0.633994  0  2.251796  0  0  -0.318188  -0.596178  0  2.277417  0
O  O68  1  0.00311685  0.23996619  0.85428866  1  0  -0.67146  0  2.000805  0  0  -0.606657  0  2.23473  0  0  -0.62948  0  2.222539  0  0  -0.317872  -0.590786  0  2.243042  0
O  O69  1  0.99688136  0.76003414  0.14571075  1  0  -0.671457  0  2.000803  0  0  -0.606654  0  2.234724  0  0  -0.629474  0  2.222529  0  0  -0.317867  -0.590804  0  2.243052  0
O  O70  1  0.43880537  0.80129436  0.31368097  1  0  -0.53134  0  2.083736  0  0  -0.479579  0  2.301021  0  0  -0.501212  0  2.28699  0  0  -0.319438  -0.464619  0  2.310666  0
O  O71  1  0.56119578  0.19870597  0.68632047  1  0  -0.53132  0  2.08368  0  0  -0.479559  0  2.300957  0  0  -0.501193  0  2.286927  0  0  -0.319444  -0.464593  0  2.310596  0
O  O72  1  0.51453506  0.99583832  0.28319422  1  0  -0.556179  0  1.954853  0  0  -0.510237  0  2.166356  0  0  -0.531857  0  2.160579  0  0  -0.278546  -0.495195  0  2.170261  0
O  O73  1  0.48547797  0.00416477  0.71680902  1  0  -0.556069  0  1.95521  0  0  -0.510147  0  2.166726  0  0  -0.531765  0  2.160953  0  0  -0.278498  -0.495114  0  2.170633  0
O  O74  1  0.18281457  0.35205476  0.38597076  1  0  -0.752947  0  2.092591  0  0  -0.703042  0  2.368957  0  0  -0.723983  0  2.353666  0  0  -0.38722  -0.688389  0  2.37887  0
O  O75  1  0.81718803  0.64794463  0.61402914  1  0  -0.75293  0  2.092708  0  0  -0.702982  0  2.369015  0  0  -0.723923  0  2.353725  0  0  -0.387188  -0.688334  0  2.378938  0
O  O76  1  0.14993715  0.36324620  0.58081794  1  0  -0.675094  0  2.010279  0  0  -0.611195  0  2.248898  0  0  -0.634161  0  2.234707  0  0  -0.321132  -0.594916  0  2.258082  0
O  O77  1  0.85006244  0.63675133  0.41918139  1  0  -0.675057  0  2.010329  0  0  -0.611155  0  2.248955  0  0  -0.634122  0  2.234764  0  0  -0.32113  -0.594882  0  2.25814  0
O  O78  1  0.85599012  0.33214650  0.42806069  1  0  -0.652997  0  1.977281  0  0  -0.595082  0  2.217815  0  0  -0.616138  0  2.202748  0  0  -0.318165  -0.5802  0  2.227657  0
O  O79  1  0.14401259  0.66785568  0.57193701  1  0  -0.653002  0  1.977354  0  0  -0.595069  0  2.217871  0  0  -0.616119  0  2.2028  0  0  -0.318198  -0.580189  0  2.227713  0
O  O80  1  0.53339130  0.24890120  0.27260314  1  0  -0.930545  0  1.846326  0  0  -0.888926  0  2.034317  0  0  -0.907339  0  2.003815  0  0  -0.651931  -0.876178  0  2.05621  0
O  O81  1  0.46660836  0.75109913  0.72739974  1  0  -0.930528  0  1.846421  0  0  -0.888923  0  2.034417  0  0  -0.907336  0  2.003915  0  0  -0.651884  -0.876171  0  2.056307  0
O  O82  1  0.59753976  0.46220199  0.16694369  1  0  -0.91128  0  1.833783  0  0  -0.864791  0  2.019722  0  0  -0.882798  0  1.987502  0  0  -0.647864  -0.851879  0  2.042375  0
O  O83  1  0.40246286  0.53779833  0.83305794  1  0  -0.911294  0  1.833768  0  0  -0.864804  0  2.019701  0  0  -0.88281  0  1.98748  0  0  -0.647872  -0.851893  0  2.042367  0
O  O84  1  0.09913007  0.57305720  0.28552238  1  0  -0.930063  0  1.883305  0  0  -0.892081  0  2.083407  0  0  -0.909148  0  2.051189  0  0  -0.655754  -0.880037  0  2.105857  0
O  O85  1  0.90087549  0.42694312  0.71447963  1  0  -0.93004  0  1.883324  0  0  -0.892062  0  2.083431  0  0  -0.909129  0  2.051214  0  0  -0.655778  -0.880016  0  2.105887  0
O  O86  1  0.23026080  0.57270833  0.09065938  1  0  -0.899656  0  1.851472  0  0  -0.860198  0  2.051529  0  0  -0.87654  0  2.019597  0  0  -0.640616  -0.84855  0  2.073974  0
O  O87  1  0.76974035  0.42729200  0.90934205  1  0  -0.899635  0  1.851513  0  0  -0.860175  0  2.051589  0  0  -0.876517  0  2.019659  0  0  -0.640596  -0.848532  0  2.074037  0
O  O88  1  0.49852427  0.51534574  0.38155266  1  0  -0.922925  0  1.861723  0  0  -0.88244  0  2.06245  0  0  -0.899282  0  2.032042  0  0  -0.644993  -0.870456  0  2.083543  0
O  O89  1  0.50147680  0.48465271  0.61845106  1  0  -0.922906  0  1.861741  0  0  -0.882427  0  2.062481  0  0  -0.89927  0  2.032109  0  0  -0.64503  -0.870449  0  2.083589  0
