# generated using pymatgen
data_Zn3P2H24(C7O4)4
_symmetry_space_group_name_H-M   'P 1'
_cell_length_a   7.33861623
_cell_length_b   10.43524749
_cell_length_c   10.59708249
_cell_angle_alpha   82.76139076
_cell_angle_beta   79.49672765
_cell_angle_gamma   75.96939158
_symmetry_Int_Tables_number   1
_chemical_formula_structural   Zn3P2H24(C7O4)4
_chemical_formula_sum   'Zn3 P2 H24 C28 O16'
_cell_volume   771.27281493
_cell_formula_units_Z   1
loop_
 _symmetry_equiv_pos_site_id
 _symmetry_equiv_pos_as_xyz
  1  'x, y, z'
loop_
 _atom_site_type_symbol
 _atom_site_label
 _atom_site_symmetry_multiplicity
 _atom_site_fract_x
 _atom_site_fract_y
 _atom_site_fract_z
 _atom_site_occupancy
 _atom_site_hle17_bader_spin_density
 _atom_site_hle17_ddec_charge
 _atom_site_hle17_ddec_spin_density
 _atom_site_hle17_ddec_sum_bond_order
 _atom_site_hle17_magmom
 _atom_site_hse06_10hf_bader_spin_density
 _atom_site_hse06_10hf_ddec_charge
 _atom_site_hse06_10hf_ddec_spin_density
 _atom_site_hse06_10hf_ddec_sum_bond_order
 _atom_site_hse06_10hf_magmom
 _atom_site_hse06_bader_spin_density
 _atom_site_hse06_ddec_charge
 _atom_site_hse06_ddec_spin_density
 _atom_site_hse06_ddec_sum_bond_order
 _atom_site_hse06_magmom
 _atom_site_pbe_bader_spin_density
 _atom_site_pbe_cm5_charge
 _atom_site_pbe_ddec_charge
 _atom_site_pbe_ddec_spin_density
 _atom_site_pbe_ddec_sum_bond_order
 _atom_site_pbe_magmom
Zn  Zn0  1  0.49999651  0.49999886  0.50000241  1  0  1.221303  0  1.71977  0  0  1.071687  0  2.16099  0  0  1.116416  0  2.101825  0  0  0.689191  1.040185  0  2.201961  0
Zn  Zn1  1  0.01788660  0.21369819  0.54128863  1  0  1.187594  0  1.646992  0  0  1.015893  0  2.104028  0  0  1.066711  0  2.040186  0  0  0.696246  0.979905  0  2.14808  0
Zn  Zn2  1  0.98211282  0.78630145  0.45870952  1  0  1.18767  0  1.646912  0  0  1.015962  0  2.10396  0  0  1.06678  0  2.040111  0  0  0.696279  0.979977  0  2.148017  0
P  P3  1  0.27511547  0.31480346  0.68857132  1  0  1.192518  0  4.714072  0  0  1.060686  0  5.170331  0  0  1.102103  0  5.149993  0  0  0.292763  1.031877  0  5.183843  0
P  P4  1  0.72488566  0.68519519  0.31142675  1  0  1.192497  0  4.714248  0  0  1.060638  0  5.170488  0  0  1.102045  0  5.150154  0  0  0.29276  1.031829  0  5.183998  0
H  H5  1  0.06923927  0.76226240  0.86042839  1  0  0.092623  0  0.963689  0  0  0.102434  0  1.026437  0  0  0.105302  0  1.025233  0  0  0.102941  0.100226  0  1.027592  0
H  H6  1  0.93076220  0.23773926  0.13957398  1  0  0.092612  0  0.96367  0  0  0.102451  0  1.026397  0  0  0.105318  0  1.025194  0  0  0.102958  0.100243  0  1.027552  0
H  H7  1  0.16491501  0.67487986  0.07701464  1  0  0.107304  0  0.964085  0  0  0.115967  0  1.027019  0  0  0.11934  0  1.024823  0  0  0.103843  0.113539  0  1.02862  0
H  H8  1  0.83509545  0.32511980  0.92298503  1  0  0.10729  0  0.964089  0  0  0.115903  0  1.027064  0  0  0.11927  0  1.024877  0  0  0.103861  0.113485  0  1.02867  0
H  H9  1  0.29449519  0.43416758  0.11980068  1  0  0.097459  0  0.952586  0  0  0.108565  0  1.011752  0  0  0.112208  0  1.009402  0  0  0.104208  0.105882  0  1.013658  0
H  H10  1  0.70550425  0.56583205  0.88019651  1  0  0.097464  0  0.952585  0  0  0.108564  0  1.01176  0  0  0.112213  0  1.009404  0  0  0.104221  0.105885  0  1.013664  0
H  H11  1  0.34299167  0.28396094  0.94684430  1  0  0.084132  0  0.994735  0  0  0.092468  0  1.061891  0  0  0.094282  0  1.062442  0  0  0.099083  0.091233  0  1.061349  0
H  H12  1  0.65700191  0.71603969  0.05315346  1  0  0.084162  0  0.994696  0  0  0.092479  0  1.061881  0  0  0.094295  0  1.062427  0  0  0.099078  0.091272  0  1.061312  0
H  H13  1  0.05758055  0.14174564  0.84565162  1  0  0.091954  0  0.964344  0  0  0.101335  0  1.030381  0  0  0.104325  0  1.028776  0  0  0.103307  0.099059  0  1.031603  0
H  H14  1  0.94241953  0.85825201  0.15434576  1  0  0.09193  0  0.96434  0  0  0.10132  0  1.030376  0  0  0.104309  0  1.028775  0  0  0.103312  0.099055  0  1.031585  0
H  H15  1  0.14419184  0.91213141  0.94943847  1  0  0.083429  0  0.968756  0  0  0.096367  0  1.028751  0  0  0.098517  0  1.028225  0  0  0.100682  0.094754  0  1.029501  0
H  H16  1  0.85581557  0.08786923  0.05055955  1  0  0.083493  0  0.968658  0  0  0.096455  0  1.028629  0  0  0.098607  0  1.028096  0  0  0.100742  0.09484  0  1.029381  0
H  H17  1  0.47971749  0.78666603  0.91649655  1  0  0.089151  0  0.964513  0  0  0.101623  0  1.024196  0  0  0.10407  0  1.023148  0  0  0.102395  0.099792  0  1.025287  0
H  H18  1  0.52028626  0.21333267  0.08350876  1  0  0.089185  0  0.964548  0  0  0.101666  0  1.024214  0  0  0.104115  0  1.023164  0  0  0.102404  0.099836  0  1.0253  0
H  H19  1  0.73482177  0.89670080  0.79852673  1  0  0.108075  0  0.953781  0  0  0.117045  0  1.015836  0  0  0.120936  0  1.013443  0  0  0.103584  0.114172  0  1.017737  0
H  H20  1  0.26517956  0.10329691  0.20147710  1  0  0.10804  0  0.95372  0  0  0.117005  0  1.015778  0  0  0.120896  0  1.013384  0  0  0.103566  0.114132  0  1.017678  0
H  H21  1  0.36647692  0.09712704  0.46299456  1  0  0.432062  0  0.808384  0  0  0.412609  0  0.865786  0  0  0.42083  0  0.857008  0  0  0.323908  0.406516  0  0.872556  0
H  H22  1  0.63352168  0.90287953  0.53700185  1  0  0.432128  0  0.808346  0  0  0.412679  0  0.865743  0  0  0.420898  0  0.856966  0  0  0.323953  0.406585  0  0.872519  0
H  H23  1  0.23860562  0.99360535  0.46318889  1  0  0.431954  0  0.871985  0  0  0.397284  0  0.940306  0  0  0.409093  0  0.923446  0  0  0.290605  0.388909  0  0.952243  0
H  H24  1  0.76139966  0.00639329  0.53680869  1  0  0.431986  0  0.871953  0  0  0.397308  0  0.940282  0  0  0.409118  0  0.92342  0  0  0.290613  0.388929  0  0.952223  0
H  H25  1  0.49862627  0.47306178  0.25291521  1  0  0.389282  0  0.8885  0  0  0.364856  0  0.961685  0  0  0.370933  0  0.956393  0  0  0.295632  0.360566  0  0.965515  0
H  H26  1  0.50137450  0.52693788  0.74708466  1  0  0.389291  0  0.888491  0  0  0.364864  0  0.961679  0  0  0.370942  0  0.956386  0  0  0.295637  0.360576  0  0.965509  0
H  H27  1  0.31693382  0.57450858  0.30197752  1  0  0.435867  0  0.843491  0  0  0.408255  0  0.912643  0  0  0.417827  0  0.89873  0  0  0.3027  0.401438  0  0.922545  0
H  H28  1  0.68306868  0.42549007  0.69802133  1  0  0.435873  0  0.84345  0  0  0.408263  0  0.912621  0  0  0.417833  0  0.898711  0  0  0.302714  0.401445  0  0.922524  0
C  C29  1  0.11197002  0.63799227  0.65491247  1  0  0.667869  0  3.867479  0  0  0.616862  0  4.152704  0  0  0.651982  0  4.14513  0  0  0.217898  0.593069  0  4.156964  0
C  C30  1  0.88801790  0.36200841  0.34509162  1  0  0.667894  0  3.867575  0  0  0.616891  0  4.152784  0  0  0.652012  0  4.14521  0  0  0.217876  0.593098  0  4.157042  0
C  C31  1  0.16014620  0.57416675  0.78231985  1  0  -0.054313  0  3.750803  0  0  -0.035118  0  3.973334  0  0  -0.040678  0  3.994809  0  0  -0.008468  -0.031498  0  3.959062  0
C  C32  1  0.83984912  0.42583688  0.21768110  1  0  -0.054312  0  3.750815  0  0  -0.035111  0  3.973322  0  0  -0.04067  0  3.994795  0  0  -0.008455  -0.031491  0  3.959043  0
C  C33  1  0.13190516  0.65763624  0.88113689  1  0  -0.076468  0  3.733876  0  0  -0.099596  0  3.98145  0  0  -0.101215  0  4.002951  0  0  -0.082551  -0.098547  0  3.967135  0
C  C34  1  0.86809633  0.34236542  0.11886452  1  0  -0.076372  0  3.733775  0  0  -0.09954  0  3.981331  0  0  -0.101158  0  4.002828  0  0  -0.082515  -0.098493  0  3.967017  0
C  C35  1  0.18342178  0.60910587  0.00131893  1  0  -0.053016  0  3.720739  0  0  -0.067681  0  3.974613  0  0  -0.069138  0  3.995252  0  0  -0.082602  -0.066513  0  3.960629  0
C  C36  1  0.81658144  0.39089478  0.99868052  1  0  -0.053121  0  3.720749  0  0  -0.067727  0  3.974634  0  0  -0.069182  0  3.995273  0  0  -0.082716  -0.066575  0  3.960665  0
C  C37  1  0.25925765  0.47398993  0.02486369  1  0  -0.045342  0  3.719092  0  0  -0.060539  0  3.970969  0  0  -0.062122  0  3.991355  0  0  -0.08173  -0.059412  0  3.957244  0
C  C38  1  0.74074003  0.52601072  0.97513641  1  0  -0.045328  0  3.719149  0  0  -0.06053  0  3.970992  0  0  -0.062117  0  3.991375  0  0  -0.081725  -0.059406  0  3.95728  0
C  C39  1  0.28554038  0.38956847  0.92783963  1  0  -0.060361  0  3.776154  0  0  -0.083956  0  4.025746  0  0  -0.085138  0  4.047753  0  0  -0.083917  -0.083151  0  4.010867  0
C  C40  1  0.71445565  0.61043315  0.07215772  1  0  -0.060359  0  3.776104  0  0  -0.083958  0  4.025686  0  0  -0.08514  0  4.047694  0  0  -0.083896  -0.083176  0  4.010795  0
C  C41  1  0.23942047  0.43690714  0.80523704  1  0  -0.23695  0  3.741091  0  0  -0.20134  0  3.970904  0  0  -0.20767  0  3.991483  0  0  -0.022811  -0.197188  0  3.957492  0
C  C42  1  0.76057738  0.56309745  0.19475971  1  0  -0.236986  0  3.741133  0  0  -0.201324  0  3.970871  0  0  -0.207652  0  3.991446  0  0  -0.022806  -0.197174  0  3.957465  0
C  C43  1  0.34767055  0.15307542  0.77419117  1  0  -0.225367  0  3.747199  0  0  -0.190055  0  3.976972  0  0  -0.197935  0  3.999577  0  0  -0.024824  -0.184469  0  3.961453  0
C  C44  1  0.65233637  0.84692226  0.22581012  1  0  -0.225317  0  3.746856  0  0  -0.189987  0  3.976697  0  0  -0.197866  0  3.999301  0  0  -0.024799  -0.184406  0  3.961187  0
C  C45  1  0.20641494  0.08927008  0.84026870  1  0  -0.048207  0  3.759463  0  0  -0.071622  0  4.007025  0  0  -0.071953  0  4.027976  0  0  -0.082848  -0.070685  0  3.992296  0
C  C46  1  0.79358698  0.91073054  0.15972714  1  0  -0.048158  0  3.759356  0  0  -0.071588  0  4.006953  0  0  -0.07192  0  4.027905  0  0  -0.082872  -0.070658  0  3.992222  0
C  C47  1  0.25464847  0.95959513  0.89521448  1  0  -0.068602  0  3.759717  0  0  -0.083941  0  4.011281  0  0  -0.086288  0  4.032739  0  0  -0.089903  -0.082503  0  3.996668  0
C  C48  1  0.74535509  0.04040451  0.10478411  1  0  -0.068695  0  3.759604  0  0  -0.084047  0  4.011174  0  0  -0.086393  0  4.032631  0  0  -0.089978  -0.08261  0  3.996562  0
C  C49  1  0.44402569  0.88979389  0.87804906  1  0  -0.039444  0  3.737101  0  0  -0.05435  0  3.985693  0  0  -0.054513  0  4.005923  0  0  -0.081801  -0.054667  0  3.972597  0
C  C50  1  0.55597748  0.11020678  0.12195323  1  0  -0.039528  0  3.737157  0  0  -0.054449  0  3.985756  0  0  -0.054612  0  4.005985  0  0  -0.081796  -0.054765  0  3.972657  0
C  C51  1  0.58675875  0.95164446  0.81203692  1  0  -0.098208  0  3.721667  0  0  -0.118436  0  3.968066  0  0  -0.120898  0  3.988118  0  0  -0.088638  -0.116398  0  3.954916  0
C  C52  1  0.41324393  0.04835326  0.18796864  1  0  -0.098155  0  3.7216  0  0  -0.118341  0  3.968036  0  0  -0.120803  0  3.988092  0  0  -0.088621  -0.116302  0  3.954879  0
C  C53  1  0.54013454  0.08492432  0.76372637  1  0  -0.036466  0  3.730303  0  0  -0.021999  0  3.962276  0  0  -0.025323  0  3.983111  0  0  -0.004932  -0.02042  0  3.94869  0
C  C54  1  0.45986201  0.91507537  0.23627682  1  0  -0.036456  0  3.730215  0  0  -0.02211  0  3.962333  0  0  -0.025434  0  3.983164  0  0  -0.004958  -0.02053  0  3.948743  0
C  C55  1  0.69692902  0.15656081  0.71151353  1  0  0.67821  0  3.867204  0  0  0.619212  0  4.173207  0  0  0.653873  0  4.16394  0  0  0.222408  0.5957  0  4.178781  0
C  C56  1  0.30307166  0.84343889  0.28849107  1  0  0.678174  0  3.867274  0  0  0.619273  0  4.173182  0  0  0.653936  0  4.163915  0  0  0.222434  0.595757  0  4.178758  0
O  O57  1  0.96937093  0.73685599  0.65215524  1  0  -0.630255  0  1.976502  0  0  -0.564401  0  2.227815  0  0  -0.593287  0  2.213277  0  0  -0.312808  -0.544274  0  2.23725  0
O  O58  1  0.03061317  0.26314369  0.34784848  1  0  -0.630254  0  1.97658  0  0  -0.564359  0  2.227854  0  0  -0.593246  0  2.213319  0  0  -0.312737  -0.544233  0  2.237288  0
O  O59  1  0.21446793  0.59856858  0.55068839  1  0  -0.641621  0  2.090444  0  0  -0.565373  0  2.346865  0  0  -0.593735  0  2.332214  0  0  -0.295915  -0.545557  0  2.356233  0
O  O60  1  0.78551842  0.40143705  0.44931430  1  0  -0.641537  0  2.090425  0  0  -0.565417  0  2.347003  0  0  -0.593781  0  2.332355  0  0  -0.29594  -0.545602  0  2.356371  0
O  O61  1  0.07799682  0.32476315  0.65428424  1  0  -0.787631  0  2.048079  0  0  -0.700896  0  2.34097  0  0  -0.728916  0  2.318728  0  0  -0.365554  -0.681039  0  2.355633  0
O  O62  1  0.92200041  0.67523453  0.34571724  1  0  -0.787695  0  2.048252  0  0  -0.700886  0  2.34108  0  0  -0.728897  0  2.318833  0  0  -0.365552  -0.681031  0  2.355743  0
O  O63  1  0.43564372  0.32531359  0.57730257  1  0  -0.802233  0  2.061534  0  0  -0.722213  0  2.332864  0  0  -0.74998  0  2.315396  0  0  -0.36516  -0.702548  0  2.344523  0
O  O64  1  0.56435838  0.67468208  0.42269483  1  0  -0.802197  0  2.061419  0  0  -0.722187  0  2.332779  0  0  -0.749958  0  2.315328  0  0  -0.365179  -0.702519  0  2.344433  0
O  O65  1  0.70635344  0.25219179  0.76756687  1  0  -0.606209  0  1.985934  0  0  -0.557669  0  2.22079  0  0  -0.581968  0  2.212545  0  0  -0.297067  -0.540321  0  2.225734  0
O  O66  1  0.29364971  0.74780488  0.23243121  1  0  -0.60628  0  1.985679  0  0  -0.557781  0  2.220521  0  0  -0.582086  0  2.21228  0  0  -0.297153  -0.540427  0  2.225462  0
O  O67  1  0.82065974  0.10920537  0.61377841  1  0  -0.669503  0  2.059228  0  0  -0.581974  0  2.315409  0  0  -0.612724  0  2.29754  0  0  -0.31376  -0.560395  0  2.327016  0
O  O68  1  0.17934571  0.89078834  0.38622167  1  0  -0.669361  0  2.059413  0  0  -0.581892  0  2.315603  0  0  -0.61264  0  2.297732  0  0  -0.313679  -0.56033  0  2.327241  0
O  O69  1  0.26366509  0.06094424  0.51533801  1  0  -0.821214  0  1.874493  0  0  -0.759072  0  2.08225  0  0  -0.781389  0  2.051482  0  0  -0.560152  -0.743349  0  2.104121  0
O  O70  1  0.73633643  0.93905740  0.48466151  1  0  -0.821315  0  1.874432  0  0  -0.759197  0  2.082226  0  0  -0.781514  0  2.051453  0  0  -0.56022  -0.743473  0  2.104109  0
O  O71  1  0.38886045  0.48275139  0.32156168  1  0  -0.778814  0  1.854364  0  0  -0.727101  0  2.045831  0  0  -0.745695  0  2.021164  0  0  -0.561381  -0.713812  0  2.063279  0
O  O72  1  0.61113895  0.51724826  0.67843741  1  0  -0.778824  0  1.854343  0  0  -0.727106  0  2.045828  0  0  -0.745701  0  2.021164  0  0  -0.561384  -0.713815  0  2.063277  0
