# generated using pymatgen
data_CoH12C14N4(Cl2O3)2
_symmetry_space_group_name_H-M   'P 1'
_cell_length_a   10.57429148
_cell_length_b   10.72209202
_cell_length_c   10.71984582
_cell_angle_alpha   67.74509814
_cell_angle_beta   67.03605604
_cell_angle_gamma   67.03151227
_symmetry_Int_Tables_number   1
_chemical_formula_structural   CoH12C14N4(Cl2O3)2
_chemical_formula_sum   'Co2 H24 C28 N8 Cl8 O12'
_cell_volume   992.90969876
_cell_formula_units_Z   2
loop_
 _symmetry_equiv_pos_site_id
 _symmetry_equiv_pos_as_xyz
  1  'x, y, z'
loop_
 _atom_site_type_symbol
 _atom_site_label
 _atom_site_symmetry_multiplicity
 _atom_site_fract_x
 _atom_site_fract_y
 _atom_site_fract_z
 _atom_site_occupancy
 _atom_site_hle17_ddec_charge
 _atom_site_hle17_ddec_spin_density
 _atom_site_hle17_ddec_sum_bond_order
 _atom_site_hle17_magmom
 _atom_site_hse06_10hf_ddec_charge
 _atom_site_hse06_10hf_ddec_spin_density
 _atom_site_hse06_10hf_ddec_sum_bond_order
 _atom_site_hse06_10hf_magmom
 _atom_site_hse06_ddec_charge
 _atom_site_hse06_ddec_spin_density
 _atom_site_hse06_ddec_sum_bond_order
 _atom_site_hse06_magmom
 _atom_site_pbe_cm5_charge
 _atom_site_pbe_ddec_charge
 _atom_site_pbe_ddec_spin_density
 _atom_site_pbe_ddec_sum_bond_order
 _atom_site_pbe_magmom
Co  Co0  1  0.50000099  0.99999718  0.00000138  1  1.045945  -2.885451  2.201272  -2.585  0.825053  -1.039454  2.715807  -0.947  0.89559  -1.036981  2.63818  -0.956  0.62634  0.783665  -1.02733  2.766094  -0.923
Co  Co1  1  0.99999809  0.00000190  0.99999839  1  1.045365  2.885502  2.201626  2.585  0.824388  1.039509  2.715929  0.947  0.894949  1.03703  2.638336  0.956  0.626093  0.782988  1.027395  2.766085  0.923
H  H2  1  0.34337526  0.89332421  0.93850385  1  0.440779  -0.000928  0.853565  -0.002  0.411329  -0.000235  0.913268  0.0  0.422169  -0.000208  0.897811  0.0  0.301984  0.404  -0.000245  0.923677  0.0
H  H3  1  0.15662143  0.06149270  0.10655501  1  0.440162  0.000916  0.854329  0.002  0.411141  0.000233  0.913425  0.0  0.42196  0.000206  0.897978  0.0  0.301967  0.40381  0.000241  0.923838  0.0
H  H4  1  0.65662136  0.10667869  0.06149733  1  0.440782  -0.000927  0.853576  -0.002  0.411338  -0.000235  0.913272  0.0  0.42218  -0.000208  0.897813  0.0  0.302005  0.40401  -0.000245  0.923682  0.0
H  H5  1  0.84337610  0.93850389  0.89344921  1  0.440145  0.000916  0.854359  0.002  0.411125  0.000232  0.913455  0.0  0.421945  0.000206  0.898008  0.0  0.301967  0.403811  0.000241  0.923852  0.0
H  H6  1  0.48228013  0.93520562  0.80499537  1  0.422326  -0.000143  0.875488  0.0  0.390517  -0.000148  0.942864  0.0  0.401558  -0.000103  0.926722  0.0  0.296116  0.382892  -0.00027  0.954028  0.0
H  H7  1  0.01773956  0.19497142  0.06470147  1  0.422851  0.000139  0.874256  0.0  0.39089  0.000146  0.942201  0.0  0.40195  0.000102  0.926057  0.0  0.296483  0.383255  0.000268  0.953353  0.0
H  H8  1  0.51772318  0.06478897  0.19500919  1  0.422349  -0.000143  0.875395  0.0  0.390528  -0.000148  0.942845  0.0  0.401571  -0.000103  0.9267  0.0  0.296139  0.382903  -0.00027  0.954007  0.0
H  H9  1  0.98226179  0.80502945  0.93529861  1  0.422805  0.000138  0.874347  0.0  0.390837  0.000146  0.942289  0.0  0.401899  0.000102  0.926143  0.0  0.296454  0.383203  0.000268  0.953441  0.0
H  H10  1  0.45019055  0.18739813  0.69800532  1  0.101788  -5.9e-05  0.971343  0.0  0.109072  5e-05  1.036478  0.0  0.111762  3.7e-05  1.03463  0.0  0.110631  0.107234  6.5e-05  1.037915  0.0
H  H11  1  0.04981993  0.30202409  0.81262341  1  0.101826  5.9e-05  0.971584  0.0  0.109025  -5e-05  1.036787  0.0  0.111724  -3.7e-05  1.034925  0.0  0.110641  0.107179  -6.5e-05  1.038239  0.0
H  H12  1  0.54981743  0.81259438  0.30199446  1  0.101813  -5.9e-05  0.971439  0.0  0.109165  5e-05  1.036475  0.0  0.111846  3.7e-05  1.034638  0.0  0.11066  0.107324  6.5e-05  1.037913  0.0
H  H13  1  0.95017731  0.69797980  0.18737153  1  0.101798  5.9e-05  0.971629  0.0  0.109044  -5e-05  1.036781  0.0  0.111743  -3.7e-05  1.034918  0.0  0.110628  0.107197  -6.5e-05  1.038232  0.0
H  H14  1  0.28485307  0.46707420  0.67176436  1  0.092302  -0.000278  0.989991  0.0  0.0986  1.5e-05  1.060256  0.0  0.101117  1.9e-05  1.058941  0.0  0.103914  0.097042  3.3e-05  1.060963  0.0
H  H15  1  0.21514904  0.32827363  0.53291060  1  0.092045  0.000277  0.990142  0.0  0.098345  -1.5e-05  1.060417  0.0  0.100873  -1.9e-05  1.059111  0.0  0.103833  0.096784  -3.3e-05  1.061124  0.0
H  H16  1  0.71515864  0.53291938  0.32823070  1  0.092277  -0.000276  0.989997  0.0  0.098632  1.5e-05  1.060211  0.0  0.101153  1.9e-05  1.058897  0.0  0.10394  0.097069  3.3e-05  1.060918  0.0
H  H17  1  0.78485186  0.67172505  0.46708586  1  0.092056  0.000278  0.990138  0.0  0.098347  -1.5e-05  1.060423  0.0  0.100874  -1.9e-05  1.059117  0.0  0.103849  0.096786  -3.3e-05  1.061129  0.0
H  H18  1  0.21649071  0.50494041  0.91532790  1  0.300616  -0.0002  0.938168  0.0  0.280047  1.3e-05  1.002512  0.0  0.288911  7e-06  0.995533  0.0  0.29964  0.274225  3.6e-05  1.006724  0.0
H  H19  1  0.28351757  0.08475338  0.49501525  1  0.300832  0.0002  0.937948  0.0  0.280161  -1.3e-05  1.002421  0.0  0.289021  -7e-06  0.995454  0.0  0.299751  0.27434  -3.6e-05  1.006627  0.0
H  H20  1  0.78351696  0.49505627  0.08466663  1  0.300609  -0.0002  0.938141  0.0  0.280006  1.3e-05  1.00253  0.0  0.288866  6e-06  0.995558  0.0  0.299625  0.274186  3.6e-05  1.006741  0.0
H  H21  1  0.71648433  0.91524218  0.50498483  1  0.300895  0.0002  0.937913  0.0  0.280218  -1.3e-05  1.002382  0.0  0.289077  -6e-06  0.995415  0.0  0.299777  0.274398  -3.6e-05  1.006587  0.0
H  H22  1  0.31997585  0.27945736  0.08635404  1  0.081338  -1.3e-05  0.963558  0.0  0.08717  7.2e-05  1.038076  0.0  0.089375  5.6e-05  1.034769  0.0  0.124273  0.08563  0.000109  1.040425  0.0
H  H23  1  0.18006178  0.91375827  0.72051607  1  0.081447  1.2e-05  0.963362  0.0  0.087279  -7.2e-05  1.03784  0.0  0.089536  -5.6e-05  1.034473  0.0  0.124237  0.085721  -0.000109  1.040225  0.0
H  H24  1  0.68002611  0.72054138  0.91364477  1  0.081364  -1.3e-05  0.963602  0.0  0.087217  7.2e-05  1.038107  0.0  0.089396  5.6e-05  1.034836  0.0  0.124297  0.085686  0.000109  1.04043  0.0
H  H25  1  0.81993784  0.08624151  0.27948513  1  0.081446  1.4e-05  0.963362  0.0  0.087274  -7.2e-05  1.037848  0.0  0.089531  -5.6e-05  1.034482  0.0  0.124256  0.085717  -0.000109  1.040234  0.0
C  C26  1  0.27564666  0.02043624  0.29406739  1  0.666676  0.003365  3.910525  0.005  0.60593  0.000217  4.225353  0.0  0.639892  0.000185  4.218511  0.0  0.212676  0.5831  -6.9e-05  4.229943  0.001
C  C27  1  0.22434519  0.70590401  0.97959694  1  0.666848  -0.003356  3.910429  -0.005  0.606169  -0.000216  4.225093  0.0  0.640072  -0.000185  4.218273  0.0  0.21274  0.583351  6.8e-05  4.229671  -0.001
C  C28  1  0.72435128  0.97956250  0.70593769  1  0.66676  0.003365  3.910302  0.005  0.605961  0.000217  4.225285  0.0  0.639899  0.000184  4.218428  0.0  0.212729  0.583126  -6.9e-05  4.229881  0.001
C  C29  1  0.77565177  0.29410098  0.02040140  1  0.667118  -0.003354  3.91015  -0.005  0.606419  -0.000216  4.224822  0.0  0.640323  -0.000184  4.217993  0.0  0.212843  0.583596  6.7e-05  4.229414  -0.001
C  C30  1  0.13147073  0.01084938  0.39888693  1  -0.13632  -0.002239  3.741785  -0.003  -0.137992  -0.001555  4.004278  -0.002  -0.140965  -0.001168  4.02046  -0.002  -0.022447  -0.13881  -0.004503  3.996583  -0.005
C  C31  1  0.36852289  0.60110394  0.98915617  1  -0.135954  0.002238  3.741571  0.003  -0.13786  0.001554  4.004235  0.002  -0.140726  0.001168  4.020268  0.002  -0.022291  -0.138672  0.004499  3.996522  0.005
C  C32  1  0.86852765  0.98915153  0.60112178  1  -0.136008  -0.002241  3.741682  -0.003  -0.137831  -0.001555  4.00433  -0.002  -0.140686  -0.00117  4.020346  -0.002  -0.022327  -0.138647  -0.004503  3.996636  -0.005
C  C33  1  0.63147241  0.39890314  0.01084201  1  -0.135936  0.002239  3.741667  0.003  -0.137724  0.001555  4.00424  0.002  -0.14062  0.001168  4.020322  0.002  -0.02225  -0.138535  0.0045  3.996525  0.005
C  C34  1  0.11493944  0.87930759  0.48624860  1  0.077638  -0.000449  3.766886  0.0  0.072272  -0.00068  4.045978  -0.001  0.075733  -0.000409  4.064123  0.0  0.009705  0.06919  -0.001478  4.035578  -0.001
C  C35  1  0.38506021  0.51372691  0.12071790  1  0.077308  0.000448  3.76716  0.0  0.072014  0.00068  4.046387  0.001  0.075464  0.00041  4.064471  0.0  0.009649  0.068915  0.001478  4.036027  0.001
C  C36  1  0.88505690  0.12069330  0.51376094  1  0.077481  -0.000449  3.766998  0.0  0.072183  -0.00068  4.046158  -0.001  0.075612  -0.000409  4.064268  0.0  0.009613  0.06909  -0.001478  4.03578  -0.001
C  C37  1  0.61493674  0.48627806  0.87927952  1  0.077267  0.000448  3.767184  0.0  0.07192  0.00068  4.046385  0.001  0.075376  0.000409  4.064476  0.0  0.009592  0.068821  0.001478  4.036026  0.001
C  C38  1  0.98395687  0.86844563  0.58719230  1  0.073544  -0.00026  3.777452  0.0  0.064843  -0.000671  4.062051  -0.001  0.068454  -0.000401  4.08021  0.0  0.008109  0.061573  -0.001477  4.051724  -0.001
C  C39  1  0.51605021  0.41280084  0.13156780  1  0.073663  0.000261  3.777567  0.0  0.0648  0.000671  4.062368  0.001  0.06842  0.000401  4.08052  0.0  0.008056  0.06153  0.001475  4.052046  0.001
C  C40  1  0.01604084  0.13155425  0.41281895  1  0.07371  -0.000261  3.777256  0.0  0.064861  -0.000671  4.061949  -0.001  0.068503  -0.000403  4.080146  0.0  0.008179  0.061585  -0.001477  4.05164  -0.001
C  C41  1  0.48394847  0.58720524  0.86842942  1  0.073699  0.000263  3.777537  0.0  0.064943  0.000671  4.062237  0.001  0.068552  0.000402  4.080392  0.0  0.008064  0.061672  0.001475  4.051915  0.001
C  C42  1  0.39958239  0.24805237  0.77440866  1  -0.006248  0.0019  3.749573  0.002  -0.043413  0.001395  4.012314  0.002  -0.039657  0.001074  4.032164  0.002  -0.010971  -0.046147  0.001584  3.999404  0.002
C  C43  1  0.10045533  0.22562763  0.75196527  1  -0.006387  -0.001892  3.749576  -0.002  -0.04352  -0.001395  4.012482  -0.002  -0.03975  -0.001073  4.032329  -0.002  -0.01105  -0.046272  -0.001584  3.999588  -0.002
C  C44  1  0.60042284  0.75193903  0.22559173  1  -0.006498  0.001897  3.749665  0.002  -0.043733  0.001395  4.012447  0.002  -0.039971  0.001071  4.0323  0.002  -0.011106  -0.046464  0.001584  3.999534  0.002
C  C45  1  0.89954120  0.77437520  0.24803037  1  -0.006331  -0.001891  3.749646  -0.002  -0.043491  -0.001394  4.012524  -0.002  -0.03972  -0.001071  4.032369  -0.002  -0.011042  -0.046243  -0.001584  3.999629  -0.002
C  C46  1  0.31795773  0.38599285  0.76005972  1  -0.028806  -0.003744  3.730656  -0.005  -0.064713  -9.6e-05  3.99305  0.0  -0.06467  -7.4e-05  4.013325  0.0  -0.013698  -0.064133  -8.1e-05  3.97854  0.0
C  C47  1  0.18206242  0.23998550  0.61399838  1  -0.028344  0.003745  3.730559  0.005  -0.064264  9.6e-05  3.992934  0.0  -0.064221  7.5e-05  4.013182  0.0  -0.013632  -0.063683  8.1e-05  3.97842  0.0
C  C48  1  0.68205129  0.61400280  0.23993561  1  -0.028619  -0.003745  3.730652  -0.005  -0.06458  -9.6e-05  3.993025  0.0  -0.06454  -7.2e-05  4.013298  0.0  -0.013668  -0.063994  -8.1e-05  3.978512  0.0
C  C49  1  0.81793816  0.76001425  0.38599871  1  -0.028335  0.003744  3.730632  0.005  -0.064245  9.6e-05  3.993  0.0  -0.064205  7.4e-05  4.013259  0.0  -0.013646  -0.063665  8.1e-05  3.978486  0.0
C  C50  1  0.33296592  0.29028789  0.97797018  1  0.212887  0.001575  3.660815  0.002  0.146399  0.002383  3.93226  0.003  0.162657  0.001635  3.944535  0.002  0.127735  0.135735  0.002988  3.923778  0.004
C  C51  1  0.16706739  0.02211626  0.70970087  1  0.213023  -0.001545  3.660601  -0.002  0.146513  -0.002382  3.932185  -0.003  0.162754  -0.001633  3.944447  -0.002  0.12796  0.135834  -0.002987  3.923675  -0.004
C  C52  1  0.66703808  0.70971088  0.02202780  1  0.212888  0.001577  3.660798  0.002  0.146376  0.002384  3.932234  0.003  0.162646  0.001635  3.944511  0.002  0.127677  0.135714  0.002989  3.923759  0.004
C  C53  1  0.83293156  0.97788559  0.29029791  1  0.213042  -0.001551  3.660637  -0.002  0.146533  -0.002382  3.932225  -0.003  0.162778  -0.001633  3.944484  -0.002  0.1279  0.135851  -0.002988  3.923721  -0.004
N  N54  1  0.40817550  0.18931416  0.91102981  1  -0.379611  -0.038729  3.375408  -0.056  -0.272146  0.005491  3.657081  0.008  -0.299846  0.00485  3.672043  0.007  -0.368367  -0.254864  0.005683  3.647597  0.008
N  N55  1  0.09188064  0.08902901  0.81070524  1  -0.379654  0.038723  3.375576  0.056  -0.272199  -0.005488  3.657302  -0.008  -0.299932  -0.004849  3.672311  -0.007  -0.368445  -0.254907  -0.005677  3.647779  -0.008
N  N56  1  0.59182713  0.81068250  0.08897142  1  -0.379498  -0.038731  3.375178  -0.056  -0.27204  0.005491  3.656886  0.008  -0.299727  0.004851  3.671827  0.007  -0.368308  -0.254757  0.005683  3.647396  0.008
N  N57  1  0.90811694  0.91097385  0.18929183  1  -0.379648  0.038724  3.375526  0.056  -0.272234  -0.005487  3.657301  -0.008  -0.29997  -0.00485  3.67231  -0.007  -0.36843  -0.254942  -0.005676  3.647777  -0.008
N  N58  1  0.27610160  0.41003602  0.88964992  1  -0.289403  -0.002119  3.484666  -0.003  -0.221504  0.00067  3.720047  0.001  -0.237972  0.000457  3.73555  0.001  -0.3871  -0.210064  0.000825  3.708206  0.001
N  N59  1  0.22392791  0.11042400  0.58994111  1  -0.289747  0.002129  3.484595  0.003  -0.221764  -0.00067  3.720097  -0.001  -0.238235  -0.000458  3.735612  -0.001  -0.387274  -0.210315  -0.000825  3.708241  -0.001
N  N60  1  0.72390578  0.58996173  0.11034617  1  -0.289475  -0.002119  3.484699  -0.003  -0.221548  0.00067  3.720105  0.001  -0.238012  0.000457  3.735603  0.001  -0.38708  -0.210114  0.000825  3.708266  0.001
N  N61  1  0.77607272  0.88957578  0.41005874  1  -0.289848  0.002129  3.484642  0.003  -0.221847  -0.00067  3.720132  -0.001  -0.238319  -0.000458  3.735644  -0.001  -0.387254  -0.2104  -0.000825  3.708278  -0.001
Cl  Cl62  1  0.25849771  0.73212402  0.46844420  1  -0.053039  -0.000259  1.431611  0.0  -0.042417  -0.000456  1.672223  -0.001  -0.044192  -0.000221  1.665988  0.0  0.023298  -0.041592  -0.000415  1.677304  0.0
Cl  Cl63  1  0.24149551  0.53150438  0.26792287  1  -0.05302  0.000259  1.431779  0.0  -0.042387  0.000455  1.672378  0.001  -0.044174  0.000221  1.666149  0.0  0.023307  -0.041559  0.000415  1.677461  0.0
Cl  Cl64  1  0.74149790  0.26787577  0.53156420  1  -0.05303  -0.000258  1.431653  0.0  -0.042404  -0.000456  1.672253  -0.001  -0.044182  -0.000221  1.66603  0.0  0.023307  -0.041576  -0.000415  1.677335  0.0
Cl  Cl65  1  0.75850073  0.46849952  0.73207433  1  -0.053036  0.000258  1.431726  0.0  -0.042401  0.000456  1.672332  0.001  -0.044187  0.000221  1.6661  0.0  0.0233  -0.041574  0.000415  1.677415  0.0
Cl  Cl66  1  0.96337420  0.70625591  0.69387274  1  -0.046607  -0.000135  1.384091  0.0  -0.033917  -0.000384  1.617907  -0.001  -0.03448  -0.000182  1.610861  0.0  0.02104  -0.03448  -0.000318  1.623579  0.0
Cl  Cl67  1  0.53664788  0.30609262  0.29377722  1  -0.046583  0.000136  1.384077  0.0  -0.033819  0.000383  1.617916  0.001  -0.034392  0.000183  1.610864  0.0  0.021171  -0.034365  0.000317  1.623592  0.0
Cl  Cl68  1  0.03662242  0.29374388  0.30613432  1  -0.046639  -0.000135  1.38397  0.0  -0.033908  -0.000384  1.617825  -0.001  -0.034473  -0.000182  1.610773  0.0  0.02103  -0.034467  -0.000318  1.623503  0.0
Cl  Cl69  1  0.46334671  0.69391338  0.70622074  1  -0.046621  0.000135  1.384121  0.0  -0.033881  0.000384  1.617922  0.001  -0.034454  0.000183  1.610877  0.0  0.021148  -0.034428  0.000317  1.623599  0.0
O  O70  1  0.29760235  0.00752068  0.17402044  1  -0.604916  -0.024092  2.093723  -0.044  -0.535796  -0.020601  2.33204  -0.032  -0.567191  -0.017719  2.321767  -0.028  -0.277032  -0.513792  -0.021625  2.338703  -0.033
O  O71  1  0.20242866  0.82593891  0.99246477  1  -0.605243  0.024072  2.093721  0.044  -0.535908  0.020597  2.331848  0.032  -0.567263  0.017713  2.321578  0.028  -0.277131  -0.513913  0.021622  2.338494  0.033
O  O72  1  0.70239417  0.99247591  0.82598512  1  -0.604973  -0.024095  2.09372  -0.044  -0.535852  -0.020603  2.332103  -0.032  -0.567262  -0.017721  2.321849  -0.028  -0.277091  -0.513845  -0.021627  2.338764  -0.033
O  O73  1  0.79756522  0.17406914  0.00752893  1  -0.60543  0.02407  2.093703  0.044  -0.536137  0.020596  2.331884  0.032  -0.567487  0.017712  2.321603  0.028  -0.27729  -0.51414  0.021622  2.338536  0.033
O  O74  1  0.36256698  0.03868513  0.33595396  1  -0.609474  0.00186  1.962718  0.003  -0.557528  0.000706  2.183003  0.001  -0.582648  0.000641  2.173671  0.001  -0.303357  -0.540106  8.4e-05  2.188936  0.0
O  O75  1  0.13738503  0.66400693  0.96143252  1  -0.609679  -0.00186  1.962727  -0.003  -0.557671  -0.000705  2.182878  -0.001  -0.582788  -0.00064  2.173587  -0.001  -0.303378  -0.540251  -8.4e-05  2.188765  0.0
O  O76  1  0.63743557  0.96130523  0.66405257  1  -0.609616  0.001862  1.962605  0.003  -0.557599  0.000706  2.182881  0.001  -0.582719  0.000642  2.17356  0.001  -0.303389  -0.540173  8.4e-05  2.188808  0.0
O  O77  1  0.86261085  0.33599488  0.03856751  1  -0.609763  -0.00186  1.962605  -0.003  -0.557727  -0.000705  2.18275  -0.001  -0.582836  -0.000641  2.173455  -0.001  -0.303352  -0.540302  -8.4e-05  2.188634  0.0
O  O78  1  0.43324034  0.92022115  0.90686545  1  -0.838453  -0.039647  2.058396  -0.061  -0.769374  -0.001408  2.286595  0.0  -0.797918  -0.001069  2.251244  0.0  -0.569472  -0.74861  -0.001872  2.309787  -0.001
O  O79  1  0.06645446  0.09302564  0.08019572  1  -0.838125  0.03961  2.058562  0.061  -0.769077  0.001385  2.286579  0.0  -0.797703  0.001051  2.251344  0.0  -0.569467  -0.748163  0.001847  2.309611  0.001
O  O80  1  0.56675892  0.07977652  0.09313766  1  -0.838497  -0.039647  2.058293  -0.061  -0.769409  -0.001408  2.286507  0.0  -0.797956  -0.001068  2.251151  0.0  -0.56954  -0.748638  -0.001872  2.309688  -0.001
O  O81  1  0.93354885  0.90697518  0.91979799  1  -0.838099  0.039612  2.058705  0.061  -0.769029  0.001385  2.286672  0.0  -0.797665  0.001051  2.251445  0.0  -0.569441  -0.748134  0.001847  2.309662  0.001
