# generated using pymatgen
data_YbH6(C2N3)3
_symmetry_space_group_name_H-M   'P 1'
_cell_length_a   9.18723104
_cell_length_b   9.18722562
_cell_length_c   12.47782683
_cell_angle_alpha   91.56842618
_cell_angle_beta   91.56832319
_cell_angle_gamma   118.92188453
_symmetry_Int_Tables_number   1
_chemical_formula_structural   YbH6(C2N3)3
_chemical_formula_sum   'Yb4 H24 C24 N36'
_cell_volume   920.50038198
_cell_formula_units_Z   4
loop_
 _symmetry_equiv_pos_site_id
 _symmetry_equiv_pos_as_xyz
  1  'x, y, z'
loop_
 _atom_site_type_symbol
 _atom_site_label
 _atom_site_symmetry_multiplicity
 _atom_site_fract_x
 _atom_site_fract_y
 _atom_site_fract_z
 _atom_site_occupancy
 _atom_site_hle17_bader_spin_density
 _atom_site_hle17_ddec_charge
 _atom_site_hle17_ddec_spin_density
 _atom_site_hle17_ddec_sum_bond_order
 _atom_site_hle17_magmom
 _atom_site_hse06_10hf_bader_spin_density
 _atom_site_hse06_10hf_ddec_charge
 _atom_site_hse06_10hf_ddec_spin_density
 _atom_site_hse06_10hf_ddec_sum_bond_order
 _atom_site_hse06_10hf_magmom
 _atom_site_hse06_bader_spin_density
 _atom_site_hse06_ddec_charge
 _atom_site_hse06_ddec_spin_density
 _atom_site_hse06_ddec_sum_bond_order
 _atom_site_hse06_magmom
 _atom_site_pbe_bader_spin_density
 _atom_site_pbe_cm5_charge
 _atom_site_pbe_ddec_charge
 _atom_site_pbe_ddec_spin_density
 _atom_site_pbe_ddec_sum_bond_order
 _atom_site_pbe_magmom
C  C0  1  0.26780704  0.38988519  0.29626624  1  0  0.027674  0  3.667188  0  0  -0.008181  0  3.936149  0  0  -0.004759  0  3.952693  0  0  0.018293  -0.010318  0  3.925147  0
C  C1  1  0.61011328  0.73219078  0.20373424  1  0  0.027619  0  3.667172  0  0  -0.008244  0  3.936152  0  0  -0.004821  0  3.952692  0  0  0.018274  -0.010378  0  3.925146  0
C  C2  1  0.73219280  0.61011565  0.70373288  1  0  0.027644  0  3.667229  0  0  -0.008216  0  3.936208  0  0  -0.004793  0  3.952745  0  0  0.018317  -0.010355  0  3.925204  0
C  C3  1  0.38988711  0.26780888  0.79626569  1  0  0.02754  0  3.667257  0  0  -0.008341  0  3.936227  0  0  -0.00492  0  3.95277  0  0  0.018261  -0.010473  0  3.925225  0
C  C4  1  0.21923702  0.51014813  0.31405796  1  0  0.012174  0  3.691593  0  0  -0.014533  0  3.958662  0  0  -0.013025  0  3.974371  0  0  0.011889  -0.015539  0  3.947469  0
C  C5  1  0.48985055  0.78076060  0.18594264  1  0  0.012174  0  3.691557  0  0  -0.014537  0  3.958638  0  0  -0.013027  0  3.974343  0  0  0.011883  -0.015541  0  3.947442  0
C  C6  1  0.78076124  0.48985158  0.68594277  1  0  0.012172  0  3.691601  0  0  -0.014538  0  3.958679  0  0  -0.013027  0  3.974381  0  0  0.011858  -0.015543  0  3.947484  0
C  C7  1  0.51014984  0.21923906  0.81405729  1  0  0.012319  0  3.691609  0  0  -0.014382  0  3.958653  0  0  -0.012874  0  3.974361  0  0  0.011939  -0.015388  0  3.947461  0
C  C8  1  0.83032653  0.14324338  0.38175951  1  0  0.005928  0  3.721164  0  0  -0.02481  0  3.987163  0  0  -0.021644  0  4.003606  0  0  0.014739  -0.027312  0  3.977049  0
C  C9  1  0.85675580  0.16967067  0.11823962  1  0  0.005969  0  3.72109  0  0  -0.024776  0  3.987101  0  0  -0.021613  0  4.003543  0  0  0.01475  -0.027275  0  3.976987  0
C  C10  1  0.16967397  0.85675876  0.61824043  1  0  0.00598  0  3.721111  0  0  -0.024756  0  3.98711  0  0  -0.021588  0  4.003539  0  0  0.014726  -0.027255  0  3.976995  0
C  C11  1  0.14324458  0.83032899  0.88176030  1  0  0.005996  0  3.721118  0  0  -0.024745  0  3.987121  0  0  -0.021579  0  4.003558  0  0  0.01476  -0.027244  0  3.977008  0
C  C12  1  0.86421235  0.01795872  0.41288355  1  0  0.003187  0  3.711351  0  0  -0.022442  0  3.973524  0  0  -0.021588  0  3.989485  0  0  0.011172  -0.023089  0  3.962685  0
C  C13  1  0.98203892  0.13578650  0.08711708  1  0  0.003336  0  3.711299  0  0  -0.022285  0  3.973444  0  0  -0.021427  0  3.989403  0  0  0.011208  -0.02293  0  3.962607  0
C  C14  1  0.13578869  0.98204223  0.58711719  1  0  0.003158  0  3.711348  0  0  -0.022469  0  3.973521  0  0  -0.021612  0  3.989475  0  0  0.011179  -0.023118  0  3.962683  0
C  C15  1  0.01796141  0.86421311  0.91288204  1  0  0.003238  0  3.711427  0  0  -0.022381  0  3.973581  0  0  -0.021525  0  3.989539  0  0  0.011192  -0.023028  0  3.962743  0
C  C16  1  0.28003997  0.99647230  0.16709143  1  0  0.001071  0  3.691282  0  0  -0.025605  0  3.957679  0  0  -0.02473  0  3.972909  0  0  0.011572  -0.026105  0  3.947612  0
C  C17  1  0.00352840  0.71996081  0.33290946  1  0  0.001179  0  3.691312  0  0  -0.025495  0  3.957676  0  0  -0.02462  0  3.972903  0  0  0.011621  -0.025996  0  3.947607  0
C  C18  1  0.71996042  0.00352735  0.83290850  1  0  0.001203  0  3.691355  0  0  -0.025468  0  3.957722  0  0  -0.024593  0  3.972957  0  0  0.011613  -0.025968  0  3.947654  0
C  C19  1  0.99647264  0.28004014  0.66709127  1  0  0.001201  0  3.691258  0  0  -0.025464  0  3.957641  0  0  -0.02459  0  3.972872  0  0  0.01162  -0.025963  0  3.947572  0
C  C20  1  0.38449859  0.09183474  0.08873373  1  0  0.029112  0  3.680502  0  0  -0.00838  0  3.94757  0  0  -0.004697  0  3.96411  0  0  0.018834  -0.010403  0  3.93621  0
C  C21  1  0.90816572  0.61550219  0.41126728  1  0  0.028966  0  3.680577  0  0  -0.008533  0  3.947666  0  0  -0.004853  0  3.964204  0  0  0.018792  -0.010552  0  3.936293  0
C  C22  1  0.61550245  0.90816622  0.91126700  1  0  0.028971  0  3.680668  0  0  -0.008543  0  3.947744  0  0  -0.004859  0  3.964287  0  0  0.018806  -0.010564  0  3.936382  0
C  C23  1  0.09183424  0.38449877  0.58873345  1  0  0.029066  0  3.680492  0  0  -0.008429  0  3.94756  0  0  -0.004744  0  3.964101  0  0  0.018849  -0.010448  0  3.936188  0
H  H24  1  0.22823019  0.29240615  0.23383970  1  0  0.108323  0  0.959064  0  0  0.116812  0  1.021322  0  0  0.118863  0  1.021102  0  0  0.122327  0.115376  0  1.02148  0
H  H25  1  0.70759342  0.77176879  0.26616074  1  0  0.10834  0  0.959046  0  0  0.116833  0  1.021294  0  0  0.118886  0  1.021072  0  0  0.122324  0.115395  0  1.021457  0
H  H26  1  0.77176971  0.70759475  0.76616023  1  0  0.108332  0  0.959061  0  0  0.116824  0  1.021314  0  0  0.118876  0  1.021092  0  0  0.122328  0.115386  0  1.021477  0
H  H27  1  0.29240806  0.22823087  0.73383918  1  0  0.108346  0  0.95907  0  0  0.116847  0  1.021312  0  0  0.118898  0  1.021093  0  0  0.122332  0.115415  0  1.021457  0
H  H28  1  0.13186076  0.53478306  0.26877222  1  0  0.111579  0  0.95711  0  0  0.11972  0  1.016842  0  0  0.121946  0  1.016477  0  0  0.121598  0.11856  0  1.016463  0
H  H29  1  0.46521626  0.86813784  0.23122765  1  0  0.111584  0  0.957119  0  0  0.119726  0  1.016846  0  0  0.121952  0  1.01648  0  0  0.121605  0.118566  0  1.016466  0
H  H30  1  0.86813745  0.46521659  0.73122770  1  0  0.11156  0  0.957147  0  0  0.119703  0  1.016877  0  0  0.121929  0  1.016509  0  0  0.121588  0.118542  0  1.016497  0
H  H31  1  0.53478582  0.13186306  0.76877228  1  0  0.111548  0  0.957143  0  0  0.119692  0  1.016871  0  0  0.121919  0  1.016503  0  0  0.121586  0.118531  0  1.016492  0
H  H32  1  0.90225930  0.25177564  0.33601960  1  0  0.101305  0  0.972791  0  0  0.10644  0  1.041716  0  0  0.108796  0  1.040887  0  0  0.119926  0.104719  0  1.042667  0
H  H33  1  0.74822201  0.09773940  0.16398036  1  0  0.101273  0  0.972793  0  0  0.106412  0  1.041718  0  0  0.108759  0  1.04091  0  0  0.119921  0.104692  0  1.042667  0
H  H34  1  0.09774174  0.74822532  0.66398113  1  0  0.10131  0  0.972764  0  0  0.106453  0  1.041674  0  0  0.108801  0  1.040865  0  0  0.119941  0.104733  0  1.042622  0
H  H35  1  0.25177772  0.90225896  0.83601876  1  0  0.101279  0  0.972789  0  0  0.106417  0  1.041716  0  0  0.108766  0  1.040902  0  0  0.119921  0.104696  0  1.042666  0
H  H36  1  0.97013001  0.99987191  0.39793127  1  0  0.104145  0  0.960879  0  0  0.111603  0  1.025165  0  0  0.114082  0  1.024343  0  0  0.119344  0.109904  0  1.025767  0
H  H37  1  0.00012519  0.02986806  0.10206914  1  0  0.104111  0  0.960865  0  0  0.111573  0  1.025151  0  0  0.114053  0  1.024328  0  0  0.119342  0.109873  0  1.025754  0
H  H38  1  0.02987043  0.00012780  0.60206946  1  0  0.104152  0  0.960877  0  0  0.111606  0  1.025165  0  0  0.114086  0  1.024342  0  0  0.119345  0.109908  0  1.025767  0
H  H39  1  0.99987340  0.97013024  0.89792917  1  0  0.104148  0  0.960883  0  0  0.111601  0  1.025173  0  0  0.114081  0  1.024351  0  0  0.119351  0.109903  0  1.025775  0
H  H40  1  0.16345069  0.88049120  0.15898285  1  0  0.114377  0  0.963774  0  0  0.121149  0  1.027731  0  0  0.124116  0  1.026082  0  0  0.123358  0.118954  0  1.029123  0
H  H41  1  0.11950849  0.83654973  0.34101724  1  0  0.114392  0  0.963782  0  0  0.121181  0  1.027713  0  0  0.124148  0  1.026063  0  0  0.123367  0.118985  0  1.029106  0
H  H42  1  0.83654970  0.11950846  0.84101708  1  0  0.114355  0  0.963755  0  0  0.121141  0  1.0277  0  0  0.124105  0  1.026055  0  0  0.123355  0.118944  0  1.029097  0
H  H43  1  0.88049032  0.16345117  0.65898268  1  0  0.114358  0  0.963777  0  0  0.121129  0  1.027735  0  0  0.124096  0  1.026086  0  0  0.123356  0.118932  0  1.029128  0
H  H44  1  0.37228192  0.07366492  0.00232737  1  0  0.101734  0  0.98142  0  0  0.110532  0  1.045192  0  0  0.112508  0  1.045227  0  0  0.120947  0.108761  0  1.045843  0
H  H45  1  0.92633496  0.62771864  0.49767363  1  0  0.101759  0  0.981375  0  0  0.110555  0  1.045151  0  0  0.112522  0  1.045211  0  0  0.120945  0.108782  0  1.045803  0
H  H46  1  0.62771852  0.92633479  0.99767336  1  0  0.101739  0  0.981451  0  0  0.110548  0  1.045213  0  0  0.112531  0  1.045229  0  0  0.120937  0.108777  0  1.045865  0
H  H47  1  0.07366499  0.37228231  0.50232710  1  0  0.101746  0  0.981417  0  0  0.110544  0  1.045189  0  0  0.112523  0  1.045213  0  0  0.120949  0.108772  0  1.045838  0
N  N48  1  0.38470575  0.41361045  0.37359544  1  0  -0.321235  0  3.27122  0  0  -0.279579  0  3.565915  0  0  -0.29381  0  3.587305  0  0  -0.323859  -0.269585  0  3.550998  0
N  N49  1  0.58638913  0.61529336  0.12640417  1  0  -0.321245  0  3.271218  0  0  -0.279586  0  3.565908  0  0  -0.293821  0  3.587306  0  0  -0.323858  -0.269592  0  3.550994  0
N  N50  1  0.61529410  0.58639040  0.62640368  1  0  -0.321204  0  3.271139  0  0  -0.279542  0  3.56583  0  0  -0.29377  0  3.587212  0  0  -0.323846  -0.269546  0  3.550912  0
N  N51  1  0.41361126  0.38470630  0.87359575  1  0  -0.32116  0  3.271191  0  0  -0.2795  0  3.565879  0  0  -0.293724  0  3.587259  0  0  -0.323838  -0.269505  0  3.550964  0
N  N52  1  0.40707699  0.54464084  0.43507526  1  0  -0.223848  0  3.371897  0  0  -0.184342  0  3.661687  0  0  -0.195276  0  3.687772  0  0  -0.281187  -0.176351  0  3.643321  0
N  N53  1  0.45535929  0.59292076  0.06492443  1  0  -0.223809  0  3.371946  0  0  -0.184309  0  3.661746  0  0  -0.195242  0  3.687829  0  0  -0.281173  -0.17632  0  3.643388  0
N  N54  1  0.59292225  0.45535876  0.56492387  1  0  -0.223823  0  3.371941  0  0  -0.184322  0  3.661736  0  0  -0.195256  0  3.687815  0  0  -0.281181  -0.176334  0  3.643371  0
N  N55  1  0.54464050  0.40707765  0.93507549  1  0  -0.223836  0  3.371993  0  0  -0.184326  0  3.661781  0  0  -0.195263  0  3.687869  0  0  -0.281164  -0.176338  0  3.643422  0
N  N56  1  0.30899146  0.60507774  0.40155211  1  0  -0.313969  0  3.167587  0  0  -0.275841  0  3.446441  0  0  -0.287043  0  3.467141  0  0  -0.304207  -0.268186  0  3.432653  0
N  N57  1  0.39492208  0.69100647  0.09844769  1  0  -0.31397  0  3.167567  0  0  -0.27584  0  3.446424  0  0  -0.287042  0  3.467124  0  0  -0.304215  -0.268184  0  3.432639  0
N  N58  1  0.69100675  0.39492191  0.59844781  1  0  -0.313987  0  3.167602  0  0  -0.27586  0  3.446456  0  0  -0.287059  0  3.467151  0  0  -0.30422  -0.268203  0  3.432666  0
N  N59  1  0.60507825  0.30899313  0.90155144  1  0  -0.314057  0  3.167717  0  0  -0.275939  0  3.446586  0  0  -0.287141  0  3.467287  0  0  -0.304254  -0.268283  0  3.432801  0
N  N60  1  0.68202481  0.11111688  0.42089665  1  0  -0.316464  0  3.259046  0  0  -0.276293  0  3.553077  0  0  -0.289961  0  3.573461  0  0  -0.318667  -0.266412  0  3.539346  0
N  N61  1  0.88888031  0.31797265  0.07910255  1  0  -0.316423  0  3.258988  0  0  -0.276247  0  3.553002  0  0  -0.28991  0  3.573385  0  0  -0.31864  -0.266364  0  3.539273  0
N  N62  1  0.31797444  0.88888272  0.57910247  1  0  -0.316479  0  3.25901  0  0  -0.276307  0  3.553043  0  0  -0.289971  0  3.573418  0  0  -0.318637  -0.266426  0  3.539312  0
N  N63  1  0.11112008  0.68202701  0.92089737  1  0  -0.316458  0  3.259024  0  0  -0.276287  0  3.553041  0  0  -0.289952  0  3.573426  0  0  -0.318657  -0.266405  0  3.539315  0
N  N64  1  0.62829941  0.97104788  0.47378507  1  0  -0.22263  0  3.352417  0  0  -0.187552  0  3.652245  0  0  -0.198208  0  3.676565  0  0  -0.274196  -0.179365  0  3.634643  0
N  N65  1  0.02895024  0.37169935  0.02621556  1  0  -0.222683  0  3.352504  0  0  -0.187619  0  3.652353  0  0  -0.198277  0  3.676678  0  0  -0.274216  -0.179434  0  3.634755  0
N  N66  1  0.37169988  0.02895177  0.52621485  1  0  -0.222633  0  3.352399  0  0  -0.187555  0  3.652231  0  0  -0.198211  0  3.676549  0  0  -0.274209  -0.179368  0  3.634628  0
N  N67  1  0.97105015  0.62830030  0.97378437  1  0  -0.222677  0  3.352497  0  0  -0.187608  0  3.652338  0  0  -0.198265  0  3.67666  0  0  -0.274211  -0.179423  0  3.634741  0
N  N68  1  0.73535701  0.91241532  0.47062193  1  0  -0.30965  0  3.151796  0  0  -0.276926  0  3.437982  0  0  -0.286823  0  3.457045  0  0  -0.299484  -0.269651  0  3.425132  0
N  N69  1  0.08758359  0.26464151  0.02937939  1  0  -0.30977  0  3.151907  0  0  -0.277056  0  3.438102  0  0  -0.286956  0  3.457168  0  0  -0.299532  -0.269781  0  3.425256  0
N  N70  1  0.26464289  0.08758558  0.52937800  1  0  -0.309666  0  3.151786  0  0  -0.276953  0  3.437986  0  0  -0.28685  0  3.457047  0  0  -0.299504  -0.269678  0  3.425137  0
N  N71  1  0.91241679  0.73535815  0.97062054  1  0  -0.30972  0  3.151918  0  0  -0.277003  0  3.438102  0  0  -0.286902  0  3.457166  0  0  -0.299514  -0.269727  0  3.425255  0
N  N72  1  0.35306366  0.07224907  0.26357260  1  0  -0.316198  0  3.142292  0  0  -0.27951  0  3.42341  0  0  -0.289254  0  3.441415  0  0  -0.293353  -0.272962  0  3.412027  0
N  N73  1  0.92775012  0.64693626  0.23642841  1  0  -0.316203  0  3.142329  0  0  -0.279518  0  3.423454  0  0  -0.289263  0  3.441461  0  0  -0.29336  -0.272972  0  3.412077  0
N  N74  1  0.64693678  0.92775063  0.73642813  1  0  -0.316182  0  3.142382  0  0  -0.279497  0  3.423505  0  0  -0.289241  0  3.44151  0  0  -0.293358  -0.272949  0  3.412121  0
N  N75  1  0.07224923  0.35306345  0.76357231  1  0  -0.316271  0  3.142358  0  0  -0.27959  0  3.42349  0  0  -0.289334  0  3.441498  0  0  -0.293399  -0.273045  0  3.412113  0
N  N76  1  0.49555230  0.20740023  0.24401596  1  0  -0.218812  0  3.344878  0  0  -0.180115  0  3.63458  0  0  -0.19055  0  3.659174  0  0  -0.271741  -0.172835  0  3.617991  0
N  N77  1  0.79259969  0.50444854  0.25598506  1  0  -0.21886  0  3.344934  0  0  -0.180164  0  3.634648  0  0  -0.190601  0  3.659245  0  0  -0.271754  -0.172888  0  3.618061  0
N  N78  1  0.50444814  0.79259948  0.75598477  1  0  -0.218857  0  3.344865  0  0  -0.180155  0  3.634576  0  0  -0.190592  0  3.659171  0  0  -0.271738  -0.172876  0  3.617986  0
N  N79  1  0.20739966  0.49555117  0.74401567  1  0  -0.218788  0  3.344859  0  0  -0.180087  0  3.634558  0  0  -0.190523  0  3.659153  0  0  -0.271726  -0.17281  0  3.617973  0
N  N80  1  0.51794528  0.22349690  0.13869330  1  0  -0.313761  0  3.245536  0  0  -0.267698  0  3.531371  0  0  -0.281571  0  3.552254  0  0  -0.320107  -0.257554  0  3.5163  0
N  N81  1  0.77650402  0.48205488  0.36130771  1  0  -0.313718  0  3.24555  0  0  -0.267648  0  3.531372  0  0  -0.281517  0  3.552253  0  0  -0.320096  -0.257501  0  3.516297  0
N  N82  1  0.48205472  0.77650410  0.86130823  1  0  -0.313712  0  3.245538  0  0  -0.267644  0  3.531366  0  0  -0.281516  0  3.55225  0  0  -0.320089  -0.2575  0  3.516296  0
N  N83  1  0.22349642  0.51794483  0.63869302  1  0  -0.313784  0  3.245514  0  0  -0.267721  0  3.53135  0  0  -0.281591  0  3.552227  0  0  -0.320134  -0.257576  0  3.516278  0
Yb  Yb84  1  0.52316379  0.25923871  0.42776064  1  0  1.835973  0  2.140292  0  0  1.62557  0  2.647378  0  0  1.702643  0  2.568738  0  0  1.872816  1.569406  0  2.703368  0
Yb  Yb85  1  0.74076150  0.47683525  0.07223878  1  0  1.835985  0  2.140251  0  0  1.625586  0  2.647322  0  0  1.702666  0  2.568679  0  0  1.872787  1.569431  0  2.70331  0
Yb  Yb86  1  0.47683550  0.74076094  0.57223929  1  0  1.835942  0  2.140312  0  0  1.625516  0  2.647432  0  0  1.702588  0  2.568796  0  0  1.87278  1.569354  0  2.703421  0
Yb  Yb87  1  0.25923828  0.52316317  0.92776114  1  0  1.835967  0  2.140273  0  0  1.625582  0  2.647326  0  0  1.702655  0  2.568688  0  0  1.872802  1.569421  0  2.703321  0
