# generated using pymatgen
data_CuH18C18N4O5
_symmetry_space_group_name_H-M   'P 1'
_cell_length_a   8.25631336
_cell_length_b   9.78766675
_cell_length_c   11.96926998
_cell_angle_alpha   104.58253374
_cell_angle_beta   97.18093413
_cell_angle_gamma   104.54445836
_symmetry_Int_Tables_number   1
_chemical_formula_structural   CuH18C18N4O5
_chemical_formula_sum   'Cu2 H36 C36 N8 O10'
_cell_volume   887.60002185
_cell_formula_units_Z   2
loop_
 _symmetry_equiv_pos_site_id
 _symmetry_equiv_pos_as_xyz
  1  'x, y, z'
loop_
 _atom_site_type_symbol
 _atom_site_label
 _atom_site_symmetry_multiplicity
 _atom_site_fract_x
 _atom_site_fract_y
 _atom_site_fract_z
 _atom_site_occupancy
 _atom_site_hle17_ddec_charge
 _atom_site_hle17_ddec_spin_density
 _atom_site_hle17_ddec_sum_bond_order
 _atom_site_hle17_magmom
 _atom_site_hse06_10hf_ddec_charge
 _atom_site_hse06_10hf_ddec_spin_density
 _atom_site_hse06_10hf_ddec_sum_bond_order
 _atom_site_hse06_10hf_magmom
 _atom_site_hse06_ddec_charge
 _atom_site_hse06_ddec_spin_density
 _atom_site_hse06_ddec_sum_bond_order
 _atom_site_hse06_magmom
 _atom_site_pbe_cm5_charge
 _atom_site_pbe_ddec_charge
 _atom_site_pbe_ddec_spin_density
 _atom_site_pbe_ddec_sum_bond_order
 _atom_site_pbe_magmom
Cu  Cu0  1  0.00000440  0.00000215  0.99999911  1  0.827437  0.662478  1.800588  0.49  0.805224  0.751953  2.181145  0.6  0.897193  0.816298  2.110545  0.682  0.740773  0.748606  0.709579  2.230766  0.55
Cu  Cu1  1  0.50000346  0.50000396  0.50000502  1  0.841624  0.686478  1.758281  0.509  0.813835  0.775753  2.141762  0.621  0.907336  0.836754  2.071006  0.701  0.730004  0.753687  0.734612  2.194399  0.571
H  H2  1  0.54712258  0.57877986  0.82160411  1  0.1015  0.000261  0.954907  0.0  0.108751  0.000277  1.020997  0.0  0.11151  0.000172  1.019899  0.0  0.100429  0.106748  0.000369  1.021946  0.0
H  H3  1  0.45288049  0.42122458  0.17839071  1  0.101512  0.000256  0.955009  0.0  0.108797  0.000277  1.021054  0.0  0.111534  0.000172  1.01998  0.0  0.10043  0.106795  0.000369  1.022  0.0
H  H4  1  0.34970278  0.33298608  0.80082308  1  0.105234  -2.1e-05  0.964583  0.0  0.112449  2.3e-05  1.030999  0.0  0.115753  1.7e-05  1.029122  0.0  0.100554  0.109961  1.1e-05  1.032562  0.0
H  H5  1  0.65030064  0.66701944  0.19917032  1  0.105245  -2e-05  0.964563  0.0  0.112471  2.2e-05  1.030993  0.0  0.115776  1.7e-05  1.029121  0.0  0.100564  0.109996  1.1e-05  1.032542  0.0
H  H6  1  0.00027449  0.89242647  0.22525786  1  0.10041  3.6e-05  0.97598  0.0  0.107003  8.5e-05  1.045299  0.0  0.108729  5.7e-05  1.043455  0.0  0.132338  0.105561  0.00011  1.046814  0.0
H  H7  1  0.99972668  0.10757248  0.77473822  1  0.100511  3.8e-05  0.975984  0.0  0.107109  8.5e-05  1.045277  0.0  0.108837  5.7e-05  1.043432  0.0  0.132363  0.105663  0.00011  1.046793  0.0
H  H8  1  0.36043591  0.92586030  0.00539743  1  0.100314  0.000156  0.96816  0.0  0.109586  0.000342  1.031383  0.001  0.111551  0.00025  1.03092  0.0  0.11644  0.108021  0.000415  1.031952  0.001
H  H9  1  0.63957399  0.07413200  0.99460386  1  0.100297  0.000155  0.968216  0.0  0.109569  0.000342  1.031449  0.001  0.111519  0.00025  1.031003  0.0  0.116432  0.108007  0.000415  1.032017  0.001
H  H10  1  0.48131362  0.82679647  0.18793867  1  0.123142  0.000493  0.983244  0.001  0.129531  0.000403  1.049778  0.001  0.132865  0.000309  1.047204  0.0  0.122735  0.127035  0.000476  1.051768  0.001
H  H11  1  0.51868262  0.17319157  0.81206401  1  0.12305  0.000496  0.983376  0.001  0.129498  0.000403  1.049833  0.001  0.132831  0.000309  1.04726  0.0  0.122711  0.127002  0.000476  1.051827  0.001
H  H12  1  0.16244446  0.83859097  0.39425536  1  0.077971  -7.9e-05  0.958707  0.0  0.092218  -2.8e-05  1.024522  0.0  0.091453  -2.2e-05  1.027743  0.0  0.109314  0.092674  -4e-05  1.022362  0.0
H  H13  1  0.83754354  0.16139818  0.60574104  1  0.077984  -8.7e-05  0.95866  0.0  0.092205  -2.8e-05  1.02452  0.0  0.091439  -2.2e-05  1.027744  0.0  0.109315  0.092659  -4e-05  1.022362  0.0
H  H14  1  0.37692203  0.83192813  0.39315962  1  0.104505  0.000179  0.927619  0.0  0.121644  0.000129  0.98346  0.0  0.122816  9.4e-05  0.982851  0.0  0.118105  0.120836  0.000151  0.9838  0.0
H  H15  1  0.62306879  0.16806882  0.60684442  1  0.104594  0.000173  0.927412  0.0  0.121707  0.00013  0.983297  0.0  0.122878  9.4e-05  0.98268  0.0  0.11809  0.120894  0.000151  0.983638  0.0
H  H16  1  0.26973024  0.58287786  0.24682104  1  0.061278  -3e-05  0.93505  0.0  0.075482  -3e-05  1.001069  0.0  0.075614  -3.4e-05  1.001461  0.0  0.104813  0.075231  -1.4e-05  1.001046  0.0
H  H17  1  0.73027157  0.41711566  0.75318236  1  0.061286  -1.7e-05  0.935006  0.0  0.075492  -3e-05  1.001018  0.0  0.075621  -3.4e-05  1.001413  0.0  0.104837  0.075243  -1.3e-05  1.000986  0.0
H  H18  1  0.19788446  0.58799556  0.38166333  1  0.047751  -0.000314  0.941252  0.0  0.057188  -0.000301  1.015466  0.0  0.057192  -0.000302  1.014827  0.0  0.09503  0.056955  -0.000267  1.016216  0.0
H  H19  1  0.80211002  0.41199801  0.61833781  1  0.047721  -0.000306  0.941264  0.0  0.057136  -0.000301  1.015511  0.0  0.05714  -0.000303  1.014873  0.0  0.095004  0.056902  -0.000267  1.016256  0.0
H  H20  1  0.06047948  0.41298924  0.10979517  1  0.071292  8.7e-05  0.931507  0.0  0.085393  0.000126  0.993212  0.0  0.086939  6.8e-05  0.992092  0.0  0.10385  0.084292  0.000175  0.994012  0.0
H  H21  1  0.93951904  0.58700202  0.89020250  1  0.071289  8.6e-05  0.931488  0.0  0.085361  0.000126  0.993263  0.0  0.086905  6.8e-05  0.992147  0.0  0.103862  0.084258  0.000175  0.994063  0.0
H  H22  1  0.84332525  0.41622927  0.10536919  1  0.06826  8e-06  0.923113  0.0  0.081003  -1e-06  0.987559  0.0  0.080729  -3e-06  0.989031  0.0  0.104962  0.081121  3e-06  0.986611  0.0
H  H23  1  0.15667082  0.58376538  0.89463146  1  0.068223  7e-06  0.923129  0.0  0.081011  -1e-06  0.987565  0.0  0.080742  -3e-06  0.989032  0.0  0.104965  0.081129  3e-06  0.986615  0.0
H  H24  1  0.92220271  0.20768721  0.17267119  1  0.091521  -0.000461  0.932236  0.0  0.100117  -0.000548  1.00966  0.0  0.101452  -0.000591  1.006238  0.0  0.116334  0.09856  -0.000468  1.012882  0.0
H  H25  1  0.07779014  0.79230861  0.82733195  1  0.091569  -0.000461  0.932155  0.0  0.100179  -0.000548  1.00953  0.0  0.101511  -0.000592  1.006112  0.0  0.116363  0.098629  -0.000468  1.012728  0.0
H  H26  1  0.05631524  0.34278863  0.30013514  1  0.092786  -3.8e-05  0.935206  0.0  0.108306  4.3e-05  0.997877  0.0  0.109807  -7e-06  0.996592  0.0  0.113866  0.10707  0.000102  0.998944  0.0
H  H27  1  0.94368568  0.65720596  0.69986505  1  0.092784  -4.4e-05  0.935236  0.0  0.108314  4.3e-05  0.997871  0.0  0.109816  -7e-06  0.996581  0.0  0.113856  0.107073  0.000102  0.99894  0.0
H  H28  1  0.85452312  0.53046700  0.40724306  1  0.102927  -0.000221  0.952487  0.0  0.110202  -7.9e-05  1.016613  0.0  0.113325  -8.6e-05  1.012543  0.0  0.135925  0.107841  -6.5e-05  1.019526  0.0
H  H29  1  0.14549888  0.46952770  0.59278141  1  0.102843  -0.00022  0.952447  0.0  0.110186  -7.9e-05  1.016487  0.0  0.113322  -8.6e-05  1.012391  0.0  0.135926  0.107763  -6.5e-05  1.019473  0.0
H  H30  1  0.64361194  0.08738869  0.19483023  1  0.123985  0.000595  0.996195  0.001  0.130763  0.000483  1.063227  0.001  0.133439  0.000366  1.062231  0.0  0.120561  0.128754  0.000573  1.064087  0.001
H  H31  1  0.35636977  0.91262808  0.80516118  1  0.123961  0.000597  0.996231  0.001  0.130749  0.000483  1.063236  0.001  0.133417  0.000366  1.062267  0.0  0.120539  0.128739  0.000574  1.064115  0.001
H  H32  1  0.40390699  0.17316149  0.32036574  1  0.112187  -0.000139  0.96176  0.0  0.12081  0.000102  1.019798  0.001  0.123225  4.6e-05  1.018975  0.0  0.11848  0.118959  0.000156  1.020541  0.001
H  H33  1  0.59608652  0.82685744  0.67963122  1  0.112239  -0.000137  0.961791  0.0  0.120853  0.000102  1.019844  0.001  0.123263  4.6e-05  1.019025  0.0  0.118528  0.119015  0.000156  1.020556  0.001
H  H34  1  0.00421286  0.84695114  0.63617984  1  0.099397  0.000494  0.97702  0.0  0.106861  0.000441  1.044485  0.0  0.109732  0.000299  1.043275  0.0  0.10421  0.104865  0.000565  1.045324  0.0
H  H35  1  0.99578948  0.15304776  0.36381382  1  0.099435  0.000489  0.976921  0.0  0.106826  0.00044  1.044473  0.0  0.109697  0.000299  1.043262  0.0  0.104212  0.104825  0.000565  1.045317  0.0
H  H36  1  0.74667515  0.93431581  0.33934146  1  0.106259  4e-06  0.963014  0.0  0.112102  3e-06  1.031763  0.0  0.116135  5e-06  1.028609  0.0  0.104174  0.10929  1.3e-05  1.033916  0.0
H  H37  1  0.25332963  0.06568307  0.66065239  1  0.106262  -4e-06  0.962886  0.0  0.11212  3e-06  1.031636  0.0  0.116151  5e-06  1.028483  0.0  0.104129  0.109308  1.3e-05  1.033787  0.0
C  C38  1  0.52678275  0.54403007  0.89970620  1  -0.081495  0.000387  3.731374  0.0  -0.105691  0.000327  3.986217  0.0  -0.105783  3.8e-05  4.00579  0.0  -0.089605  -0.105427  0.000827  3.972779  0.001
C  C39  1  0.47321500  0.45597662  0.10028782  1  -0.081484  0.000427  3.731595  0.0  -0.105677  0.000325  3.986434  0.0  -0.10575  4.2e-05  4.006017  0.0  -0.089547  -0.105413  0.000827  3.973  0.001
C  C40  1  0.61220556  0.63952834  0.01163826  1  -0.056421  0.009924  3.753716  0.011  -0.03287  0.006005  3.981413  0.007  -0.039199  0.00411  4.002797  0.005  -0.017705  -0.028741  0.007382  3.966827  0.008
C  C41  1  0.38779175  0.36048057  0.98835617  1  -0.056375  0.009908  3.753706  0.011  -0.032871  0.006005  3.981407  0.007  -0.039198  0.004107  4.002783  0.005  -0.017734  -0.028748  0.007381  3.966821  0.008
C  C42  1  0.41519983  0.40597438  0.88831955  1  -0.081254  0.000251  3.737485  0.001  -0.105376  0.000693  3.989937  0.001  -0.106972  0.000331  4.01031  0.001  -0.087507  -0.104099  0.000937  3.976165  0.001
C  C43  1  0.58479836  0.59403346  0.11167808  1  -0.081297  0.000225  3.737474  0.001  -0.1055  0.000694  3.989996  0.001  -0.107098  0.000329  4.010365  0.001  -0.087584  -0.104236  0.000938  3.976218  0.001
C  C44  1  0.73217883  0.78937779  0.02631190  1  0.629385  -0.009149  3.910439  -0.009  0.587726  -0.002997  4.209743  -0.004  0.624791  -0.003652  4.203295  -0.004  0.198474  0.562718  -0.002275  4.21324  -0.004
C  C45  1  0.26781770  0.21063228  0.97368604  1  0.629304  -0.009138  3.91049  -0.009  0.587658  -0.002998  4.209802  -0.004  0.624725  -0.003651  4.203347  -0.004  0.19841  0.562655  -0.002275  4.213294  -0.004
C  C46  1  0.11443902  0.89015830  0.19024748  1  0.161903  -0.009417  3.641788  -0.005  0.102629  -0.003246  3.908029  -0.001  0.119116  -0.004521  3.920071  -0.002  0.140508  0.091886  -0.00229  3.900274  -0.001
C  C47  1  0.88556231  0.10983740  0.80975381  1  0.161684  -0.00943  3.64185  -0.005  0.102409  -0.003248  3.908077  -0.001  0.118895  -0.004523  3.920122  -0.002  0.140447  0.09168  -0.002291  3.900315  -0.001
C  C48  1  0.30348991  0.90338821  0.07802224  1  -0.004747  -0.000785  3.739435  0.0  -0.034281  0.000406  4.004706  0.001  -0.031347  -0.000455  4.025874  0.0  -0.004565  -0.035922  0.001044  3.990522  0.001
C  C49  1  0.69651670  0.09660521  0.92197735  1  -0.004915  -0.000775  3.739661  0.0  -0.034469  0.000406  4.004978  0.001  -0.03152  -0.000455  4.026153  0.0  -0.00461  -0.036115  0.001045  3.990801  0.001
C  C50  1  0.36469183  0.85528683  0.16842042  1  -0.053171  0.003349  3.650748  0.003  -0.08951  0.001882  3.899329  0.002  -0.087516  0.001664  3.916856  0.002  0.007846  -0.090653  0.002041  3.887425  0.002
C  C51  1  0.63530674  0.14470448  0.83158060  1  -0.053109  0.003338  3.65084  0.003  -0.089488  0.001883  3.899377  0.002  -0.087497  0.001665  3.916902  0.002  0.007784  -0.090628  0.002041  3.887477  0.002
C  C52  1  0.24648529  0.79384378  0.34111319  1  -0.034186  0.000775  3.629524  0.001  -0.099638  0.000605  3.88309  0.001  -0.096365  0.000453  3.893876  0.001  -0.056805  -0.101667  0.000712  3.875692  0.001
C  C53  1  0.75350955  0.20615086  0.65888653  1  -0.034349  0.000808  3.629358  0.001  -0.099797  0.000604  3.882946  0.001  -0.096523  0.000453  3.893729  0.001  -0.056861  -0.101821  0.000712  3.875543  0.001
C  C54  1  0.18681756  0.62649437  0.30265621  1  0.068724  -0.000224  3.6501  0.0  0.010947  -0.000273  3.924366  0.0  0.017705  -0.000268  3.930508  0.0  -0.072445  0.006324  -0.000229  3.920377  0.0
C  C55  1  0.81318173  0.37350247  0.69734598  1  0.068807  -0.000285  3.650056  0.0  0.011064  -0.000269  3.924296  0.0  0.017821  -0.000268  3.930441  0.0  -0.072446  0.006442  -0.000228  3.920297  0.0
C  C56  1  0.96436919  0.43104545  0.16361085  1  0.064477  1e-06  3.639289  0.0  0.007017  8.7e-05  3.911167  0.0  0.013059  2e-05  3.916429  0.0  -0.072194  0.002917  0.000145  3.90739  0.0
C  C57  1  0.03562852  0.56894695  0.83638865  1  0.064641  4e-06  3.63952  0.0  0.007071  8.6e-05  3.911527  0.0  0.01311  2e-05  3.916792  0.0  -0.072175  0.002965  0.000145  3.907756  0.0
C  C58  1  0.94137550  0.31817552  0.23243933  1  -0.042592  0.000811  3.614165  0.001  -0.108025  0.000512  3.872911  0.001  -0.103649  0.000306  3.882297  0.0  -0.055497  -0.110636  0.000745  3.866709  0.001
C  C59  1  0.05861943  0.68181919  0.76756542  1  -0.042797  0.000822  3.614259  0.001  -0.108172  0.000513  3.872934  0.001  -0.103802  0.000306  3.882334  0.0  -0.055576  -0.110779  0.000746  3.866726  0.001
C  C60  1  0.76344631  0.42226167  0.36861303  1  0.163466  -0.007591  3.631501  -0.004  0.10743  -0.002327  3.89533  -0.001  0.123904  -0.003495  3.907646  -0.002  0.138658  0.09685  -0.001456  3.886898  0.0
C  C61  1  0.23656653  0.57773853  0.63140346  1  0.163611  -0.007597  3.631396  -0.004  0.107503  -0.002327  3.895148  -0.001  0.123976  -0.003495  3.907459  -0.002  0.138714  0.096974  -0.001456  3.886749  0.0
C  C62  1  0.64769636  0.19109608  0.25628768  1  -0.079334  0.003798  3.678519  0.004  -0.117502  0.002111  3.929985  0.002  -0.117525  0.001815  3.950399  0.002  -0.002039  -0.117535  0.002345  3.916391  0.003
C  C63  1  0.35229489  0.80891291  0.74370794  1  -0.079339  0.003805  3.678453  0.004  -0.117509  0.00211  3.929941  0.002  -0.117531  0.001814  3.95035  0.002  -0.001973  -0.11755  0.002345  3.916354  0.003
C  C64  1  0.53302681  0.23382113  0.32068232  1  0.00818  -0.001253  3.734906  0.0  -0.020618  0.000103  3.998726  0.001  -0.016539  -0.000807  4.01942  0.0  -0.005389  -0.023239  0.000791  3.985034  0.001
C  C65  1  0.46697176  0.76619118  0.67931873  1  0.008113  -0.001264  3.734889  0.0  -0.020715  0.000103  3.998722  0.001  -0.016628  -0.000807  4.019405  0.0  -0.005476  -0.023344  0.000792  3.985056  0.001
C  C66  1  0.70769520  0.74577536  0.47086229  1  0.604923  -0.008056  3.931176  -0.008  0.563041  -0.002895  4.231474  -0.004  0.598942  -0.003258  4.226495  -0.003  0.191562  0.538957  -0.002386  4.233523  -0.004
C  C67  1  0.29230602  0.25422363  0.52913630  1  0.604816  -0.008027  3.931172  -0.008  0.562964  -0.002896  4.231475  -0.004  0.598867  -0.003258  4.226494  -0.003  0.191505  0.538878  -0.002387  4.233514  -0.004
C  C68  1  0.85969577  0.87663053  0.48651847  1  -0.055603  0.007747  3.750349  0.009  -0.033057  0.005013  3.979656  0.006  -0.038773  0.003488  3.999815  0.004  -0.017319  -0.029368  0.006193  3.96605  0.007
C  C69  1  0.14030899  0.12336834  0.51347454  1  -0.055498  0.007662  3.750221  0.009  -0.033019  0.005014  3.979621  0.006  -0.038744  0.003487  3.999782  0.004  -0.017251  -0.02932  0.006192  3.966002  0.007
C  C70  1  0.00357151  0.91394596  0.57635810  1  -0.088127  -0.000126  3.743384  0.0  -0.111432  0.000379  3.995068  0.0  -0.111593  0.000176  4.013788  0.0  -0.090796  -0.111184  0.00057  3.982379  0.0
C  C71  1  0.99643166  0.08605184  0.42363540  1  -0.088144  1e-05  3.743193  0.0  -0.111378  0.000377  3.994948  0.0  -0.111532  0.000177  4.013666  0.0  -0.090775  -0.11113  0.00057  3.982251  0.0
C  C72  1  0.85733321  0.96393760  0.41003930  1  -0.076417  -9.3e-05  3.729637  0.0  -0.099189  0.000204  3.979767  0.001  -0.099988  5.7e-05  3.998085  0.0  -0.084905  -0.098603  0.000338  3.967409  0.001
C  C73  1  0.14266714  0.03605911  0.58995375  1  -0.076513  5.5e-05  3.729528  0.001  -0.099285  0.000202  3.97972  0.001  -0.10008  5.8e-05  3.998038  0.0  -0.084901  -0.098703  0.000338  3.967371  0.001
N  N74  1  0.14738253  0.92450679  0.09290362  1  -0.357159  0.062817  3.383863  0.081  -0.309127  0.045203  3.695651  0.061  -0.339646  0.037929  3.71352  0.055  -0.388738  -0.290634  0.048949  3.685257  0.063
N  N75  1  0.85262321  0.07549108  0.90709763  1  -0.356812  0.062824  3.383809  0.081  -0.308773  0.045205  3.695541  0.061  -0.339291  0.037931  3.713411  0.055  -0.388631  -0.290282  0.048949  3.685146  0.063
N  N76  1  0.24479333  0.84980102  0.23917211  1  -0.049929  0.001179  3.570766  0.002  0.045799  0.000996  3.784095  0.002  0.031728  0.00061  3.808451  0.001  -0.240493  0.054989  0.001268  3.767566  0.002
N  N77  1  0.75520560  0.15019137  0.76082749  1  -0.0499  0.001174  3.570584  0.002  0.045866  0.000996  3.783874  0.002  0.031796  0.00061  3.80823  0.001  -0.240385  0.055045  0.001268  3.767361  0.002
N  N78  1  0.60665403  0.37821078  0.39067884  1  -0.36706  0.065611  3.346002  0.085  -0.32292  0.046493  3.662032  0.063  -0.354866  0.038146  3.680877  0.056  -0.378291  -0.303135  0.051125  3.651208  0.066
N  N79  1  0.39335496  0.62179266  0.60932880  1  -0.367099  0.065615  3.345858  0.085  -0.322909  0.046493  3.661855  0.063  -0.354858  0.038147  3.680699  0.056  -0.378298  -0.303115  0.051122  3.651023  0.066
N  N80  1  0.79201593  0.31130143  0.28735010  1  -0.051814  0.000845  3.57122  0.002  0.046286  0.000786  3.781927  0.001  0.031622  0.000453  3.807897  0.001  -0.240836  0.055892  0.001039  3.764245  0.002
N  N81  1  0.20798012  0.68869656  0.71265289  1  -0.05179  0.000835  3.571048  0.002  0.046302  0.000787  3.781762  0.001  0.031635  0.000452  3.807732  0.001  -0.240894  0.055913  0.001038  3.764062  0.002
O  O82  1  0.82132953  0.79835460  0.94576118  1  -0.587867  0.106651  2.018083  0.146  -0.56438  0.071224  2.289491  0.106  -0.608873  0.054505  2.285124  0.088  -0.32295  -0.534985  0.081876  2.292603  0.116
O  O83  1  0.17867243  0.20164994  0.05424026  1  -0.587936  0.106645  2.018106  0.146  -0.564395  0.071221  2.289501  0.106  -0.608888  0.054504  2.285131  0.088  -0.322956  -0.535002  0.081874  2.292613  0.116
O  O84  1  0.74395947  0.89636527  0.11492648  1  -0.640006  -0.001235  1.91872  0.001  -0.601337  -0.001062  2.157869  0.001  -0.627887  -0.002183  2.14833  0.0  -0.329181  -0.582847  -3.5e-05  2.163943  0.002
O  O85  1  0.25603511  0.10364263  0.88507338  1  -0.639935  -0.001249  1.918835  0.001  -0.601348  -0.001061  2.158072  0.001  -0.627896  -0.002184  2.148535  0.0  -0.329162  -0.582859  -3.5e-05  2.164146  0.002
O  O86  1  0.01450404  0.57955985  0.23867078  1  -0.317813  -1.5e-05  2.229407  0.0  -0.253199  -3.1e-05  2.482935  0.0  -0.268375  -4.7e-05  2.484186  0.0  -0.238616  -0.242242  9.5e-05  2.481638  0.0
O  O87  1  0.98549193  0.42043809  0.76132802  1  -0.317824  -1.6e-05  2.229622  0.0  -0.25318  -3.1e-05  2.483188  0.0  -0.268355  -4.6e-05  2.484442  0.0  -0.238594  -0.242223  9.5e-05  2.481887  0.0
O  O88  1  0.58038199  0.71658173  0.39067821  1  -0.604525  -0.001748  1.952089  0.001  -0.570239  -0.001403  2.194037  0.001  -0.595709  -0.002474  2.185913  0.0  -0.313027  -0.552439  -0.000427  2.198953  0.002
O  O89  1  0.41961960  0.28341835  0.60931981  1  -0.604532  -0.001774  1.95213  0.001  -0.570257  -0.001402  2.194086  0.001  -0.595713  -0.002475  2.185934  0.0  -0.313051  -0.552455  -0.000428  2.198996  0.002
O  O90  1  0.71885820  0.66854797  0.54395594  1  -0.596762  0.099986  2.020989  0.137  -0.571359  0.065881  2.29983  0.098  -0.614725  0.049894  2.293272  0.081  -0.325615  -0.542036  0.076313  2.304168  0.108
O  O91  1  0.28114653  0.33146098  0.45604661  1  -0.596689  0.09999  2.020957  0.137  -0.571272  0.065888  2.299782  0.098  -0.614653  0.049899  2.293245  0.081  -0.325531  -0.541937  0.076322  2.304098  0.108
