# generated using pymatgen
data_MgH4(C2O3)2
_symmetry_space_group_name_H-M   'P 1'
_cell_length_a   16.37730547
_cell_length_b   16.37726682
_cell_length_c   16.37729073
_cell_angle_alpha   90.00043308
_cell_angle_beta   89.99982667
_cell_angle_gamma   90.00031264
_symmetry_Int_Tables_number   1
_chemical_formula_structural   MgH4(C2O3)2
_chemical_formula_sum   'Mg24 H96 C96 O144'
_cell_volume   4392.64324530
_cell_formula_units_Z   24
loop_
 _symmetry_equiv_pos_site_id
 _symmetry_equiv_pos_as_xyz
  1  'x, y, z'
loop_
 _atom_site_type_symbol
 _atom_site_label
 _atom_site_symmetry_multiplicity
 _atom_site_fract_x
 _atom_site_fract_y
 _atom_site_fract_z
 _atom_site_occupancy
 _atom_site_pbe_bader_charge
 _atom_site_pbe_bader_spin_density
 _atom_site_pbe_cm5_charge
 _atom_site_pbe_ddec_charge
 _atom_site_pbe_ddec_spin_density
 _atom_site_pbe_ddec_sum_bond_order
 _atom_site_pbe_magmom
Mg  Mg0  1  0.00098817  0.75000000  0.00098834  1  1.692157  0  0.813141  1.35012  0  1.446059  0
Mg  Mg1  1  0.75000067  0.00098695  0.00098438  1  1.692222  0  0.813099  1.350161  0  1.446022  0
Mg  Mg2  1  0.49901576  0.74999892  0.00098698  1  1.692197  0  0.813093  1.350166  0  1.445911  0
Mg  Mg3  1  0.75000019  0.49901389  0.00098687  1  1.692216  0  0.813128  1.350135  0  1.445939  0
Mg  Mg4  1  0.00098680  0.75000005  0.49901211  1  1.692202  0  0.813125  1.350181  0  1.445944  0
Mg  Mg5  1  0.75000113  0.00098578  0.49901242  1  1.692218  0  0.81311  1.350166  0  1.44588  0
Mg  Mg6  1  0.49901317  0.74999958  0.49901136  1  1.692253  0  0.813135  1.35012  0  1.446009  0
Mg  Mg7  1  0.75000066  0.49901088  0.49901247  1  1.692189  0  0.813157  1.35014  0  1.445971  0
Mg  Mg8  1  0.00098560  0.00098896  0.75000012  1  1.692203  0  0.81313  1.350147  0  1.445996  0
Mg  Mg9  1  0.49901197  0.00098666  0.74999937  1  1.692178  0  0.813117  1.350071  0  1.446019  0
Mg  Mg10  1  0.49901272  0.49901481  0.75000003  1  1.692225  0  0.81312  1.350135  0  1.445975  0
Mg  Mg11  1  0.00098635  0.49901528  0.75000078  1  1.692227  0  0.813115  1.350193  0  1.445877  0
Mg  Mg12  1  0.99901088  0.25000060  0.99901571  1  1.692133  0  0.813117  1.350105  0  1.446024  0
Mg  Mg13  1  0.24999960  0.99901487  0.99901418  1  1.692173  0  0.813127  1.350148  0  1.445968  0
Mg  Mg14  1  0.50098451  0.25000046  0.99901097  1  1.692162  0  0.813136  1.3501  0  1.446065  0
Mg  Mg15  1  0.25000008  0.50098732  0.99901107  1  1.692173  0  0.813124  1.350108  0  1.445982  0
Mg  Mg16  1  0.99901042  0.24999994  0.50099072  1  1.692149  0  0.813202  1.350153  0  1.445977  0
Mg  Mg17  1  0.25000036  0.99901115  0.50098736  1  1.692225  0  0.813104  1.350112  0  1.446039  0
Mg  Mg18  1  0.50098527  0.25000041  0.50098476  1  1.692191  0  0.813108  1.350164  0  1.445933  0
Mg  Mg19  1  0.24999900  0.50098727  0.50098548  1  1.692203  0  0.813118  1.350141  0  1.445978  0
Mg  Mg20  1  0.99901406  0.99901286  0.25000149  1  1.692222  0  0.813153  1.350203  0  1.445863  0
Mg  Mg21  1  0.50098769  0.99901394  0.24999980  1  1.692162  0  0.813108  1.350101  0  1.446065  0
Mg  Mg22  1  0.50098572  0.50098762  0.24999731  1  1.692194  0  0.813133  1.350235  0  1.445808  0
Mg  Mg23  1  0.99901209  0.50098714  0.24999961  1  1.69217  0  0.813118  1.350134  0  1.446002  0
H  H24  1  0.00572541  0.88022480  0.90804240  1  0.649701  0  0.300223  0.374165  0  0.97263  0
H  H25  1  0.61977520  0.00572280  0.90803939  1  0.64966  0  0.300184  0.37408  0  0.972752  0
H  H26  1  0.49427699  0.61977303  0.90803945  1  0.649653  0  0.300166  0.374067  0  0.972771  0
H  H27  1  0.88022597  0.49427634  0.90804267  1  0.649725  0  0.300222  0.374167  0  0.972639  0
H  H28  1  0.00572396  0.61977722  0.59195861  1  0.649699  0  0.300202  0.374151  0  0.972653  0
H  H29  1  0.88022634  0.00572415  0.59195985  1  0.649673  0  0.300187  0.374123  0  0.972689  0
H  H30  1  0.49427573  0.88022494  0.59196007  1  0.649675  0  0.300198  0.374074  0  0.972755  0
H  H31  1  0.61977457  0.49428115  0.59196331  1  0.649652  0  0.300139  0.373983  0  0.972882  0
H  H32  1  0.90804061  0.00572288  0.88022605  1  0.649671  0  0.300203  0.374107  0  0.972715  0
H  H33  1  0.49427720  0.90803836  0.88022337  1  0.649641  0  0.300175  0.374086  0  0.972735  0
H  H34  1  0.59195820  0.49427667  0.88022593  1  0.649692  0  0.300213  0.374122  0  0.972685  0
H  H35  1  0.00572467  0.59196170  0.88022596  1  0.649653  0  0.300164  0.37411  0  0.972716  0
H  H36  1  0.90803867  0.49427838  0.61977578  1  0.649657  0  0.300174  0.374048  0  0.972788  0
H  H37  1  0.00572470  0.90804215  0.61977565  1  0.649702  0  0.30021  0.374133  0  0.972676  0
H  H38  1  0.59196154  0.00572469  0.61977624  1  0.649663  0  0.300173  0.374071  0  0.972759  0
H  H39  1  0.49427796  0.59196327  0.61977372  1  0.649747  0  0.300186  0.37408  0  0.972747  0
H  H40  1  0.88022541  0.90804405  0.00572405  1  0.64972  0  0.300219  0.37417  0  0.972632  0
H  H41  1  0.59196096  0.61977479  0.49427734  1  0.649662  0  0.30018  0.374095  0  0.972729  0
H  H42  1  0.59196119  0.88022605  0.00572377  1  0.649653  0  0.300178  0.374041  0  0.972797  0
H  H43  1  0.90803931  0.88022509  0.49427785  1  0.649658  0  0.300169  0.374081  0  0.972748  0
H  H44  1  0.90804239  0.61977502  0.00572231  1  0.649694  0  0.300219  0.374146  0  0.972656  0
H  H45  1  0.88022686  0.59196141  0.49427741  1  0.649773  0  0.300182  0.374063  0  0.972773  0
H  H46  1  0.61977572  0.59196251  0.00572447  1  0.649644  0  0.300161  0.374115  0  0.972706  0
H  H47  1  0.61977523  0.90803908  0.49427656  1  0.649658  0  0.30017  0.374057  0  0.972786  0
H  H48  1  0.99427730  0.11977213  0.09195799  1  0.649662  0  0.300219  0.374118  0  0.972696  0
H  H49  1  0.38022507  0.99427779  0.09196039  1  0.649654  0  0.300181  0.374083  0  0.972746  0
H  H50  1  0.50572023  0.38022512  0.09196277  1  0.649613  0  0.30015  0.373982  0  0.97288  0
H  H51  1  0.11977308  0.50572364  0.09195711  1  0.649686  0  0.30022  0.374136  0  0.972676  0
H  H52  1  0.99427631  0.38022399  0.40803934  1  0.64968  0  0.300179  0.374081  0  0.972747  0
H  H53  1  0.11977393  0.99427522  0.40804176  1  0.649678  0  0.300211  0.374139  0  0.972668  0
H  H54  1  0.50572332  0.11977199  0.40803726  1  0.649783  0  0.300155  0.374041  0  0.972797  0
H  H55  1  0.38022326  0.50572372  0.40803952  1  0.64968  0  0.300193  0.374083  0  0.972748  0
H  H56  1  0.09196394  0.99427833  0.11977373  1  0.649628  0  0.300135  0.374019  0  0.972827  0
H  H57  1  0.50572246  0.09195857  0.11977336  1  0.64968  0  0.300208  0.374124  0  0.972678  0
H  H58  1  0.40803841  0.50572392  0.11977385  1  0.649787  0  0.300179  0.374085  0  0.972744  0
H  H59  1  0.99427438  0.40803889  0.11977504  1  0.649679  0  0.300152  0.374058  0  0.97279  0
H  H60  1  0.09195977  0.50572160  0.38022461  1  0.649661  0  0.30018  0.374084  0  0.972752  0
H  H61  1  0.99427862  0.09196150  0.38022474  1  0.649645  0  0.300184  0.374095  0  0.972727  0
H  H62  1  0.40804118  0.99427468  0.38022537  1  0.649702  0  0.300197  0.374124  0  0.972692  0
H  H63  1  0.50572415  0.40803793  0.38022362  1  0.649653  0  0.300166  0.374094  0  0.972721  0
H  H64  1  0.11977303  0.09196082  0.99427878  1  0.649645  0  0.300164  0.374058  0  0.972773  0
H  H65  1  0.40803992  0.38022703  0.50572366  1  0.649677  0  0.300163  0.374039  0  0.972797  0
H  H66  1  0.40804214  0.11977455  0.99427540  1  0.649708  0  0.300222  0.374157  0  0.972645  0
H  H67  1  0.09195730  0.11977489  0.50572315  1  0.649759  0  0.300187  0.374098  0  0.972728  0
H  H68  1  0.09195972  0.38022435  0.99427747  1  0.649669  0  0.300177  0.374047  0  0.972793  0
H  H69  1  0.11977402  0.40803675  0.50572237  1  0.649756  0  0.300167  0.374057  0  0.972771  0
H  H70  1  0.38022577  0.40804174  0.99427531  1  0.649689  0  0.300214  0.374138  0  0.972677  0
H  H71  1  0.38022382  0.09195846  0.50572261  1  0.649693  0  0.300192  0.374118  0  0.972696  0
H  H72  1  0.00542030  0.89769195  0.00656369  1  0.621605  0  0.313353  0.371383  0  0.95905  0
H  H73  1  0.60230788  0.00542382  0.00656186  1  0.621621  0  0.313368  0.371435  0  0.958999  0
H  H74  1  0.49457750  0.60230945  0.00656305  1  0.621637  0  0.313364  0.371414  0  0.959036  0
H  H75  1  0.89768991  0.49457889  0.00656448  1  0.621605  0  0.313366  0.371368  0  0.95911  0
H  H76  1  0.00542548  0.60231056  0.49343614  1  0.621625  0  0.313398  0.371502  0  0.958895  0
H  H77  1  0.89769090  0.00542524  0.49343620  1  0.621628  0  0.313384  0.371453  0  0.958964  0
H  H78  1  0.49458306  0.89769146  0.49343835  1  0.621607  0  0.313375  0.371356  0  0.959087  0
H  H79  1  0.60230786  0.49458176  0.49343972  1  0.621607  0  0.313385  0.371394  0  0.959072  0
H  H80  1  0.00656445  0.00542068  0.89768878  1  0.621608  0  0.31337  0.371346  0  0.959139  0
H  H81  1  0.49457452  0.00656261  0.89768988  1  0.621665  0  0.313407  0.371528  0  0.958867  0
H  H82  1  0.49343586  0.49457689  0.89769356  1  0.62156  0  0.313325  0.371373  0  0.959077  0
H  H83  1  0.00542029  0.49343922  0.89769002  1  0.621648  0  0.313395  0.371432  0  0.959047  0
H  H84  1  0.00656074  0.49457688  0.60231088  1  0.621687  0  0.31343  0.371477  0  0.958953  0
H  H85  1  0.00542369  0.00656321  0.60230843  1  0.621616  0  0.313362  0.371451  0  0.958957  0
H  H86  1  0.49343986  0.00541967  0.60230708  1  0.62161  0  0.313385  0.371394  0  0.959048  0
H  H87  1  0.49458179  0.49343883  0.60230709  1  0.621598  0  0.313402  0.371423  0  0.959017  0
H  H88  1  0.89769225  0.00656584  0.00542081  1  0.62156  0  0.313325  0.371353  0  0.959108  0
H  H89  1  0.49343677  0.60230884  0.49457845  1  0.621604  0  0.313338  0.37138  0  0.959088  0
H  H90  1  0.49343953  0.89769145  0.00541929  1  0.621637  0  0.313408  0.371429  0  0.959012  0
H  H91  1  0.00656200  0.89769197  0.49457359  1  0.621638  0  0.313369  0.371434  0  0.959008  0
H  H92  1  0.00656438  0.60230933  0.00542319  1  0.621605  0  0.313348  0.371386  0  0.959041  0
H  H93  1  0.89769223  0.49343769  0.49458109  1  0.621591  0  0.313376  0.371384  0  0.959067  0
H  H94  1  0.60230860  0.49343992  0.00542554  1  0.621695  0  0.3134  0.37151  0  0.958933  0
H  H95  1  0.60231019  0.00656138  0.49457909  1  0.621646  0  0.313414  0.371444  0  0.959007  0
H  H96  1  0.99457753  0.10230864  0.99343365  1  0.62157  0  0.313359  0.371393  0  0.959033  0
H  H97  1  0.39769117  0.99457739  0.99343731  1  0.621636  0  0.313376  0.371432  0  0.958991  0
H  H98  1  0.50541789  0.39769115  0.99343978  1  0.621629  0  0.313401  0.371418  0  0.959022  0
H  H99  1  0.10230730  0.50542048  0.99343469  1  0.62155  0  0.313354  0.371396  0  0.95909  0
H  H100  1  0.99457785  0.39769309  0.50656242  1  0.621589  0  0.313347  0.371387  0  0.959035  0
H  H101  1  0.10230754  0.99457963  0.50656419  1  0.621592  0  0.313349  0.371361  0  0.9591  0
H  H102  1  0.50542332  0.10230791  0.50656265  1  0.621612  0  0.313373  0.37142  0  0.959012  0
H  H103  1  0.39768935  0.50542433  0.50656128  1  0.621681  0  0.313407  0.371473  0  0.958964  0
H  H104  1  0.99343887  0.99457504  0.10230978  1  0.621659  0  0.313408  0.371476  0  0.958958  0
H  H105  1  0.50542147  0.99343493  0.10230746  1  0.621559  0  0.313349  0.371388  0  0.959044  0
H  H106  1  0.50656197  0.50541822  0.10230683  1  0.621587  0  0.313369  0.371366  0  0.959087  0
H  H107  1  0.99457692  0.50656137  0.10230854  1  0.621651  0  0.313394  0.371473  0  0.958941  0
H  H108  1  0.99343526  0.50542371  0.39769012  1  0.621616  0  0.313384  0.371451  0  0.958951  0
H  H109  1  0.99458025  0.99343860  0.39769013  1  0.621631  0  0.313403  0.371402  0  0.959078  0
H  H110  1  0.50656346  0.99457543  0.39769087  1  0.621622  0  0.313373  0.37143  0  0.958982  0
H  H111  1  0.50541970  0.50656054  0.39769147  1  0.621627  0  0.313375  0.371426  0  0.959006  0
H  H112  1  0.10230680  0.99343659  0.99457653  1  0.621578  0  0.313347  0.371388  0  0.959029  0
H  H113  1  0.50656289  0.39769175  0.50542194  1  0.621623  0  0.313365  0.371403  0  0.959055  0
H  H114  1  0.50656379  0.10231037  0.99457804  1  0.621631  0  0.313377  0.371403  0  0.959049  0
H  H115  1  0.99343461  0.10230802  0.50542009  1  0.621566  0  0.313353  0.371368  0  0.959155  0
H  H116  1  0.99343712  0.39769249  0.99457598  1  0.621611  0  0.31338  0.371467  0  0.958927  0
H  H117  1  0.10230743  0.50656046  0.50541747  1  0.621607  0  0.313375  0.371374  0  0.959056  0
H  H118  1  0.39769106  0.50656495  0.99457974  1  0.621586  0  0.313357  0.371369  0  0.95908  0
H  H119  1  0.39768947  0.99343616  0.50542680  1  0.621636  0  0.313377  0.371461  0  0.958949  0
C  C120  1  0.18871346  0.73208676  0.99925933  1  0.815458  0  0.113986  0.195591  0  4.11896  0
C  C121  1  0.76790921  0.18871318  0.99925885  1  0.818914  0  0.114071  0.195675  0  4.119052  0
C  C122  1  0.31129111  0.76791603  0.99925501  1  0.819263  0  0.114139  0.195691  0  4.118905  0
C  C123  1  0.73207947  0.31129093  0.99925998  1  0.819325  0  0.114074  0.195727  0  4.119096  0
C  C124  1  0.18871431  0.76791259  0.50073867  1  0.815418  0  0.113978  0.195639  0  4.118918  0
C  C125  1  0.73208478  0.18870815  0.50074177  1  0.819297  0  0.114066  0.195777  0  4.118943  0
C  C126  1  0.31129237  0.73208522  0.50074568  1  0.819332  0  0.11416  0.195821  0  4.118803  0
C  C127  1  0.76791213  0.31128914  0.50074035  1  0.819257  0  0.114007  0.195766  0  4.118857  0
C  C128  1  0.99925597  0.18871586  0.73209099  1  0.815306  0  0.114157  0.195683  0  4.119034  0
C  C129  1  0.31128909  0.99925460  0.73208960  1  0.815432  0  0.114084  0.195845  0  4.119643  0
C  C130  1  0.50074146  0.31129173  0.73208610  1  0.819398  0  0.114051  0.195773  0  4.118936  0
C  C131  1  0.18871201  0.50073763  0.73208545  1  0.819291  0  0.114045  0.195761  0  4.118818  0
C  C132  1  0.99926175  0.31129567  0.76791728  1  0.819562  0  0.11402  0.195656  0  4.119202  0
C  C133  1  0.18870843  0.99925684  0.76791317  1  0.819222  0  0.114091  0.195774  0  4.119055  0
C  C134  1  0.50074351  0.18870975  0.76791207  1  0.819364  0  0.114074  0.19578  0  4.118859  0
C  C135  1  0.31129134  0.50074420  0.76791232  1  0.81937  0  0.114096  0.195795  0  4.11883  0
C  C136  1  0.73208990  0.99925553  0.18870910  1  0.819326  0  0.114051  0.19572  0  4.119113  0
C  C137  1  0.50073662  0.76791456  0.31128929  1  0.819199  0  0.114061  0.195902  0  4.119344  0
C  C138  1  0.50074465  0.73208700  0.18870782  1  0.819442  0  0.114096  0.195811  0  4.119058  0
C  C139  1  0.99925748  0.73208638  0.31129206  1  0.8194  0  0.114122  0.195797  0  4.119112  0
C  C140  1  0.99925960  0.76791546  0.18871148  1  0.819364  0  0.113984  0.19566  0  4.118945  0
C  C141  1  0.73208836  0.50073813  0.31128487  1  0.815466  0  0.113973  0.195608  0  4.118986  0
C  C142  1  0.76791373  0.50074082  0.18870655  1  0.819282  0  0.113995  0.195544  0  4.118859  0
C  C143  1  0.76791368  0.99925670  0.31129098  1  0.819493  0  0.11406  0.195691  0  4.119162  0
C  C144  1  0.81128315  0.26791261  0.00074045  1  0.815471  0  0.114057  0.195688  0  4.119333  0
C  C145  1  0.23208801  0.81128863  0.00074093  1  0.819301  0  0.113972  0.195653  0  4.119053  0
C  C146  1  0.68870428  0.23208334  0.00073988  1  0.819555  0  0.114029  0.195731  0  4.119007  0
C  C147  1  0.26791530  0.68870906  0.00074164  1  0.819337  0  0.114156  0.195887  0  4.119295  0
C  C148  1  0.81128535  0.23208861  0.49926355  1  0.815448  0  0.113962  0.19556  0  4.119099  0
C  C149  1  0.26791427  0.81128817  0.49926412  1  0.81926  0  0.113989  0.195684  0  4.118998  0
C  C150  1  0.68870912  0.26791416  0.49925715  1  0.819316  0  0.114138  0.195765  0  4.118827  0
C  C151  1  0.23208570  0.68871146  0.49925699  1  0.819249  0  0.114056  0.195679  0  4.118889  0
C  C152  1  0.00074125  0.81128596  0.26791551  1  0.815354  0  0.113979  0.195591  0  4.119069  0
C  C153  1  0.68871118  0.00074050  0.26791141  1  0.815505  0  0.11398  0.19565  0  4.11913  0
C  C154  1  0.49925637  0.68871803  0.26791246  1  0.81518  0  0.113971  0.195457  0  4.119019  0
C  C155  1  0.81128765  0.49925869  0.26791066  1  0.819138  0  0.114039  0.195747  0  4.119051  0
C  C156  1  0.00074585  0.68870737  0.23208800  1  0.819235  0  0.114123  0.195836  0  4.119134  0
C  C157  1  0.81129184  0.00073581  0.23208784  1  0.819143  0  0.114008  0.195669  0  4.118755  0
C  C158  1  0.49926287  0.81128596  0.23208710  1  0.819225  0  0.114008  0.195719  0  4.118773  0
C  C159  1  0.68870893  0.49925822  0.23208380  1  0.819461  0  0.114103  0.195839  0  4.118854  0
C  C160  1  0.26791037  0.00074263  0.81128641  1  0.819208  0  0.114071  0.195584  0  4.118828  0
C  C161  1  0.49925754  0.23208848  0.68870744  1  0.819176  0  0.11398  0.195651  0  4.118892  0
C  C162  1  0.49925501  0.26791360  0.81128524  1  0.815418  0  0.114024  0.195589  0  4.118949  0
C  C163  1  0.00074157  0.26791666  0.68871749  1  0.819154  0  0.11413  0.195825  0  4.11944  0
C  C164  1  0.00074251  0.23208941  0.81129624  1  0.819335  0  0.114003  0.195785  0  4.118947  0
C  C165  1  0.26791375  0.49925941  0.68870758  1  0.819242  0  0.114078  0.195744  0  4.118762  0
C  C166  1  0.23208715  0.49925733  0.81129018  1  0.815505  0  0.114024  0.195659  0  4.119149  0
C  C167  1  0.23208598  0.00073535  0.68871613  1  0.819207  0  0.113951  0.195627  0  4.118909  0
C  C168  1  0.98318081  0.72639862  0.80911982  1  0.806968  0  0.117317  0.191165  0  4.096149  0
C  C169  1  0.77360613  0.98317716  0.80911623  1  0.806782  0  0.117299  0.191325  0  4.095929  0
C  C170  1  0.51682644  0.77360425  0.80911643  1  0.806804  0  0.117333  0.191352  0  4.095803  0
C  C171  1  0.72639746  0.51682082  0.80912064  1  0.806893  0  0.117291  0.191105  0  4.096146  0
C  C172  1  0.98318234  0.77360202  0.69088372  1  0.802949  0  0.117375  0.191382  0  4.09607  0
C  C173  1  0.72639952  0.98318086  0.69088185  1  0.806857  0  0.117353  0.191266  0  4.096061  0
C  C174  1  0.51681978  0.72639690  0.69088425  1  0.806894  0  0.117282  0.191186  0  4.095964  0
C  C175  1  0.77360137  0.51682478  0.69088673  1  0.803094  0  0.11729  0.191237  0  4.095922  0
C  C176  1  0.80911942  0.98317816  0.72639797  1  0.806921  0  0.117406  0.191328  0  4.09594  0
C  C177  1  0.51682239  0.80911902  0.72639654  1  0.807082  0  0.117396  0.19131  0  4.095988  0
C  C178  1  0.69087953  0.51682103  0.72640189  1  0.806864  0  0.11737  0.191306  0  4.09591  0
C  C179  1  0.98318084  0.69088322  0.72639844  1  0.806854  0  0.117355  0.191317  0  4.096159  0
C  C180  1  0.80911808  0.51682763  0.77360610  1  0.806885  0  0.117361  0.191337  0  4.095832  0
C  C181  1  0.98317864  0.80911925  0.77360327  1  0.806802  0  0.117334  0.19125  0  4.096037  0
C  C182  1  0.69088439  0.98317802  0.77360498  1  0.803028  0  0.117296  0.1912  0  4.096178  0
C  C183  1  0.51682139  0.69088396  0.77360353  1  0.802959  0  0.117317  0.1912  0  4.096192  0
C  C184  1  0.72640227  0.80911690  0.98317740  1  0.803132  0  0.117359  0.19129  0  4.095922  0
C  C185  1  0.69088238  0.77360179  0.51682179  1  0.807017  0  0.11735  0.191285  0  4.096127  0
C  C186  1  0.69088399  0.72639421  0.98317775  1  0.806882  0  0.117349  0.191305  0  4.096115  0
C  C187  1  0.80911721  0.72639521  0.51682205  1  0.806791  0  0.117299  0.191283  0  4.095994  0
C  C188  1  0.80912029  0.77359899  0.98318019  1  0.806822  0  0.117382  0.191322  0  4.095913  0
C  C189  1  0.72639776  0.69088051  0.51682082  1  0.806935  0  0.117374  0.191244  0  4.095981  0
C  C190  1  0.77360568  0.69088057  0.98318176  1  0.806915  0  0.117303  0.191201  0  4.096031  0
C  C191  1  0.77360365  0.80911404  0.51681997  1  0.802988  0  0.117324  0.191208  0  4.096198  0
C  C192  1  0.01681580  0.27360198  0.19088057  1  0.806947  0  0.117364  0.191345  0  4.096003  0
C  C193  1  0.22639658  0.01681855  0.19088050  1  0.806935  0  0.117335  0.191201  0  4.096021  0
C  C194  1  0.48317871  0.22639818  0.19087968  1  0.806842  0  0.11738  0.191355  0  4.095993  0
C  C195  1  0.27359976  0.48318038  0.19087975  1  0.806844  0  0.117298  0.191199  0  4.096068  0
C  C196  1  0.01681916  0.22639674  0.30911545  1  0.802941  0  0.117338  0.191339  0  4.095891  0
C  C197  1  0.27360197  0.01681669  0.30911732  1  0.802906  0  0.11733  0.191275  0  4.096348  0
C  C198  1  0.48318233  0.27360064  0.30911676  1  0.807104  0  0.11737  0.191356  0  4.095818  0
C  C199  1  0.22639401  0.48317643  0.30911488  1  0.806855  0  0.117294  0.191301  0  4.096013  0
C  C200  1  0.19088207  0.01681999  0.27360242  1  0.806918  0  0.117272  0.191178  0  4.095938  0
C  C201  1  0.48318826  0.19088280  0.27359469  1  0.802893  0  0.117293  0.191247  0  4.096031  0
C  C202  1  0.30911586  0.48317896  0.27359912  1  0.80313  0  0.117379  0.191306  0  4.096009  0
C  C203  1  0.01681577  0.30911798  0.27360378  1  0.806915  0  0.1173  0.191172  0  4.095958  0
C  C204  1  0.19088036  0.48317785  0.22639552  1  0.806907  0  0.117374  0.191296  0  4.095966  0
C  C205  1  0.01682102  0.19088318  0.22639895  1  0.806824  0  0.117355  0.191279  0  4.095914  0
C  C206  1  0.30911832  0.01681769  0.22639724  1  0.806892  0  0.117296  0.19121  0  4.095975  0
C  C207  1  0.48317889  0.30911969  0.22639197  1  0.80695  0  0.117347  0.191149  0  4.096037  0
C  C208  1  0.27360289  0.19088675  0.01682299  1  0.806812  0  0.117346  0.191297  0  4.095817  0
C  C209  1  0.30911362  0.22639820  0.48318226  1  0.802917  0  0.117368  0.191316  0  4.09622  0
C  C210  1  0.30911995  0.27360578  0.01682325  1  0.806877  0  0.117339  0.191258  0  4.095805  0
C  C211  1  0.19087940  0.27360233  0.48318262  1  0.8068  0  0.117413  0.191354  0  4.095899  0
C  C212  1  0.19088730  0.22640039  0.01682264  1  0.802911  0  0.117325  0.191277  0  4.095778  0
C  C213  1  0.27359823  0.30911764  0.48318202  1  0.806887  0  0.117307  0.191266  0  4.096035  0
C  C214  1  0.22639826  0.30912125  0.01682229  1  0.806907  0  0.117353  0.191256  0  4.095973  0
C  C215  1  0.22639540  0.19088472  0.48318408  1  0.806848  0  0.117277  0.191187  0  4.095935  0
O  O216  1  0.11532770  0.70935138  0.99683649  1  -1.238345  0  -0.359883  -0.529999  0  2.373244  0
O  O217  1  0.79064169  0.11532553  0.99683017  1  -1.238317  0  -0.359937  -0.530099  0  2.373209  0
O  O218  1  0.38467626  0.79064773  0.99683456  1  -1.238449  0  -0.359983  -0.530083  0  2.373293  0
O  O219  1  0.70934944  0.38467184  0.99683498  1  -1.2384  0  -0.359865  -0.529977  0  2.37347  0
O  O220  1  0.11532745  0.79064819  0.50316235  1  -1.238271  0  -0.359868  -0.529992  0  2.373077  0
O  O221  1  0.70935129  0.11532589  0.50316867  1  -1.238435  0  -0.359914  -0.530071  0  2.37338  0
O  O222  1  0.38467312  0.70934903  0.50316835  1  -1.238484  0  -0.359962  -0.530086  0  2.373414  0
O  O223  1  0.79064683  0.38467447  0.50316163  1  -1.238364  0  -0.359926  -0.530093  0  2.373178  0
O  O224  1  0.99682806  0.11532867  0.70935252  1  -1.23823  0  -0.359986  -0.530121  0  2.373262  0
O  O225  1  0.38466566  0.99683062  0.70935250  1  -1.238193  0  -0.359893  -0.530038  0  2.373892  0
O  O226  1  0.50316883  0.38467508  0.70935062  1  -1.238454  0  -0.359928  -0.530075  0  2.373229  0
O  O227  1  0.11532574  0.50316449  0.70935043  1  -1.238355  0  -0.359933  -0.530113  0  2.373154  0
O  O228  1  0.99682989  0.38467612  0.79065209  1  -1.238604  0  -0.35994  -0.530038  0  2.37345  0
O  O229  1  0.11532391  0.99683203  0.79064658  1  -1.238448  0  -0.359928  -0.530053  0  2.373166  0
O  O230  1  0.50316797  0.11532824  0.79064999  1  -1.238406  0  -0.359899  -0.53005  0  2.373361  0
O  O231  1  0.38467212  0.50316553  0.79064919  1  -1.238406  0  -0.359924  -0.530083  0  2.373372  0
O  O232  1  0.70935245  0.99683110  0.11532763  1  -1.238398  0  -0.359876  -0.530051  0  2.373398  0
O  O233  1  0.50316554  0.79064819  0.38467025  1  -1.238303  0  -0.359874  -0.530059  0  2.373457  0
O  O234  1  0.50317122  0.70935033  0.11532686  1  -1.238422  0  -0.3599  -0.530081  0  2.373436  0
O  O235  1  0.99683139  0.70934964  0.38467408  1  -1.238485  0  -0.359989  -0.530154  0  2.373416  0
O  O236  1  0.99684057  0.79064607  0.11532703  1  -1.238308  0  -0.359917  -0.530034  0  2.37337  0
O  O237  1  0.70935130  0.50316488  0.38467068  1  -1.238243  0  -0.359829  -0.529973  0  2.373172  0
O  O238  1  0.79064652  0.50316775  0.11532137  1  -1.238483  0  -0.359943  -0.530002  0  2.373183  0
O  O239  1  0.79064746  0.99683417  0.38467059  1  -1.238386  0  -0.359904  -0.530028  0  2.373561  0
O  O240  1  0.88466585  0.29064982  0.00316329  1  -1.238098  0  -0.35996  -0.530045  0  2.373492  0
O  O241  1  0.20935309  0.88467323  0.00316228  1  -1.238343  0  -0.359874  -0.529997  0  2.373225  0
O  O242  1  0.61532279  0.20934920  0.00316400  1  -1.238531  0  -0.359965  -0.530044  0  2.373365  0
O  O243  1  0.29065144  0.61533303  0.00316297  1  -1.238318  0  -0.359999  -0.530111  0  2.373833  0
O  O244  1  0.88467160  0.20935485  0.49683621  1  -1.238261  0  -0.359889  -0.529987  0  2.373264  0
O  O245  1  0.29064837  0.88467227  0.49683783  1  -1.238314  0  -0.359902  -0.530051  0  2.373358  0
O  O246  1  0.61532593  0.29065096  0.49683570  1  -1.238443  0  -0.359955  -0.530111  0  2.373288  0
O  O247  1  0.20935222  0.61532490  0.49683388  1  -1.238366  0  -0.359953  -0.530062  0  2.373228  0
O  O248  1  0.00316611  0.88467253  0.29065276  1  -1.238331  0  -0.35994  -0.530062  0  2.373121  0
O  O249  1  0.61532851  0.00316326  0.29064728  1  -1.238338  0  -0.359881  -0.529988  0  2.37342  0
O  O250  1  0.49682534  0.61532735  0.29064794  1  -1.238236  0  -0.359923  -0.530058  0  2.372975  0
O  O251  1  0.88467331  0.49683977  0.29064568  1  -1.238318  0  -0.359888  -0.530046  0  2.373259  0
O  O252  1  0.00317038  0.61532997  0.20935258  1  -1.238413  0  -0.359889  -0.530069  0  2.373727  0
O  O253  1  0.88467758  0.00316552  0.20934954  1  -1.238482  0  -0.359938  -0.530023  0  2.373027  0
O  O254  1  0.49683291  0.88467479  0.20935163  1  -1.238295  0  -0.359896  -0.53008  0  2.373038  0
O  O255  1  0.61532692  0.49683079  0.20934571  1  -1.238438  0  -0.359942  -0.530105  0  2.373295  0
O  O256  1  0.29064477  0.00316950  0.88467765  1  -1.23833  0  -0.359962  -0.530063  0  2.372883  0
O  O257  1  0.49683290  0.20935546  0.61532526  1  -1.238448  0  -0.359854  -0.530001  0  2.373307  0
O  O258  1  0.49683698  0.29064904  0.88467170  1  -1.238237  0  -0.359921  -0.530016  0  2.373207  0
O  O259  1  0.00316217  0.29065095  0.61533364  1  -1.238123  0  -0.360014  -0.530132  0  2.373598  0
O  O260  1  0.00316825  0.20935513  0.88467642  1  -1.238516  0  -0.359893  -0.53006  0  2.373391  0
O  O261  1  0.29065080  0.49683572  0.61532421  1  -1.238411  0  -0.359974  -0.530113  0  2.373169  0
O  O262  1  0.20935314  0.49683346  0.88467109  1  -1.238371  0  -0.359891  -0.530034  0  2.373622  0
O  O263  1  0.20935220  0.00316154  0.61532491  1  -1.238201  0  -0.359907  -0.530055  0  2.372965  0
O  O264  1  0.98481092  0.69715897  0.88049354  1  -1.215147  0  -0.307297  -0.498825  0  2.3963  0
O  O265  1  0.80284283  0.98480476  0.88049613  1  -1.215183  0  -0.307341  -0.499012  0  2.396093  0
O  O266  1  0.51519611  0.80284199  0.88049710  1  -1.215188  0  -0.307329  -0.499009  0  2.396016  0
O  O267  1  0.69716238  0.51519437  0.88049757  1  -1.215256  0  -0.307252  -0.498809  0  2.396284  0
O  O268  1  0.98480978  0.80283740  0.61950511  1  -1.215095  0  -0.307378  -0.499071  0  2.396133  0
O  O269  1  0.69716222  0.98480898  0.61950623  1  -1.2151  0  -0.307327  -0.498957  0  2.396305  0
O  O270  1  0.51519133  0.69715915  0.61950420  1  -1.215129  0  -0.307308  -0.498912  0  2.396116  0
O  O271  1  0.80283583  0.51519428  0.61950857  1  -1.215143  0  -0.307317  -0.49892  0  2.396074  0
O  O272  1  0.88049751  0.98480611  0.69715983  1  -1.215196  0  -0.307341  -0.498967  0  2.396141  0
O  O273  1  0.51518866  0.88049528  0.69716243  1  -1.215326  0  -0.307308  -0.498889  0  2.396242  0
O  O274  1  0.61950336  0.51519224  0.69716272  1  -1.215177  0  -0.307317  -0.498918  0  2.396141  0
O  O275  1  0.98480794  0.61950552  0.69716256  1  -1.215093  0  -0.307354  -0.499011  0  2.396299  0
O  O276  1  0.88049668  0.51519824  0.80284342  1  -1.21523  0  -0.307337  -0.498973  0  2.396131  0
O  O277  1  0.98480788  0.88049818  0.80283792  1  -1.215205  0  -0.307271  -0.49888  0  2.396153  0
O  O278  1  0.61950814  0.98480641  0.80284009  1  -1.215085  0  -0.307265  -0.498836  0  2.396344  0
O  O279  1  0.51519084  0.61950647  0.80283948  1  -1.215089  0  -0.307289  -0.498859  0  2.39621  0
O  O280  1  0.69716627  0.88049442  0.98481229  1  -1.215165  0  -0.307346  -0.49895  0  2.396142  0
O  O281  1  0.61950564  0.80283479  0.51519171  1  -1.21525  0  -0.307314  -0.498896  0  2.396249  0
O  O282  1  0.61951075  0.69715715  0.98480683  1  -1.215019  0  -0.307308  -0.498925  0  2.396448  0
O  O283  1  0.88049639  0.69715792  0.51519396  1  -1.215175  0  -0.307299  -0.498929  0  2.396082  0
O  O284  1  0.88050147  0.80283606  0.98481233  1  -1.21528  0  -0.307377  -0.499034  0  2.396048  0
O  O285  1  0.69715894  0.61950282  0.51519334  1  -1.215226  0  -0.307327  -0.498894  0  2.396151  0
O  O286  1  0.80283984  0.61950428  0.98480382  1  -1.215244  0  -0.307273  -0.498866  0  2.396218  0
O  O287  1  0.80284309  0.88049233  0.51519416  1  -1.215068  0  -0.307282  -0.498894  0  2.396198  0
O  O288  1  0.01518813  0.30283735  0.11950685  1  -1.215119  0  -0.307293  -0.498922  0  2.396382  0
O  O289  1  0.19716050  0.01519278  0.11950732  1  -1.215216  0  -0.307246  -0.498759  0  2.396329  0
O  O290  1  0.48480294  0.19716105  0.11949902  1  -1.215288  0  -0.307354  -0.498998  0  2.396101  0
O  O291  1  0.30283728  0.48480562  0.11950160  1  -1.215234  0  -0.30728  -0.498904  0  2.396189  0
O  O292  1  0.01519477  0.19715831  0.38049528  1  -1.215161  0  -0.307378  -0.499067  0  2.395961  0
O  O293  1  0.30283683  0.01519100  0.38049110  1  -1.215114  0  -0.307324  -0.498937  0  2.396477  0
O  O294  1  0.48481321  0.30284023  0.38049253  1  -1.215186  0  -0.307339  -0.498989  0  2.396295  0
O  O295  1  0.19715589  0.48480387  0.38049243  1  -1.215076  0  -0.307273  -0.498922  0  2.39616  0
O  O296  1  0.11950337  0.01519387  0.30283812  1  -1.215174  0  -0.307285  -0.49891  0  2.396202  0
O  O297  1  0.48481100  0.11950409  0.30283308  1  -1.215087  0  -0.307347  -0.498985  0  2.396138  0
O  O298  1  0.38049203  0.48480896  0.30283645  1  -1.215132  0  -0.30736  -0.49899  0  2.396155  0
O  O299  1  0.01518989  0.38049569  0.30283722  1  -1.215135  0  -0.30722  -0.498781  0  2.396296  0
O  O300  1  0.11950176  0.48480297  0.19716064  1  -1.215292  0  -0.307321  -0.498926  0  2.396079  0
O  O301  1  0.01519667  0.11950119  0.19715819  1  -1.215157  0  -0.307355  -0.499004  0  2.395999  0
O  O302  1  0.38049701  0.01519174  0.19715908  1  -1.215174  0  -0.307304  -0.498903  0  2.396196  0
O  O303  1  0.48480577  0.38049352  0.19715969  1  -1.215237  0  -0.307268  -0.498764  0  2.39637  0
O  O304  1  0.30284072  0.11950800  0.01519726  1  -1.214992  0  -0.307363  -0.498988  0  2.39581  0
O  O305  1  0.38049036  0.19716336  0.48480258  1  -1.214965  0  -0.307336  -0.498999  0  2.396303  0
O  O306  1  0.38049868  0.30284162  0.01518989  1  -1.215266  0  -0.307287  -0.49887  0  2.39615  0
O  O307  1  0.11950327  0.30284024  0.48481497  1  -1.215243  0  -0.30729  -0.498855  0  2.396056  0
O  O308  1  0.11950430  0.19716210  0.01519416  1  -1.214973  0  -0.307361  -0.499012  0  2.395748  0
O  O309  1  0.30283217  0.38049716  0.48481072  1  -1.215105  0  -0.307292  -0.49895  0  2.396233  0
O  O310  1  0.19716410  0.38049693  0.01519291  1  -1.215215  0  -0.307259  -0.498835  0  2.396186  0
O  O311  1  0.19715718  0.11950277  0.48481233  1  -1.215239  0  -0.307317  -0.498908  0  2.395945  0
O  O312  1  0.03258503  0.86923729  0.96174045  1  -1.288065  0  -0.584286  -0.778613  0  2.111659  0
O  O313  1  0.63076418  0.03258344  0.96173944  1  -1.288105  0  -0.584267  -0.778605  0  2.111673  0
O  O314  1  0.46741598  0.63076217  0.96173828  1  -1.288161  0  -0.584237  -0.778553  0  2.111678  0
O  O315  1  0.86923988  0.46741367  0.96174133  1  -1.288231  0  -0.584282  -0.778596  0  2.111706  0
O  O316  1  0.03258136  0.63077038  0.53825864  1  -1.288094  0  -0.584313  -0.778728  0  2.111574  0
O  O317  1  0.86923689  0.03258554  0.53826122  1  -1.288188  0  -0.584269  -0.778636  0  2.111578  0
O  O318  1  0.46741850  0.86923565  0.53825888  1  -1.288198  0  -0.584282  -0.778512  0  2.111782  0
O  O319  1  0.63076173  0.46741874  0.53826200  1  -1.288068  0  -0.584243  -0.778441  0  2.111784  0
O  O320  1  0.96174184  0.03258155  0.86923646  1  -1.288157  0  -0.584289  -0.778529  0  2.111803  0
O  O321  1  0.46741764  0.96173707  0.86923217  1  -1.288089  0  -0.584307  -0.778661  0  2.111544  0
O  O322  1  0.53825761  0.46742035  0.86923264  1  -1.288071  0  -0.584238  -0.778559  0  2.111696  0
O  O323  1  0.03258549  0.53826230  0.86923794  1  -1.288118  0  -0.584247  -0.778626  0  2.111665  0
O  O324  1  0.96173789  0.46741694  0.63076520  1  -1.288189  0  -0.584315  -0.778588  0  2.111657  0
O  O325  1  0.03258334  0.96174048  0.63076664  1  -1.288134  0  -0.584289  -0.778631  0  2.111633  0
O  O326  1  0.53826106  0.03258194  0.63076481  1  -1.288034  0  -0.584274  -0.778516  0  2.111711  0
O  O327  1  0.46742051  0.53826197  0.63076439  1  -1.288166  0  -0.584314  -0.778568  0  2.111717  0
O  O328  1  0.86923470  0.96174295  0.03258219  1  -1.28811  0  -0.584252  -0.7786  0  2.111734  0
O  O329  1  0.53825867  0.63076477  0.46741893  1  -1.28804  0  -0.584237  -0.778545  0  2.111724  0
O  O330  1  0.53826303  0.86923577  0.03258234  1  -1.288129  0  -0.584289  -0.778533  0  2.111741  0
O  O331  1  0.96174107  0.86923185  0.46741980  1  -1.288082  0  -0.584269  -0.778593  0  2.111665  0
O  O332  1  0.96174230  0.63076612  0.03258202  1  -1.288066  0  -0.584275  -0.778599  0  2.111658  0
O  O333  1  0.86923594  0.53826001  0.46741991  1  -1.288173  0  -0.58428  -0.778513  0  2.111783  0
O  O334  1  0.63076391  0.53826260  0.03258645  1  -1.288111  0  -0.584262  -0.778685  0  2.111543  0
O  O335  1  0.63076380  0.96173783  0.46741577  1  -1.288047  0  -0.584287  -0.778576  0  2.111675  0
O  O336  1  0.96741768  0.13076270  0.03825933  1  -1.288024  0  -0.584295  -0.778573  0  2.111659  0
O  O337  1  0.36923548  0.96741715  0.03826095  1  -1.288155  0  -0.584269  -0.778554  0  2.111583  0
O  O338  1  0.53258123  0.36923537  0.03826333  1  -1.288076  0  -0.584265  -0.778469  0  2.111761  0
O  O339  1  0.13076405  0.53258082  0.03825662  1  -1.288159  0  -0.584284  -0.77859  0  2.111771  0
O  O340  1  0.96741769  0.36923449  0.46174114  1  -1.288002  0  -0.584255  -0.778554  0  2.111683  0
O  O341  1  0.13075971  0.96741444  0.46174100  1  -1.288163  0  -0.584258  -0.778551  0  2.111713  0
O  O342  1  0.53258116  0.13076372  0.46173845  1  -1.28828  0  -0.58425  -0.778545  0  2.111708  0
O  O343  1  0.36923304  0.53258307  0.46174022  1  -1.288107  0  -0.584317  -0.778628  0  2.111677  0
O  O344  1  0.03826209  0.96741721  0.13076454  1  -1.288041  0  -0.584266  -0.778555  0  2.111633  0
O  O345  1  0.53258019  0.03825803  0.13076456  1  -1.288052  0  -0.584274  -0.778576  0  2.11172  0
O  O346  1  0.46174022  0.53258146  0.13076165  1  -1.288149  0  -0.584261  -0.778557  0  2.111795  0
O  O347  1  0.96741600  0.46173952  0.13076489  1  -1.288076  0  -0.584267  -0.778615  0  2.111676  0
O  O348  1  0.03826116  0.53258304  0.36923458  1  -1.288059  0  -0.584282  -0.778597  0  2.111573  0
O  O349  1  0.96741876  0.03826011  0.36923619  1  -1.288048  0  -0.584309  -0.778582  0  2.111748  0
O  O350  1  0.46174165  0.96741805  0.36923253  1  -1.288087  0  -0.584287  -0.778624  0  2.111667  0
O  O351  1  0.53257976  0.46173985  0.36923112  1  -1.288127  0  -0.584253  -0.778578  0  2.111615  0
O  O352  1  0.13076496  0.03826070  0.96742003  1  -1.288134  0  -0.584237  -0.778531  0  2.111718  0
O  O353  1  0.46173977  0.36923643  0.53258207  1  -1.288099  0  -0.584246  -0.778537  0  2.111769  0
O  O354  1  0.46174213  0.13076239  0.96741500  1  -1.288112  0  -0.584315  -0.778647  0  2.111702  0
O  O355  1  0.03825615  0.13076203  0.53258303  1  -1.288074  0  -0.584267  -0.778526  0  2.111818  0
O  O356  1  0.03826103  0.36923265  0.96741898  1  -1.288028  0  -0.584263  -0.778564  0  2.111647  0
O  O357  1  0.13076617  0.46173876  0.53257865  1  -1.288269  0  -0.584252  -0.778497  0  2.11174  0
O  O358  1  0.36923880  0.46174166  0.96741578  1  -1.288062  0  -0.584274  -0.778558  0  2.111684  0
O  O359  1  0.36923403  0.03825910  0.53258462  1  -1.288093  0  -0.584279  -0.778642  0  2.111595  0
