# generated using pymatgen
data_CuH10C5IN2
_symmetry_space_group_name_H-M   'P 1'
_cell_length_a   7.23805044
_cell_length_b   8.69755733
_cell_length_c   12.70519833
_cell_angle_alpha   89.99974599
_cell_angle_beta   90.00056434
_cell_angle_gamma   90.00075542
_symmetry_Int_Tables_number   1
_chemical_formula_structural   CuH10C5IN2
_chemical_formula_sum   'Cu4 H40 C20 I4 N8'
_cell_volume   799.83490650
_cell_formula_units_Z   4
loop_
 _symmetry_equiv_pos_site_id
 _symmetry_equiv_pos_as_xyz
  1  'x, y, z'
loop_
 _atom_site_type_symbol
 _atom_site_label
 _atom_site_symmetry_multiplicity
 _atom_site_fract_x
 _atom_site_fract_y
 _atom_site_fract_z
 _atom_site_occupancy
 _atom_site_pbe_bader_spin_density
 _atom_site_pbe_cm5_charge
 _atom_site_pbe_ddec_charge
 _atom_site_pbe_ddec_spin_density
 _atom_site_pbe_ddec_sum_bond_order
 _atom_site_pbe_magmom
Cu  Cu0  1  0.58022975  0.65639103  0.39212735  1  0  0.477903  0.383569  0  2.529404  0
Cu  Cu1  1  0.91978155  0.34360031  0.89213681  1  0  0.477824  0.383474  0  2.529249  0
Cu  Cu2  1  0.41977957  0.15639305  0.10785125  1  0  0.477824  0.383616  0  2.529097  0
Cu  Cu3  1  0.08023105  0.84360582  0.60786485  1  0  0.47787  0.383558  0  2.529402  0
H  H4  1  0.46159386  0.34930280  0.47500467  1  0  0.095498  0.100739  0  1.012734  0
H  H5  1  0.03840648  0.65069299  0.97500457  1  0  0.095481  0.100702  0  1.012738  0
H  H6  1  0.53839919  0.84929305  0.02500550  1  0  0.095507  0.10077  0  1.012822  0
H  H7  1  0.96159613  0.15069791  0.52498756  1  0  0.095456  0.10067  0  1.012771  0
H  H8  1  0.61436678  0.21086148  0.41208150  1  0  0.092942  0.079622  0  1.02011  0
H  H9  1  0.88563380  0.78913206  0.91208444  1  0  0.092928  0.079611  0  1.020141  0
H  H10  1  0.38562130  0.71085778  0.08793074  1  0  0.092901  0.079587  0  1.020054  0
H  H11  1  0.11436549  0.28913544  0.58790955  1  0  0.09296  0.079634  0  1.020193  0
H  H12  1  0.30392074  0.23858390  0.32062510  1  0  0.105485  0.093893  0  0.995618  0
H  H13  1  0.19608109  0.76140580  0.82063336  1  0  0.105461  0.093949  0  0.995551  0
H  H14  1  0.69607883  0.73859346  0.17938705  1  0  0.105481  0.093868  0  0.995593  0
H  H15  1  0.80392467  0.26140474  0.67936782  1  0  0.105439  0.093908  0  0.995619  0
H  H16  1  0.35263561  0.44115488  0.30467077  1  0  0.095161  0.074308  0  1.034788  0
H  H17  1  0.14736043  0.55884411  0.80467476  1  0  0.095165  0.074353  0  1.034861  0
H  H18  1  0.64734922  0.94115233  0.19532962  1  0  0.09521  0.074442  0  1.034833  0
H  H19  1  0.85264902  0.05884924  0.69532085  1  0  0.095169  0.07434  0  1.034887  0
H  H20  1  0.60793325  0.51421271  0.19189232  1  0  0.1024  0.08725  0  1.021016  0
H  H21  1  0.89206079  0.48579348  0.69189954  1  0  0.102362  0.087187  0  1.02122  0
H  H22  1  0.39207380  0.01422027  0.30810096  1  0  0.102397  0.087204  0  1.02105  0
H  H23  1  0.10794440  0.98579824  0.80810082  1  0  0.102372  0.087254  0  1.021203  0
H  H24  1  0.74642324  0.36331034  0.13075659  1  0  0.093594  0.089333  0  1.039829  0
H  H25  1  0.75358495  0.63670307  0.63075540  1  0  0.093555  0.089229  0  1.039894  0
H  H26  1  0.25360042  0.86332672  0.36925431  1  0  0.093565  0.089294  0  1.039956  0
H  H27  1  0.24642297  0.13669722  0.86923599  1  0  0.093533  0.089232  0  1.039908  0
H  H28  1  0.85297225  0.29067051  0.31247398  1  0  0.110072  0.068912  0  0.956905  0
H  H29  1  0.64701833  0.70933160  0.81248530  1  0  0.110075  0.068999  0  0.956734  0
H  H30  1  0.14701848  0.79066598  0.18753640  1  0  0.110115  0.068942  0  0.956808  0
H  H31  1  0.35297831  0.20933476  0.68751291  1  0  0.110052  0.068966  0  0.956742  0
H  H32  1  0.88908947  0.64200162  0.28041256  1  0  0.077766  0.108304  0  1.06531  0
H  H33  1  0.61090609  0.35800526  0.78041156  1  0  0.077743  0.108318  0  1.06534  0
H  H34  1  0.11090581  0.14199047  0.21958262  1  0  0.077742  0.108302  0  1.065351  0
H  H35  1  0.38908739  0.85799746  0.71958532  1  0  0.077761  0.108336  0  1.065241  0
H  H36  1  0.01719686  0.49942253  0.20870270  1  0  0.072375  0.120312  0  1.065295  0
H  H37  1  0.48279615  0.50058501  0.70870171  1  0  0.072375  0.120295  0  1.065237  0
H  H38  1  0.98279029  0.99943004  0.29130221  1  0  0.072394  0.120279  0  1.065186  0
H  H39  1  0.51720684  0.00058942  0.79128938  1  0  0.072362  0.120259  0  1.065221  0
H  H40  1  0.04921654  0.52453744  0.34720196  1  0  0.077981  0.130646  0  1.041559  0
H  H41  1  0.45077885  0.47546132  0.84719774  1  0  0.077975  0.130641  0  1.041599  0
H  H42  1  0.95078654  0.02451857  0.15280152  1  0  0.077911  0.130537  0  1.041591  0
H  H43  1  0.54921788  0.97546252  0.65278692  1  0  0.077939  0.130618  0  1.041552  0
C  C44  1  0.55099147  0.32579686  0.40709182  1  0  -0.060938  -0.058634  0  3.910832  0
C  C45  1  0.94899936  0.67418405  0.90709553  1  0  -0.060863  -0.058539  0  3.911154  0
C  C46  1  0.44899705  0.82579613  0.09291371  1  0  -0.060979  -0.058691  0  3.911059  0
C  C47  1  0.05100087  0.17419821  0.59289494  1  0  -0.060875  -0.058514  0  3.910803  0
C  C48  1  0.41155939  0.32417523  0.30490806  1  0  -0.059994  -0.061153  0  3.916613  0
C  C49  1  0.08844356  0.67581341  0.80493412  1  0  -0.060035  -0.061386  0  3.916434  0
C  C50  1  0.58844293  0.82418928  0.19509276  1  0  -0.060041  -0.061226  0  3.916733  0
C  C51  1  0.91156222  0.17581574  0.69506894  1  0  -0.059986  -0.061292  0  3.916408  0
C  C52  1  0.65776897  0.39487831  0.19733927  1  0  -0.052955  -0.080187  0  3.847808  0
C  C53  1  0.84223483  0.60513130  0.69734577  1  0  -0.052818  -0.079955  0  3.848015  0
C  C54  1  0.34221927  0.89488911  0.30266444  1  0  -0.052945  -0.080163  0  3.84776  0
C  C55  1  0.15777397  0.10512943  0.80264967  1  0  -0.052838  -0.080105  0  3.848069  0
C  C56  1  0.79766542  0.40835729  0.30602507  1  0  0.026447  0.184244  0  3.825332  0
C  C57  1  0.70233611  0.59164830  0.80602926  1  0  0.026439  0.184039  0  3.825154  0
C  C58  1  0.20233685  0.90834988  0.19398095  1  0  0.026443  0.184178  0  3.825532  0
C  C59  1  0.29767662  0.09165428  0.69397410  1  0  0.026435  0.184209  0  3.824966  0
C  C60  1  0.94682787  0.52527835  0.28323146  1  0  -0.25713  -0.425789  0  3.936351  0
C  C61  1  0.55316774  0.47471701  0.78323523  1  0  -0.257108  -0.425738  0  3.936256  0
C  C62  1  0.05317108  0.02527579  0.21677358  1  0  -0.257044  -0.425581  0  3.936067  0
C  C63  1  0.44682760  0.97472941  0.71675730  1  0  -0.257104  -0.425783  0  3.936304  0
I  I64  1  0.28310229  0.62066523  0.52911853  1  0  -0.177273  -0.405393  0  1.772522  0
I  I65  1  0.21689040  0.37933060  0.02911399  1  0  -0.177298  -0.405408  0  1.772653  0
I  I66  1  0.71690676  0.12065364  0.97088866  1  0  -0.177309  -0.405408  0  1.772548  0
I  I67  1  0.78308516  0.87933384  0.47089134  1  0  -0.177237  -0.40536  0  1.772626  0
N  N68  1  0.67397288  0.44643951  0.38621703  1  0  -0.404558  -0.259828  0  3.431829  0
N  N69  1  0.82603417  0.55355301  0.88621890  1  0  -0.404641  -0.259802  0  3.431924  0
N  N70  1  0.32602033  0.94643273  0.11379043  1  0  -0.404538  -0.259846  0  3.432099  0
N  N71  1  0.17396414  0.05355461  0.61377279  1  0  -0.404543  -0.259831  0  3.431396  0
N  N72  1  0.52114586  0.28681844  0.21738284  1  0  -0.414724  -0.230197  0  3.54093  0
N  N73  1  0.97885829  0.71318302  0.71738973  1  0  -0.41467  -0.230042  0  3.540468  0
N  N74  1  0.47885862  0.78682854  0.28262598  1  0  -0.414679  -0.230031  0  3.540627  0
N  N75  1  0.02114256  0.21317516  0.78261005  1  0  -0.414723  -0.230049  0  3.540504  0
