# generated using pymatgen
data_Cu3H20C20N2O13
_symmetry_space_group_name_H-M   'P 1'
_cell_length_a   7.79194987
_cell_length_b   10.27664198
_cell_length_c   17.81750494
_cell_angle_alpha   99.86831506
_cell_angle_beta   89.99385742
_cell_angle_gamma   90.00179976
_symmetry_Int_Tables_number   1
_chemical_formula_structural   Cu3H20C20N2O13
_chemical_formula_sum   'Cu6 H40 C40 N4 O26'
_cell_volume   1405.62845373
_cell_formula_units_Z   2
loop_
 _symmetry_equiv_pos_site_id
 _symmetry_equiv_pos_as_xyz
  1  'x, y, z'
loop_
 _atom_site_type_symbol
 _atom_site_label
 _atom_site_symmetry_multiplicity
 _atom_site_fract_x
 _atom_site_fract_y
 _atom_site_fract_z
 _atom_site_occupancy
 _atom_site_pbe_bader_charge
 _atom_site_pbe_bader_spin_density
 _atom_site_pbe_cm5_charge
 _atom_site_pbe_ddec_charge
 _atom_site_pbe_ddec_spin_density
 _atom_site_pbe_ddec_sum_bond_order
 _atom_site_pbe_magmom
Cu  Cu0  1  0.29063505  0.19201376  0.03071280  1  1.072485  0.574252  0.694803  0.857115  0.742057  2.27811  0.573
Cu  Cu1  1  0.79060001  0.80786074  0.96921892  1  1.074008  0.563304  0.695186  0.858134  0.729424  2.277436  0.564
Cu  Cu2  1  0.28482874  0.22108180  0.20654999  1  1.050535  0.551647  0.701862  0.766354  0.717017  2.287867  0.552
Cu  Cu3  1  0.78487134  0.77889390  0.79341790  1  1.050717  0.55168  0.701811  0.766288  0.717161  2.287764  0.552
Cu  Cu4  1  0.19211272  0.99087606  0.87933874  1  1.091037  0.582718  0.719908  0.838422  0.750095  2.170885  0.581
Cu  Cu5  1  0.69199195  0.00927044  0.12076653  1  1.089665  -0.560897  0.719527  0.837542  -0.776839  2.170018  -0.56
H  H6  1  0.80314395  0.30726624  0.84559321  1  0.6046  -8.6e-05  0.3194  0.353758  -2.7e-05  0.905162  0.0
H  H7  1  0.30327219  0.69287476  0.15468642  1  0.601297  0.000112  0.319627  0.3542  0.000161  0.904783  0.0
H  H8  1  0.34484489  0.51197156  0.81247101  1  0.615882  -8.8e-05  0.289661  0.336531  4.9e-05  0.978193  0.0
H  H9  1  0.84479948  0.48804172  0.18757266  1  0.617175  -5.4e-05  0.289696  0.336448  6.7e-05  0.978081  0.0
H  H10  1  0.07234602  0.41460678  0.09940579  1  0.605321  -7.3e-05  0.3186  0.406541  -0.000103  0.877657  0.0
H  H11  1  0.57224352  0.58540766  0.90057225  1  0.606617  -8.3e-05  0.31857  0.406584  -0.000105  0.877641  0.0
H  H12  1  0.95654368  0.30046353  0.11675735  1  0.633068  -0.000335  0.286063  0.367841  -0.000664  0.985227  0.0
H  H13  1  0.45662883  0.69962600  0.88322564  1  0.633927  0.000325  0.286028  0.367933  0.000285  0.985039  0.0
H  H14  1  0.32015802  0.74616347  0.79050986  1  0.150741  0.001564  0.124583  0.101287  0.000724  1.025353  0.001
H  H15  1  0.82028686  0.25380336  0.20946946  1  0.150707  -0.001572  0.124619  0.101412  -0.000734  1.025428  -0.001
H  H16  1  0.31907698  0.63066192  0.65780485  1  0.066357  0.000929  0.107609  0.114799  0.000461  1.002966  0.0
H  H17  1  0.81912842  0.36930025  0.34215944  1  0.067199  -0.000938  0.107606  0.114798  -0.000507  1.00285  0.0
H  H18  1  0.04286867  0.88951527  0.03389379  1  0.075473  0.005734  0.100198  0.043391  0.003089  1.063624  0.004
H  H19  1  0.54279981  0.11046043  0.96602880  1  0.07426  0.004005  0.099682  0.042315  0.001977  1.065043  0.004
H  H20  1  0.32343233  0.89990965  0.12186570  1  0.101026  0.005212  0.112121  0.083656  0.002821  1.018316  0.004
H  H21  1  0.82347435  0.10006261  0.87809047  1  0.101336  0.003052  0.112105  0.083723  0.001566  1.018337  0.002
H  H22  1  0.17656694  0.17220906  0.35572377  1  0.105283  0.00172  0.122065  0.098482  0.000747  0.994126  0.001
H  H23  1  0.67656860  0.82778894  0.64422461  1  0.105051  0.001733  0.122143  0.098478  0.00076  0.994438  0.001
H  H24  1  0.11574396  0.30616346  0.48454124  1  0.086631  0.001103  0.108851  0.11699  0.000577  0.989579  0.0
H  H25  1  0.61569804  0.69385477  0.51541158  1  0.085593  0.00109  0.108937  0.117108  0.000567  0.989343  0.0
H  H26  1  0.19446441  0.65556464  0.38394082  1  0.048855  0.000996  0.113975  0.124473  0.000501  0.990752  0.0
H  H27  1  0.69446192  0.34444628  0.61601201  1  0.048554  0.001004  0.113937  0.124316  0.000507  0.99092  0.0
H  H28  1  0.27005651  0.50844130  0.26302538  1  0.205925  0.002016  0.127015  0.112657  0.001023  1.006052  0.002
H  H29  1  0.77005405  0.49158812  0.73692191  1  0.207075  0.002007  0.126905  0.112635  0.001001  1.005679  0.002
H  H30  1  0.04159129  0.06090481  0.73836534  1  0.140618  0.001543  0.12598  0.110182  0.00073  0.995369  0.002
H  H31  1  0.54170807  0.93901841  0.26160905  1  0.140305  -0.001568  0.125964  0.110214  -0.000795  0.995452  -0.002
H  H32  1  0.09970003  0.77672773  0.49953416  1  0.03011  0.00011  0.09613  0.093145  7.1e-05  0.976922  0.0
H  H33  1  0.59972174  0.22325626  0.50044332  1  0.030385  8e-06  0.096204  0.093202  -1e-06  0.977115  0.0
H  H34  1  0.30811213  0.71773207  0.51345652  1  0.050441  -0.000153  0.094455  0.088635  -7.9e-05  1.001357  0.0
H  H35  1  0.80810647  0.28227829  0.48651897  1  0.050375  0.000277  0.094482  0.088614  0.000154  1.001522  0.0
H  H36  1  0.95424134  0.42585695  0.93704873  1  0.143342  0.001074  0.120244  0.093446  0.000567  0.992489  0.001
H  H37  1  0.45412106  0.57427123  0.06313545  1  0.146117  -0.000306  0.120214  0.093188  -0.000162  0.992994  0.0
H  H38  1  0.21392935  0.52918844  0.91777845  1  0.121249  0.000575  0.116635  0.08526  0.00039  0.98995  0.0
H  H39  1  0.71389737  0.47086815  0.08227649  1  0.122023  0.000527  0.116606  0.085251  0.000414  0.990359  0.0
H  H40  1  0.02436520  0.95643285  0.60045218  1  0.071864  0.000991  0.10186  0.106774  0.000531  1.001944  0.0
H  H41  1  0.52449990  0.04347648  0.39951763  1  0.07284  -0.000942  0.101906  0.106903  -0.000517  1.001521  0.0
H  H42  1  0.97018613  0.57557911  0.53248724  1  0.051017  -0.000258  0.095653  0.101235  -0.000158  1.013411  0.0
H  H43  1  0.47020678  0.42436748  0.46747280  1  0.051272  -0.000267  0.095699  0.101242  -0.000153  1.013557  0.0
H  H44  1  0.16412073  0.52395998  0.56644321  1  0.058478  -1.4e-05  0.103513  0.107064  6e-06  0.97882  0.0
H  H45  1  0.66412887  0.47600626  0.43350467  1  0.058231  -0.000123  0.103508  0.107139  -7e-05  0.979042  0.0
C  C46  1  0.25719807  0.78990316  0.74677642  1  0.514305  -0.000778  0.057811  0.138151  -2.7e-05  3.91758  0.0
C  C47  1  0.75728477  0.21005563  0.25318425  1  0.513768  0.000914  0.058026  0.138006  -9.5e-05  3.917874  0.001
C  C48  1  0.25532055  0.72608692  0.67171417  1  -0.015006  0.004741  -0.083374  -0.172786  0.003198  3.921716  0.004
C  C49  1  0.75541482  0.27385890  0.32825141  1  -0.016197  -0.004612  -0.083451  -0.172811  -0.00332  3.921155  -0.004
C  C50  1  0.27672110  0.82539814  0.98153077  1  1.576307  0.000707  0.200405  0.560772  0.000976  4.157959  0.0
C  C51  1  0.77651327  0.17470776  0.01845568  1  1.574796  -0.001055  0.199935  0.56006  -0.001821  4.158002  -0.001
C  C52  1  0.17012743  0.93528287  0.02756613  1  0.467562  0.008963  -0.025642  0.03803  0.008531  3.922294  0.003
C  C53  1  0.67004473  0.06468821  0.97244091  1  0.469954  0.005683  -0.026006  0.038605  0.003994  3.924308  0.004
C  C54  1  0.23934122  0.97944043  0.10858256  1  0.427233  0.009274  -0.030624  0.02947  0.008403  3.890711  0.003
C  C55  1  0.73931104  0.02057301  0.89141108  1  0.424176  0.001707  -0.030724  0.028657  0.002817  3.890159  -0.001
C  C56  1  0.09779450  0.99414424  0.16892414  1  1.552441  0.000512  0.1883  0.554377  0.001334  4.174626  0.0
C  C57  1  0.59777200  0.00574118  0.83108292  1  1.552979  -0.00059  0.189349  0.555722  0.000311  4.173528  -0.001
C  C58  1  0.18219054  0.27975344  0.36591033  1  0.483367  -0.001356  0.048289  0.090715  -0.000458  3.969697  -0.001
C  C59  1  0.68216685  0.72024883  0.63402421  1  0.485223  -0.001321  0.047843  0.090173  -0.000423  3.970674  -0.001
C  C60  1  0.14511970  0.35519694  0.43637501  1  -0.030536  0.004497  -0.091168  -0.205431  0.003033  3.98526  0.004
C  C61  1  0.64509065  0.64479899  0.56356566  1  -0.031626  0.004543  -0.091008  -0.205307  0.003065  3.98532  0.004
C  C62  1  0.14764601  0.49368297  0.44567462  1  -0.052917  -0.003547  0.008845  0.155319  -0.00249  3.967342  -0.002
C  C63  1  0.64764393  0.50631466  0.55428126  1  -0.054364  -0.003471  0.008864  0.155327  -0.002434  3.967545  -0.002
C  C64  1  0.18984220  0.54900828  0.38154761  1  -0.01004  0.004901  -0.083526  -0.189693  0.003287  3.927752  0.004
C  C65  1  0.68985152  0.45100054  0.61840971  1  -0.009632  0.004912  -0.083604  -0.189584  0.003297  3.927854  0.004
C  C66  1  0.23076409  0.46766280  0.31301021  1  0.474449  -0.001523  0.064186  0.127159  -0.000582  3.877761  -0.001
C  C67  1  0.73076409  0.53236532  0.68693711  1  0.47518  -0.001513  0.064174  0.126969  -0.000571  3.878265  -0.001
C  C68  1  0.09974176  0.96514998  0.71711870  1  0.452446  -0.000461  0.049927  0.094673  0.00013  3.944235  0.0
C  C69  1  0.59990332  0.03475999  0.28284763  1  0.454441  0.000562  0.049897  0.094377  -0.000463  3.943526  0.001
C  C70  1  0.17243407  0.78418900  0.61635332  1  -0.053132  -0.002874  0.005479  0.15645  -0.002037  3.960075  -0.002
C  C71  1  0.67249941  0.21576491  0.38362150  1  -0.05317  0.003317  0.005784  0.157032  0.002168  3.959414  0.002
C  C72  1  0.17458591  0.71809140  0.53410425  1  -0.017461  0.000251  -0.154163  -0.190106  0.000174  3.962569  0.0
C  C73  1  0.67459684  0.28189526  0.46586662  1  -0.016719  -0.000124  -0.154329  -0.190296  -7.5e-05  3.962847  0.0
C  C74  1  0.12215431  0.27075876  0.89898929  1  1.608626  0.002243  0.225223  0.598571  0.003917  4.098219  -0.001
C  C75  1  0.62220100  0.72923000  0.10105666  1  1.609462  0.002487  0.225493  0.59866  0.001608  4.097359  0.002
C  C76  1  0.00757576  0.61946242  0.86772965  1  1.567695  0.002932  0.217096  0.575243  0.003771  4.106664  0.0
C  C77  1  0.50754939  0.38056746  0.13229403  1  1.567542  0.001021  0.21744  0.576213  0.002465  4.106162  -0.002
C  C78  1  0.01761772  0.38900276  0.88242249  1  0.449132  0.020002  -0.006294  0.034295  0.014004  3.884134  0.015
C  C79  1  0.51764102  0.61105456  0.11772147  1  0.446584  5e-05  -0.006299  0.035163  -0.000138  3.883572  -0.001
C  C80  1  0.13221345  0.50279538  0.86701939  1  0.499743  0.017667  -0.003005  0.055492  0.012691  3.882876  0.013
C  C81  1  0.63221001  0.49727598  0.13305779  1  0.489797  0.016153  -0.003001  0.054796  0.011519  3.883617  0.013
C  C82  1  0.09246150  0.90624266  0.64076516  1  -0.014388  0.004908  -0.09489  -0.205876  0.003266  3.990444  0.004
C  C83  1  0.59258774  0.09368605  0.35920180  1  -0.015679  -0.005304  -0.095192  -0.20625  -0.003841  3.989696  -0.004
C  C84  1  0.10971980  0.57508374  0.52243995  1  -0.030707  5.6e-05  -0.154879  -0.196499  1.1e-05  3.938373  0.0
C  C85  1  0.60973033  0.42490164  0.47752036  1  -0.030703  0.000122  -0.154826  -0.196557  5.9e-05  3.93883  0.0
N  N86  1  0.18132599  0.90752842  0.76943911  1  -1.203972  0.071852  -0.34537  -0.240126  0.048259  3.614659  0.062
N  N87  1  0.68146952  0.09240796  0.23052447  1  -1.204718  -0.071621  -0.345292  -0.238963  -0.051751  3.616207  -0.061
N  N88  1  0.22645380  0.33519662  0.30545464  1  -1.22554  0.072873  -0.346655  -0.220446  0.049222  3.602216  0.063
N  N89  1  0.72647962  0.66482787  0.69447454  1  -1.225774  0.07279  -0.346428  -0.220075  0.049157  3.602519  0.063
O  O90  1  0.30651588  0.83688776  0.91067657  1  -1.137475  0.091091  -0.33074  -0.553295  0.058434  2.355988  0.084
O  O91  1  0.80642369  0.16332819  0.08931162  1  -1.13604  -0.089223  -0.329877  -0.552141  -0.061844  2.355106  -0.082
O  O92  1  0.14937671  0.04412793  0.98874723  1  -1.010961  0.211522  -0.396542  -0.544432  0.136484  2.495624  0.19
O  O93  1  0.64960806  0.95588924  0.01127404  1  -1.016153  -0.004432  -0.399106  -0.548584  -0.005936  2.498437  -0.004
O  O94  1  0.34060388  0.09695030  0.11374451  1  -1.012705  0.212501  -0.396432  -0.577015  0.138178  2.53332  0.19
O  O95  1  0.84072295  0.90306304  0.88619216  1  -1.011318  0.21218  -0.396013  -0.576727  0.137548  2.531533  0.191
O  O96  1  0.09563583  0.15853423  0.85847541  1  -1.124044  0.088806  -0.305129  -0.509334  0.057497  2.420897  0.08
O  O97  1  0.59562366  0.84144362  0.14156166  1  -1.124083  -0.077411  -0.30498  -0.509317  -0.054513  2.420192  -0.07
O  O98  1  0.22177516  0.29922699  0.95593580  1  -1.138582  0.083621  -0.325753  -0.538761  0.053821  2.410153  0.075
O  O99  1  0.72178575  0.70069963  0.04408772  1  -1.138201  0.079279  -0.325775  -0.538711  0.05152  2.408764  0.071
O  O100  1  0.94640946  0.66335744  0.93330885  1  -1.128274  0.080003  -0.322447  -0.531744  0.051724  2.443652  0.073
O  O101  1  0.44630604  0.33676821  0.06674689  1  -1.128323  0.078593  -0.322719  -0.532298  0.050812  2.443152  0.071
O  O102  1  0.97076802  0.65634548  0.80532643  1  -1.129805  0.077612  -0.314983  -0.523041  0.050273  2.466526  0.07
O  O103  1  0.47089543  0.34351707  0.19468087  1  -1.12956  0.077513  -0.315222  -0.523398  0.050274  2.465508  0.07
O  O104  1  0.11523069  0.09334540  0.22498759  1  -1.112383  0.112332  -0.347191  -0.552287  0.071876  2.347872  0.102
O  O105  1  0.61517818  0.90653712  0.77502227  1  -1.111268  0.111574  -0.347156  -0.552152  0.071486  2.347735  0.102
O  O106  1  0.32390945  0.72907755  0.00950350  1  -1.170102  0.032538  -0.299806  -0.508197  0.020626  2.184795  0.027
O  O107  1  0.82360813  0.27104718  0.99044959  1  -1.170201  -0.028572  -0.300035  -0.508546  -0.0196  2.18487  -0.024
O  O108  1  0.98026678  0.91181284  0.16489916  1  -1.138196  0.044245  -0.315894  -0.526446  0.02802  2.159991  0.036
O  O109  1  0.48011598  0.08798046  0.83516160  1  -1.138874  0.039785  -0.316174  -0.526594  0.025294  2.160074  0.034
O  O110  1  0.89232177  0.35636219  0.82393185  1  -1.126267  0.008443  -0.398654  -0.467428  0.005073  2.209439  0.006
O  O111  1  0.39247720  0.64373510  0.17628904  1  -1.124111  0.007311  -0.398592  -0.467987  0.004577  2.208697  0.006
O  O112  1  0.23161070  0.47107039  0.80004498  1  -1.132741  0.011063  -0.417897  -0.475231  0.006776  2.202252  0.008
O  O113  1  0.73157816  0.52893346  0.20003165  1  -1.125136  0.010202  -0.418013  -0.475103  0.006284  2.202632  0.008
O  O114  1  0.03002450  0.37465452  0.14173692  1  -1.236593  -0.002835  -0.574926  -0.787316  -0.002021  2.008436  -0.001
O  O115  1  0.53003421  0.62539626  0.85823851  1  -1.2386  -0.001778  -0.574709  -0.787293  -0.001386  2.008812  0.0
