# generated using pymatgen
data_CuH14C15SN3O2
_symmetry_space_group_name_H-M   'P 1'
_cell_length_a   5.64482456
_cell_length_b   5.67242108
_cell_length_c   23.50922690
_cell_angle_alpha   90.00015076
_cell_angle_beta   89.99970658
_cell_angle_gamma   99.61145259
_symmetry_Int_Tables_number   1
_chemical_formula_structural   CuH14C15SN3O2
_chemical_formula_sum   'Cu2 H28 C30 S2 N6 O4'
_cell_volume   742.19450715
_cell_formula_units_Z   2
loop_
 _symmetry_equiv_pos_site_id
 _symmetry_equiv_pos_as_xyz
  1  'x, y, z'
loop_
 _atom_site_type_symbol
 _atom_site_label
 _atom_site_symmetry_multiplicity
 _atom_site_fract_x
 _atom_site_fract_y
 _atom_site_fract_z
 _atom_site_occupancy
 _atom_site_hle17_bader_spin_density
 _atom_site_hle17_ddec_charge
 _atom_site_hle17_ddec_spin_density
 _atom_site_hle17_ddec_sum_bond_order
 _atom_site_hle17_magmom
 _atom_site_hse06_10hf_bader_spin_density
 _atom_site_hse06_10hf_ddec_charge
 _atom_site_hse06_10hf_ddec_spin_density
 _atom_site_hse06_10hf_ddec_sum_bond_order
 _atom_site_hse06_10hf_magmom
 _atom_site_hse06_bader_spin_density
 _atom_site_hse06_ddec_charge
 _atom_site_hse06_ddec_spin_density
 _atom_site_hse06_ddec_sum_bond_order
 _atom_site_hse06_magmom
 _atom_site_pbe_bader_spin_density
 _atom_site_pbe_cm5_charge
 _atom_site_pbe_ddec_charge
 _atom_site_pbe_ddec_spin_density
 _atom_site_pbe_ddec_sum_bond_order
 _atom_site_pbe_magmom
Cu  Cu0  1  0.39652127  0.62718347  0.75000079  1  0  0.443947  0  2.230228  0  0  0.344788  0  2.746839  0  0  0.323174  0  2.71877  0  0  0.555792  0.366199  0  2.759291  0
Cu  Cu1  1  0.60345652  0.37281213  0.24999776  1  0  0.443989  0  2.2305  0  0  0.34487  0  2.747103  0  0  0.323185  0  2.719007  0  0  0.555906  0.366248  0  2.759667  0
H  H2  1  0.45419363  0.25148261  0.84069993  1  0  0.075948  0  0.95318  0  0  0.084558  0  1.018084  0  0  0.086813  0  1.016742  0  0  0.110821  0.082777  0  1.019329  0
H  H3  1  0.54580626  0.74850859  0.34070059  1  0  0.07593  0  0.953259  0  0  0.08457  0  1.018152  0  0  0.086823  0  1.01681  0  0  0.110827  0.082791  0  1.019395  0
H  H4  1  0.54580722  0.74851316  0.15929990  1  0  0.075996  0  0.953127  0  0  0.084593  0  1.018074  0  0  0.086845  0  1.016736  0  0  0.110841  0.082814  0  1.019318  0
H  H5  1  0.45419545  0.25149254  0.65929754  1  0  0.07596  0  0.953248  0  0  0.084603  0  1.01811  0  0  0.08686  0  1.016766  0  0  0.110845  0.08282  0  1.019356  0
H  H6  1  0.76884385  0.20935763  0.91414451  1  0  0.108406  0  0.951056  0  0  0.118201  0  1.012239  0  0  0.121158  0  1.011306  0  0  0.110831  0.116198  0  1.012985  0
H  H7  1  0.23115572  0.79063064  0.41414259  1  0  0.108431  0  0.951035  0  0  0.118224  0  1.012211  0  0  0.121181  0  1.011274  0  0  0.110833  0.116223  0  1.012959  0
H  H8  1  0.23114991  0.79063808  0.08585914  1  0  0.108387  0  0.951051  0  0  0.118207  0  1.012202  0  0  0.121164  0  1.011268  0  0  0.110823  0.116204  0  1.012949  0
H  H9  1  0.76885011  0.20937409  0.58585511  1  0  0.108429  0  0.951056  0  0  0.118248  0  1.012206  0  0  0.121204  0  1.011272  0  0  0.110838  0.116246  0  1.012953  0
H  H10  1  0.47876126  0.70777200  0.98335722  1  0  0.144902  0  0.963008  0  0  0.159898  0  1.028349  0  0  0.163296  0  1.026461  0  0  0.096337  0.15745  0  1.0297  0
H  H11  1  0.52123765  0.29224366  0.48335637  1  0  0.144951  0  0.962876  0  0  0.159946  0  1.028221  0  0  0.163342  0  1.026329  0  0  0.096351  0.157498  0  1.02957  0
H  H12  1  0.52124184  0.29224878  0.01664133  1  0  0.145093  0  0.963021  0  0  0.160094  0  1.028313  0  0  0.16349  0  1.02642  0  0  0.096427  0.157645  0  1.029664  0
H  H13  1  0.47877289  0.70776825  0.51664515  1  0  0.144983  0  0.963  0  0  0.15996  0  1.028357  0  0  0.163367  0  1.026463  0  0  0.096349  0.157512  0  1.029708  0
H  H14  1  0.26092071  0.89968994  0.96853727  1  0  0.151257  0  0.933904  0  0  0.171779  0  0.991524  0  0  0.174381  0  0.989808  0  0  0.10483  0.169838  0  0.992813  0
H  H15  1  0.73907442  0.10031128  0.46853733  1  0  0.151228  0  0.933986  0  0  0.171786  0  0.991555  0  0  0.174388  0  0.989837  0  0  0.104831  0.169845  0  0.992842  0
H  H16  1  0.73908124  0.10032370  0.03145958  1  0  0.15123  0  0.933963  0  0  0.171804  0  0.991514  0  0  0.174399  0  0.989802  0  0  0.104842  0.169861  0  0.9928  0
H  H17  1  0.26093055  0.89968809  0.53146505  1  0  0.15121  0  0.933984  0  0  0.171758  0  0.991558  0  0  0.17436  0  0.989844  0  0  0.104837  0.169817  0  0.992845  0
H  H18  1  0.44114285  0.81632791  0.91318483  1  0  0.13077  0  0.9523  0  0  0.152213  0  1.012466  0  0  0.153617  0  1.013694  0  0  0.097733  0.150897  0  1.0119  0
H  H19  1  0.55884164  0.18366560  0.41318515  1  0  0.130785  0  0.952197  0  0  0.152227  0  1.012355  0  0  0.15363  0  1.013584  0  0  0.097745  0.150911  0  1.011789  0
H  H20  1  0.55885143  0.18368209  0.08681287  1  0  0.13079  0  0.95221  0  0  0.152227  0  1.012395  0  0  0.15363  0  1.013624  0  0  0.09772  0.150911  0  1.01183  0
H  H21  1  0.44115034  0.81633010  0.58681637  1  0  0.130731  0  0.952313  0  0  0.152181  0  1.012454  0  0  0.153585  0  1.013685  0  0  0.09773  0.150865  0  1.011888  0
H  H22  1  0.09856124  0.93329084  0.87452918  1  0  0.108912  0  0.948896  0  0  0.120206  0  1.008782  0  0  0.122768  0  1.008359  0  0  0.11145  0.118379  0  1.009298  0
H  H23  1  0.90143829  0.06669172  0.37452648  1  0  0.108908  0  0.94884  0  0  0.120208  0  1.008727  0  0  0.122771  0  1.008302  0  0  0.111428  0.118381  0  1.009242  0
H  H24  1  0.90143046  0.06670307  0.12547235  1  0  0.108891  0  0.948893  0  0  0.120191  0  1.008781  0  0  0.122752  0  1.00836  0  0  0.111421  0.118365  0  1.009296  0
H  H25  1  0.09856611  0.93330407  0.62547590  1  0  0.108917  0  0.948848  0  0  0.120209  0  1.008733  0  0  0.122772  0  1.008307  0  0  0.111427  0.11838  0  1.009248  0
H  H26  1  0.77572565  0.94645944  0.80409048  1  0  0.073256  0  0.9715  0  0  0.078413  0  1.044231  0  0  0.081185  0  1.042432  0  0  0.105513  0.076189  0  1.045836  0
H  H27  1  0.22428296  0.05353686  0.30408942  1  0  0.073128  0  0.971611  0  0  0.078273  0  1.044343  0  0  0.081043  0  1.042548  0  0  0.105457  0.07605  0  1.045952  0
H  H28  1  0.22427818  0.05353277  0.19590722  1  0  0.073184  0  0.971519  0  0  0.078314  0  1.044275  0  0  0.081098  0  1.042464  0  0  0.105474  0.076093  0  1.045883  0
H  H29  1  0.77571401  0.94646781  0.69591125  1  0  0.07315  0  0.971538  0  0  0.078295  0  1.04428  0  0  0.081062  0  1.042484  0  0  0.105461  0.07607  0  1.045885  0
C  C30  1  0.60091472  0.39741642  0.84983077  1  0  0.111618  0  3.703845  0  0  0.083807  0  3.958932  0  0  0.088296  0  3.975059  0  0  0.037956  0.080842  0  3.948593  0
C  C31  1  0.39909443  0.60257849  0.34983066  1  0  0.111556  0  3.704104  0  0  0.083684  0  3.959171  0  0  0.088174  0  3.975294  0  0  0.037916  0.080719  0  3.948844  0
C  C32  1  0.39908585  0.60257755  0.15016906  1  0  0.111636  0  3.703988  0  0  0.083798  0  3.959073  0  0  0.088284  0  3.975199  0  0  0.037968  0.080832  0  3.948742  0
C  C33  1  0.60090638  0.39742799  0.65016661  1  0  0.111475  0  3.704058  0  0  0.083649  0  3.959139  0  0  0.088139  0  3.975264  0  0  0.037904  0.080684  0  3.948801  0
C  C34  1  0.77507974  0.37443067  0.89011867  1  0  -0.107812  0  3.701185  0  0  -0.130412  0  3.95007  0  0  -0.135793  0  3.971943  0  0  -0.071591  -0.127089  0  3.93537  0
C  C35  1  0.22492724  0.62553423  0.39011879  1  0  -0.107935  0  3.701553  0  0  -0.130468  0  3.950368  0  0  -0.135851  0  3.972247  0  0  -0.071623  -0.127149  0  3.935678  0
C  C36  1  0.22491944  0.62554366  0.10988201  1  0  -0.107815  0  3.701394  0  0  -0.1304  0  3.950237  0  0  -0.135785  0  3.972124  0  0  -0.071608  -0.127078  0  3.935545  0
C  C37  1  0.77507098  0.37445616  0.60987934  1  0  -0.107775  0  3.701302  0  0  -0.130406  0  3.950194  0  0  -0.135788  0  3.97207  0  0  -0.07163  -0.127087  0  3.935493  0
C  C38  1  0.96314210  0.56546922  0.89955108  1  0  -0.008242  0  3.724473  0  0  0.005499  0  3.958387  0  0  0.005031  0  3.978848  0  0  -0.003246  0.00614  0  3.944662  0
C  C39  1  0.03687110  0.43451367  0.39955046  1  0  -0.008111  0  3.724422  0  0  0.005564  0  3.958373  0  0  0.0051  0  3.978832  0  0  -0.003227  0.006209  0  3.944661  0
C  C40  1  0.03685908  0.43451762  0.10045002  1  0  -0.008257  0  3.72457  0  0  0.005471  0  3.958521  0  0  0.005003  0  3.978984  0  0  -0.003251  0.006113  0  3.94481  0
C  C41  1  0.96313862  0.56548217  0.60044766  1  0  -0.008219  0  3.724544  0  0  0.005519  0  3.958478  0  0  0.005052  0  3.978936  0  0  -0.003211  0.006164  0  3.944741  0
C  C42  1  0.16135093  0.53641975  0.93988337  1  0  0.497502  0  3.668754  0  0  0.48428  0  3.937054  0  0  0.506516  0  3.937545  0  0  0.167991  0.468324  0  3.937383  0
C  C43  1  0.83864959  0.46356697  0.43988224  1  0  0.497575  0  3.668409  0  0  0.484395  0  3.936665  0  0  0.506635  0  3.937152  0  0  0.168079  0.468428  0  3.937022  0
C  C44  1  0.83864690  0.46359028  0.06011731  1  0  0.497744  0  3.668571  0  0  0.484483  0  3.936929  0  0  0.506718  0  3.93742  0  0  0.168052  0.468527  0  3.937266  0
C  C45  1  0.16136041  0.53643065  0.56011971  1  0  0.497397  0  3.66882  0  0  0.484146  0  3.937151  0  0  0.506387  0  3.93764  0  0  0.167927  0.468193  0  3.937469  0
C  C46  1  0.34699046  0.75221086  0.95270254  1  0  -0.4417  0  3.657644  0  0  -0.522217  0  3.888453  0  0  -0.528785  0  3.89263  0  0  -0.249169  -0.517248  0  3.885836  0
C  C47  1  0.65300797  0.24778667  0.45270151  1  0  -0.441713  0  3.657517  0  0  -0.522254  0  3.888346  0  0  -0.528813  0  3.892515  0  0  -0.249179  -0.517279  0  3.885731  0
C  C48  1  0.65301240  0.24779742  0.04729516  1  0  -0.441907  0  3.657652  0  0  -0.522429  0  3.888485  0  0  -0.528987  0  3.892655  0  0  -0.249219  -0.517454  0  3.885867  0
C  C49  1  0.34700112  0.75221630  0.54729916  1  0  -0.441597  0  3.657705  0  0  -0.522106  0  3.888531  0  0  -0.528684  0  3.892711  0  0  -0.249121  -0.517135  0  3.885909  0
C  C50  1  0.96099910  0.77630341  0.86872324  1  0  -0.110992  0  3.697921  0  0  -0.132718  0  3.945646  0  0  -0.137022  0  3.965107  0  0  -0.071871  -0.13039  0  3.93307  0
C  C51  1  0.03900942  0.22367917  0.36872037  1  0  -0.111052  0  3.697913  0  0  -0.132807  0  3.945668  0  0  -0.137112  0  3.965131  0  0  -0.071908  -0.130477  0  3.933098  0
C  C52  1  0.03899792  0.22369055  0.13127871  1  0  -0.111061  0  3.697959  0  0  -0.132805  0  3.945695  0  0  -0.13711  0  3.965161  0  0  -0.071891  -0.130477  0  3.933131  0
C  C53  1  0.96100150  0.77631309  0.63127945  1  0  -0.110986  0  3.697831  0  0  -0.132725  0  3.94555  0  0  -0.13703  0  3.965011  0  0  -0.07185  -0.130396  0  3.932968  0
C  C54  1  0.78035389  0.78506395  0.82906616  1  0  0.11258  0  3.68679  0  0  0.085948  0  3.937454  0  0  0.091706  0  3.951069  0  0  0.036682  0.081911  0  3.929425  0
C  C55  1  0.21965219  0.21492005  0.32906605  1  0  0.112614  0  3.686952  0  0  0.086057  0  3.93755  0  0  0.091812  0  3.951166  0  0  0.036763  0.082022  0  3.929528  0
C  C56  1  0.21963872  0.21492461  0.17093579  1  0  0.112685  0  3.686811  0  0  0.086098  0  3.937425  0  0  0.091845  0  3.951029  0  0  0.036741  0.082061  0  3.929406  0
C  C57  1  0.78035724  0.78507400  0.67093633  1  0  0.112608  0  3.686796  0  0  0.086028  0  3.93739  0  0  0.091792  0  3.951005  0  0  0.036735  0.08199  0  3.92936  0
C  C58  1  0.20517085  0.10595116  0.75000160  1  0  0.246488  0  4.050173  0  0  0.240278  0  4.347373  0  0  0.255059  0  4.363598  0  0  0.129269  0.230879  0  4.335191  0
C  C59  1  0.79484779  0.89403402  0.24999950  1  0  0.246291  0  4.049944  0  0  0.240097  0  4.347138  0  0  0.254883  0  4.363366  0  0  0.129127  0.230701  0  4.334967  0
S  S60  1  0.06300234  0.33396015  0.74999962  1  0  -0.332661  0  2.441664  0  0  -0.312615  0  2.831522  0  0  -0.323507  0  2.825638  0  0  -0.171766  -0.304328  0  2.833347  0
S  S61  1  0.93698845  0.66603912  0.24999850  1  0  -0.332459  0  2.442143  0  0  -0.312414  0  2.831996  0  0  -0.32328  0  2.826098  0  0  -0.171693  -0.30413  0  2.833855  0
N  N62  1  0.60374521  0.59825191  0.81869113  1  0  -0.280517  0  3.34892  0  0  -0.215049  0  3.644896  0  0  -0.218825  0  3.649288  0  0  -0.355427  -0.21383  0  3.642066  0
N  N63  1  0.39624895  0.40173369  0.31869177  1  0  -0.280266  0  3.348903  0  0  -0.21487  0  3.644935  0  0  -0.218621  0  3.649283  0  0  -0.355407  -0.213646  0  3.642127  0
N  N64  1  0.39624653  0.40173129  0.18130614  1  0  -0.280561  0  3.349278  0  0  -0.215099  0  3.645274  0  0  -0.218855  0  3.649631  0  0  -0.355481  -0.213876  0  3.642463  0
N  N65  1  0.60373949  0.59826198  0.68130848  1  0  -0.280382  0  3.348969  0  0  -0.214966  0  3.64498  0  0  -0.218736  0  3.649359  0  0  -0.355443  -0.213747  0  3.642147  0
N  N66  1  0.30346488  0.93697137  0.75000221  1  0  -0.520818  0  3.13499  0  0  -0.481149  0  3.475278  0  0  -0.488648  0  3.475849  0  0  -0.446352  -0.476483  0  3.472888  0
N  N67  1  0.69653021  0.06305471  0.24999719  1  0  -0.520907  0  3.134431  0  0  -0.481259  0  3.474757  0  0  -0.488748  0  3.475304  0  0  -0.44637  -0.476586  0  3.472399  0
O  O68  1  0.17019020  0.33782463  0.96066663  1  0  -0.484374  0  1.899403  0  0  -0.440067  0  2.100441  0  0  -0.4574  0  2.097227  0  0  -0.262303  -0.428533  0  2.10308  0
O  O69  1  0.82980452  0.66217295  0.46066691  1  0  -0.484467  0  1.899155  0  0  -0.440169  0  2.100165  0  0  -0.457509  0  2.096957  0  0  -0.262361  -0.42863  0  2.102812  0
O  O70  1  0.82980940  0.66218542  0.03933489  1  0  -0.484508  0  1.899414  0  0  -0.440197  0  2.10049  0  0  -0.457511  0  2.097251  0  0  -0.26235  -0.428661  0  2.103128  0
O  O71  1  0.17019331  0.33783708  0.53933292  1  0  -0.48437  0  1.899408  0  0  -0.440038  0  2.100434  0  0  -0.457372  0  2.09722  0  0  -0.262284  -0.428507  0  2.103072  0
