# generated using pymatgen
data_CoH7C13NO4
_symmetry_space_group_name_H-M   'P 1'
_cell_length_a   11.83069184
_cell_length_b   13.89780295
_cell_length_c   14.00087530
_cell_angle_alpha   90.00033507
_cell_angle_beta   115.25219247
_cell_angle_gamma   90.00036463
_symmetry_Int_Tables_number   1
_chemical_formula_structural   CoH7C13NO4
_chemical_formula_sum   'Co4 H28 C52 N4 O16'
_cell_volume   2082.04769984
_cell_formula_units_Z   4
loop_
 _symmetry_equiv_pos_site_id
 _symmetry_equiv_pos_as_xyz
  1  'x, y, z'
loop_
 _atom_site_type_symbol
 _atom_site_label
 _atom_site_symmetry_multiplicity
 _atom_site_fract_x
 _atom_site_fract_y
 _atom_site_fract_z
 _atom_site_occupancy
 _atom_site_pbe_bader_charge
 _atom_site_pbe_bader_spin_density
 _atom_site_pbe_cm5_charge
 _atom_site_pbe_ddec_charge
 _atom_site_pbe_ddec_spin_density
 _atom_site_pbe_ddec_sum_bond_order
 _atom_site_pbe_magmom
Co  Co0  1  0.08907614  0.54642054  0.03761818  1  1.189668  2.59896  0.611921  0.762637  2.817636  2.737734  2.583
Co  Co1  1  0.91089715  0.04643062  0.46235725  1  1.190489  2.599019  0.611855  0.762573  2.817539  2.737461  2.583
Co  Co2  1  0.91087489  0.45355688  0.96234456  1  1.190601  2.598971  0.611849  0.762292  2.817463  2.737825  2.582
Co  Co3  1  0.08909875  0.95357054  0.53762586  1  1.18971  2.598922  0.611921  0.762559  2.817574  2.737935  2.583
H  H4  1  0.34086207  0.46453940  0.10038385  1  0.086221  0.001183  0.118623  0.091477  0.000359  1.007116  0.001
H  H5  1  0.65914461  0.96455976  0.39962669  1  0.086131  0.001185  0.118539  0.091459  0.00036  1.007192  0.001
H  H6  1  0.65913481  0.53545456  0.89961390  1  0.086119  0.001185  0.118574  0.091412  0.00036  1.007224  0.001
H  H7  1  0.34088786  0.03547378  0.60040238  1  0.086137  0.001184  0.118621  0.091507  0.00036  1.007008  0.001
H  H8  1  0.56306259  0.51083957  0.15233844  1  0.082198  0.000438  0.1101  0.118757  0.000172  0.995621  0.0
H  H9  1  0.43695336  0.01086221  0.34768708  1  0.082233  0.000438  0.110091  0.118771  0.000172  0.995823  0.0
H  H10  1  0.43694372  0.48915656  0.84768626  1  0.082148  0.000439  0.11009  0.118798  0.000172  0.995469  0.0
H  H11  1  0.56308470  0.98917421  0.65234114  1  0.082415  0.000438  0.11014  0.118752  0.000172  0.995647  0.0
H  H12  1  0.45016630  0.80742928  0.14572607  1  0.071468  0.000773  0.110942  0.1187  0.000309  0.992567  0.0
H  H13  1  0.54986641  0.30744899  0.35428646  1  0.071272  0.000774  0.110973  0.11877  0.000309  0.99254  0.0
H  H14  1  0.54985212  0.19256684  0.85428868  1  0.071431  0.000774  0.11086  0.118661  0.000309  0.992652  0.0
H  H15  1  0.45017907  0.69258383  0.64572870  1  0.072013  0.000773  0.11092  0.118715  0.000309  0.992528  0.0
H  H16  1  0.23237472  0.74770615  0.09421610  1  0.115017  0.001236  0.127162  0.098748  0.000404  0.963981  0.001
H  H17  1  0.76764229  0.24771439  0.40579332  1  0.114691  0.001237  0.127078  0.098569  0.000404  0.964174  0.001
H  H18  1  0.76763338  0.25230149  0.90578710  1  0.114983  0.001239  0.127111  0.098688  0.000405  0.963844  0.001
H  H19  1  0.23239014  0.75230979  0.59422574  1  0.115363  0.001236  0.127092  0.098592  0.000404  0.9642  0.001
H  H20  1  0.01016304  0.74780821  0.26320391  1  0.143842  0.000766  0.114363  0.125884  0.000395  0.985087  0.0
H  H21  1  0.98982957  0.24780084  0.23676819  1  0.144386  0.000767  0.114388  0.125866  0.000396  0.984989  0.0
H  H22  1  0.98983659  0.25217136  0.73677839  1  0.113623  0.000787  0.114324  0.125794  0.000396  0.98506  0.0
H  H23  1  0.01016068  0.75216506  0.76320075  1  0.113613  0.000787  0.114329  0.125794  0.000395  0.985046  0.0
H  H24  1  0.66327992  0.81392049  0.27950564  1  0.077005  0.000195  0.105838  0.108235  3.5e-05  1.010381  0.0
H  H25  1  0.33670982  0.31392673  0.22047438  1  0.076701  0.000194  0.105817  0.109598  3.6e-05  1.008842  0.0
H  H26  1  0.33673566  0.18607203  0.72050023  1  0.077038  0.000194  0.105833  0.108255  3.4e-05  1.010545  0.0
H  H27  1  0.66326360  0.68607515  0.77948639  1  0.077364  0.000194  0.105827  0.108085  3.4e-05  1.010314  0.0
H  H28  1  0.68410506  0.57839642  0.08644615  1  0.110955  0.000255  0.104105  0.106027  0.000123  1.036125  0.0
H  H29  1  0.31591178  0.07843894  0.41359150  1  0.11134  0.000255  0.104112  0.106173  0.000123  1.035923  0.0
H  H30  1  0.31588255  0.42158531  0.91356827  1  0.11108  0.000255  0.104083  0.106073  0.000123  1.036099  0.0
H  H31  1  0.68413293  0.92161834  0.58646981  1  0.111105  0.000255  0.104022  0.105952  0.000123  1.03625  0.0
C  C32  1  0.36972427  0.53965930  0.11140770  1  0.5322  -0.001297  0.048698  0.103736  -0.002005  3.955197  -0.001
C  C33  1  0.63027706  0.03968036  0.38860202  1  0.533792  -0.001296  0.048867  0.103936  -0.002005  3.95553  -0.001
C  C34  1  0.63026796  0.46033826  0.88859266  1  0.533249  -0.001299  0.048746  0.103859  -0.002008  3.95537  -0.001
C  C35  1  0.36974420  0.96035317  0.61142446  1  0.533402  -0.001297  0.048696  0.103646  -0.002006  3.955293  -0.001
C  C36  1  0.49274037  0.56616175  0.13956006  1  -0.039746  0.002872  -0.086973  -0.191096  0.001404  3.965908  0.002
C  C37  1  0.50727159  0.06618198  0.36045934  1  -0.040093  0.002873  -0.086966  -0.19113  0.001405  3.965906  0.002
C  C38  1  0.50726592  0.43383365  0.86045748  1  -0.040428  0.002875  -0.086919  -0.191053  0.001405  3.965801  0.002
C  C39  1  0.49276181  0.93385300  0.63957006  1  -0.041037  0.002875  -0.087025  -0.191145  0.001405  3.965936  0.002
C  C40  1  0.52626092  0.66389891  0.15288579  1  -0.013649  -0.001201  0.013374  0.118198  -0.001392  3.995757  -0.001
C  C41  1  0.47375413  0.16392823  0.34713101  1  -0.014088  -0.001201  0.013483  0.118168  -0.001393  3.9959  -0.001
C  C42  1  0.47374537  0.33609289  0.84713176  1  -0.013797  -0.001203  0.013407  0.118167  -0.001395  3.995794  -0.001
C  C43  1  0.52627084  0.83611034  0.65288966  1  -0.013607  -0.001201  0.013307  0.118272  -0.001393  3.996107  -0.001
C  C44  1  0.43074477  0.73038969  0.13773677  1  0.004545  0.003577  -0.084492  -0.187237  0.00178  3.952363  0.003
C  C45  1  0.56926924  0.23040739  0.36227718  1  0.004718  0.003578  -0.084601  -0.187448  0.00178  3.952907  0.003
C  C46  1  0.56925869  0.26960571  0.86227333  1  0.004485  0.003581  -0.084464  -0.187281  0.001781  3.952721  0.003
C  C47  1  0.43076319  0.76962255  0.63774331  1  0.003747  0.003579  -0.084419  -0.187259  0.00178  3.952617  0.003
C  C48  1  0.30909396  0.69766899  0.10872169  1  0.437749  0.000957  0.057521  0.10036  0.000173  3.944817  0.001
C  C49  1  0.69091683  0.19768753  0.39128806  1  0.437766  0.000954  0.057716  0.100771  0.000171  3.945083  0.001
C  C50  1  0.69090200  0.30233073  0.89127858  1  0.437857  0.000955  0.05762  0.100515  0.000171  3.945155  0.001
C  C51  1  0.30911094  0.80234385  0.60873290  1  0.437857  0.000957  0.057635  0.100582  0.000172  3.944578  0.001
C  C52  1  0.91141608  0.73279888  0.23903413  1  -0.051976  -0.002672  -0.065287  -0.09426  -0.003395  3.892957  -0.002
C  C53  1  0.08858106  0.23280040  0.26095164  1  -0.052923  -0.00267  -0.065351  -0.09424  -0.003395  3.892859  -0.002
C  C54  1  0.08858918  0.26718429  0.76095805  1  -0.008798  -0.002706  -0.065347  -0.094245  -0.003396  3.893231  -0.002
C  C55  1  0.91141765  0.76718637  0.73903247  1  -0.008935  -0.002705  -0.065262  -0.094238  -0.003396  3.892802  -0.002
C  C56  1  0.84192832  0.78847811  0.27824395  1  0.052145  0.010591  -0.010485  -0.013663  0.005619  3.975641  0.008
C  C57  1  0.15806487  0.28847978  0.22174501  1  0.052298  0.010592  -0.010536  -0.013896  0.005621  3.97573  0.008
C  C58  1  0.15807978  0.21150290  0.72175781  1  0.052735  0.010591  -0.010435  -0.013832  0.005621  3.975737  0.008
C  C59  1  0.84192169  0.71151059  0.77823474  1  0.052901  0.01059  -0.010377  -0.01373  0.00562  3.975589  0.008
C  C60  1  0.71484807  0.76958763  0.24736783  1  -0.039151  -0.00453  -0.073663  -0.128369  -0.005136  3.910759  -0.003
C  C61  1  0.28515329  0.26959953  0.25262610  1  -0.03907  -0.004532  -0.073548  -0.129315  -0.005141  3.910083  -0.003
C  C62  1  0.28516752  0.23039841  0.75264162  1  -0.0391  -0.004533  -0.073623  -0.128315  -0.00514  3.910799  -0.003
C  C63  1  0.71484168  0.73040594  0.74735882  1  -0.039111  -0.004529  -0.073679  -0.128124  -0.005136  3.91048  -0.003
C  C64  1  0.65686204  0.69188435  0.18058061  1  -0.026489  0.002431  -0.010763  0.051962  0.001067  4.028886  0.002
C  C65  1  0.34314400  0.19190200  0.31942740  1  -0.026264  0.002431  -0.010724  0.052102  0.001067  4.02902  0.002
C  C66  1  0.34314140  0.30810458  0.81942305  1  -0.025999  0.002431  -0.010792  0.051957  0.001067  4.028876  0.002
C  C67  1  0.65687161  0.80811931  0.68058706  1  -0.026344  0.002431  -0.010743  0.051998  0.001067  4.028787  0.002
C  C68  1  0.72703154  0.63754634  0.14093805  1  -0.077185  -0.003963  -0.078439  -0.132636  -0.004443  3.923121  -0.002
C  C69  1  0.27297757  0.13757463  0.35907646  1  -0.077681  -0.003963  -0.07863  -0.13312  -0.004443  3.923234  -0.002
C  C70  1  0.27296163  0.36243899  0.85906479  1  -0.077693  -0.003965  -0.078487  -0.13281  -0.004446  3.922768  -0.002
C  C71  1  0.72705396  0.86245675  0.64095299  1  -0.077773  -0.003962  -0.078482  -0.132801  -0.004442  3.923179  -0.002
C  C72  1  0.85262889  0.65838459  0.16788786  1  -0.011217  0.011346  -0.014231  -0.019411  0.005939  3.980673  0.009
C  C73  1  0.14737015  0.15839261  0.33210745  1  -0.011258  0.011347  -0.014193  -0.019321  0.005939  3.980587  0.009
C  C74  1  0.14735302  0.34160434  0.83209737  1  -0.024918  0.01136  -0.01418  -0.019279  0.005939  3.980582  0.009
C  C75  1  0.85264542  0.84161503  0.66789485  1  -0.025156  0.011362  -0.014143  -0.019178  0.005939  3.980472  0.009
C  C76  1  0.90316976  0.86642824  0.35668668  1  1.547793  -0.011086  0.216755  0.573829  -0.014971  4.161779  -0.01
C  C77  1  0.09680200  0.36643127  0.14330006  1  1.549169  -0.011092  0.216811  0.574075  -0.01497  4.16149  -0.01
C  C78  1  0.09683557  0.13354486  0.64332410  1  1.547402  -0.011093  0.216848  0.574223  -0.014976  4.160935  -0.01
C  C79  1  0.90314346  0.63355262  0.85667139  1  1.546976  -0.011092  0.216829  0.574205  -0.014971  4.160939  -0.01
C  C80  1  0.91800746  0.60003438  0.11683578  1  1.552876  -0.010132  0.213953  0.569896  -0.013391  4.162102  -0.009
C  C81  1  0.08196932  0.10004235  0.38314335  1  1.552967  -0.010143  0.213946  0.56987  -0.013402  4.161942  -0.009
C  C82  1  0.08195199  0.39994879  0.88313354  1  1.552909  -0.010139  0.213931  0.569807  -0.013396  4.161879  -0.009
C  C83  1  0.91802379  0.89995521  0.61684233  1  1.553254  -0.010136  0.214047  0.569887  -0.01339  4.162072  -0.009
N  N84  1  0.27836949  0.60391376  0.09528610  1  -1.222509  0.049428  -0.313214  -0.201116  0.027822  3.464903  0.039
N  N85  1  0.72162423  0.10392967  0.40471769  1  -1.222971  0.049445  -0.313389  -0.201406  0.027833  3.465658  0.039
N  N86  1  0.72161991  0.39608092  0.90470682  1  -1.222669  0.049476  -0.31335  -0.201183  0.027849  3.465529  0.039
N  N87  1  0.27838673  0.89610099  0.59530081  1  -1.222716  0.049441  -0.313261  -0.201141  0.027832  3.464974  0.039
O  O88  1  0.02794581  0.62320400  0.12953355  1  -1.119652  0.091717  -0.30587  -0.506856  0.048077  2.286722  0.079
O  O89  1  0.97202749  0.12321027  0.37043519  1  -1.119734  0.091709  -0.305932  -0.506827  0.048068  2.286386  0.079
O  O90  1  0.97201177  0.37677054  0.87043225  1  -1.120016  0.091726  -0.305872  -0.506749  0.048073  2.286341  0.079
O  O91  1  0.02795527  0.87678945  0.62952893  1  -1.119592  0.091711  -0.305923  -0.506802  0.048073  2.286771  0.079
O  O92  1  0.85604441  0.52994311  0.05968102  1  -1.142251  0.079422  -0.303239  -0.537  0.040709  2.424301  0.074
O  O93  1  0.14393523  0.02995175  0.44030302  1  -1.142113  0.079443  -0.303262  -0.537124  0.040722  2.424331  0.074
O  O94  1  0.14390849  0.47003862  0.94028524  1  -1.141761  0.079426  -0.303233  -0.537067  0.040713  2.424406  0.074
O  O95  1  0.85605323  0.97004221  0.55968885  1  -1.142217  0.079442  -0.303288  -0.537129  0.040721  2.424187  0.074
O  O96  1  0.01603943  0.85372185  0.42370330  1  -1.127118  0.093339  -0.302566  -0.507319  0.048605  2.331346  0.082
O  O97  1  0.98393403  0.35370846  0.07628040  1  -1.127403  0.093332  -0.302502  -0.507305  0.048599  2.331248  0.082
O  O98  1  0.98396777  0.14626204  0.57630743  1  -1.126978  0.093331  -0.302509  -0.507391  0.048598  2.330994  0.082
O  O99  1  0.01600862  0.64626248  0.92368933  1  -1.126692  0.09334  -0.302524  -0.507413  0.048606  2.331076  0.082
O  O100  1  0.83794388  0.94047285  0.35374600  1  -1.133084  0.085359  -0.304024  -0.529321  0.044183  2.371134  0.077
O  O101  1  0.16201947  0.44047913  0.14623887  1  -1.134039  0.085368  -0.304103  -0.529557  0.044181  2.371683  0.077
O  O102  1  0.16205490  0.05949593  0.64626028  1  -1.133233  0.085379  -0.304186  -0.529522  0.04419  2.370887  0.077
O  O103  1  0.83792036  0.55950404  0.85372486  1  -1.132922  0.085361  -0.30419  -0.529538  0.044184  2.370792  0.077
