# generated using pymatgen
data_ZnH13C26N(O2F)3
_symmetry_space_group_name_H-M   'P 1'
_cell_length_a   13.55429768
_cell_length_b   18.25125421
_cell_length_c   19.63507320
_cell_angle_alpha   88.47888198
_cell_angle_beta   89.95204651
_cell_angle_gamma   114.95751166
_symmetry_Int_Tables_number   1
_chemical_formula_structural   ZnH13C26N(O2F)3
_chemical_formula_sum   'Zn2 H26 C52 N2 O12 F6'
_cell_volume   4401.86400862
_cell_formula_units_Z   2
loop_
 _symmetry_equiv_pos_site_id
 _symmetry_equiv_pos_as_xyz
  1  'x, y, z'
loop_
 _atom_site_type_symbol
 _atom_site_label
 _atom_site_symmetry_multiplicity
 _atom_site_fract_x
 _atom_site_fract_y
 _atom_site_fract_z
 _atom_site_occupancy
 _atom_site_pbe_bader_charge
 _atom_site_pbe_bader_spin_density
 _atom_site_pbe_cm5_charge
 _atom_site_pbe_ddec_charge
 _atom_site_pbe_ddec_spin_density
 _atom_site_pbe_ddec_sum_bond_order
 _atom_site_pbe_magmom
Zn  Zn0  1  0.47791204  0.41757074  0.50185244  1  1.296379  0  0.672996  0.828632  0  2.429546  0
Zn  Zn1  1  0.51906291  0.58163189  0.49687722  1  1.287737  0  0.667894  0.819105  0  2.415441  0
H  H2  1  0.85696447  0.67838369  0.57781340  1  0.106026  0  0.115689  0.146648  0  0.980891  0
H  H3  1  0.58141337  0.41416813  0.71188942  1  0.099422  0  0.103322  0.123569  0  1.017685  0
H  H4  1  0.39775241  0.39124336  0.94002227  1  0.083133  0  0.107129  0.11689  0  0.978786  0
H  H5  1  0.39620485  0.39280118  0.06664197  1  0.063126  0  0.103265  0.108722  0  0.99977  0
H  H6  1  0.56615150  0.63155326  0.15311931  1  0.03418  0  0.100289  0.103693  0  1.001816  0
H  H7  1  0.54785139  0.62799048  0.27954721  1  0.080547  0  0.102676  0.106434  0  1.001074  0
H  H8  1  0.48519846  0.37717884  0.28685302  1  0.060529  0  0.101026  0.102483  0  1.00781  0
H  H9  1  0.18595865  0.65029707  0.61615522  1  0.086227  0  0.103329  0.110275  0  0.99885  0
H  H10  1  0.50533633  0.37992869  0.16033835  1  0.070957  0  0.10044  0.100554  0  1.001394  0
H  H11  1  0.59801565  0.34172572  0.57813745  1  0.108126  0  0.127594  0.103133  0  0.976026  0
H  H12  1  0.61574116  0.21054683  0.58210142  1  0.083042  0  0.113896  0.126146  0  0.987997  0
H  H13  1  0.38892706  0.13441600  0.41574021  1  0.11191  0  0.114416  0.121521  0  0.988664  0
H  H14  1  0.38311761  0.26974569  0.41831886  1  0.118902  0  0.130177  0.103897  0  0.968258  0
H  H15  1  0.50918216  0.07336522  0.39059027  1  0.096718  0  0.117376  0.13813  0  0.974654  0
H  H16  1  0.50386107  0.93286940  0.61143417  1  0.081767  0  0.120317  0.148727  0  0.96606  0
H  H17  1  0.64351669  0.73764873  0.56544701  1  0.143916  0  0.140927  0.138645  0  0.952468  0
H  H18  1  0.37974829  0.65533490  0.43574174  1  0.13891  0  0.134026  0.117143  0  0.96746  0
H  H19  1  0.36750850  0.78886163  0.43556403  1  0.107641  0  0.123253  0.135631  0  0.970599  0
H  H20  1  0.13850356  0.31183950  0.46124179  1  0.11274  0  0.105215  0.109204  0  0.994069  0
H  H21  1  0.86118193  0.36765683  0.47065764  1  0.093827  0  0.095037  0.101921  0  1.050097  0
H  H22  1  0.93925270  0.27293973  0.44424955  1  0.05459  0  0.100638  0.097126  0  0.992092  0
H  H23  1  0.26640422  0.56041431  0.57667067  1  0.106024  0  0.107943  0.123713  0  1.003979  0
H  H24  1  0.46875330  0.59349124  0.90243512  1  0.586099  0  0.323918  0.352244  0  0.902765  0
H  H25  1  0.63108723  0.37688351  0.81429890  1  0.60431  0  0.340052  0.368615  0  0.867326  0
H  H26  1  0.69807575  0.61768186  0.88031608  1  0.585282  0  0.326975  0.35622  0  0.892599  0
H  H27  1  0.51533384  0.88421926  0.38262112  1  0.602518  0  0.322916  0.350464  0  0.918366  0
C  C28  1  0.50251169  0.50039064  0.36683233  1  1.577065  0  0.214649  0.597871  0  4.161342  0
C  C29  1  0.01071552  0.46097796  0.50859333  1  0.041531  0  -0.001729  0.051736  0  3.928248  0
C  C30  1  0.12229377  0.47988897  0.52332017  1  -0.059774  0  0.000883  0.062986  0  3.939056  0
C  C31  1  0.96772880  0.51944033  0.52524878  1  0.008962  0  -0.011692  -0.070368  0  3.968249  0
C  C32  1  0.03282829  0.58774852  0.56449609  1  0.008921  0  -0.015449  -0.010597  0  4.050275  0
C  C33  1  0.13980704  0.59967693  0.58404946  1  -0.105  0  -0.096906  -0.127063  0  4.029377  0
C  C34  1  0.18388055  0.54941510  0.56244914  1  0.062605  0  -0.08633  -0.115792  0  3.98631  0
C  C35  1  0.86518769  0.51462939  0.50457934  1  0.44259  0  0.104304  0.218856  0  3.990817  0
C  C36  1  0.88822633  0.63504451  0.56303685  1  0.050393  0  -0.099603  -0.21418  0  4.027798  0
C  C37  1  0.16760654  0.42610662  0.50254550  1  -0.044259  0  -0.012008  -0.069459  0  3.919985  0
C  C38  1  0.48798436  0.55422836  0.74775685  1  0.464518  0  0.083253  0.148287  0  4.02435  0
C  C39  1  0.28760091  0.44884382  0.50402093  1  1.60067  0  0.215736  0.599058  0  4.165723  0
C  C40  1  0.49725542  0.55477280  0.81899293  1  0.511487  0  0.070165  0.159151  0  4.141699  0
C  C41  1  0.53915219  0.50499497  0.85254964  1  0.024135  0  -0.04334  -0.175798  0  4.064496  0
C  C42  1  0.57095618  0.45504831  0.81308199  1  0.417504  0  0.069808  0.270907  0  4.133449  0
C  C43  1  0.55936711  0.45398725  0.74269181  1  0.003309  0  -0.122433  -0.268942  0  4.05034  0
C  C44  1  0.51770547  0.50350288  0.70903835  1  0.066105  0  -0.02476  -0.09562  0  4.016099  0
C  C45  1  0.46089426  0.44029621  0.96668404  1  -0.002807  0  -0.096373  -0.119873  0  4.039542  0
C  C46  1  0.46052189  0.44090950  0.03735784  1  -0.060643  0  -0.102533  -0.145031  0  4.043461  0
C  C47  1  0.53994389  0.50480716  0.07272843  1  0.029872  0  -0.015429  -0.027643  0  4.052487  0
C  C48  1  0.62027770  0.56640230  0.03384070  1  0.486041  0  0.087914  0.135495  0  4.015717  0
C  C49  1  0.62307373  0.56661780  0.96239261  1  0.540713  0  0.069795  0.143466  0  4.124533  0
C  C50  1  0.50687131  0.49905415  0.63289217  1  1.595414  0  0.214592  0.613157  0  4.157221  0
C  C51  1  0.54107813  0.50312113  0.92819224  1  -0.004819  0  -0.034307  -0.037963  0  4.084078  0
C  C52  1  0.54883370  0.57570894  0.18222100  1  -0.011144  0  -0.091639  -0.135219  0  3.988055  0
C  C53  1  0.53813151  0.57387544  0.25278795  1  -0.013767  0  -0.084861  -0.085115  0  3.986995  0
C  C54  1  0.51407407  0.50217852  0.29083200  1  0.007981  0  -0.019118  -0.03335  0  3.964876  0
C  C55  1  0.50210542  0.43238303  0.25692581  1  -0.039368  0  -0.085714  -0.087216  0  3.996787  0
C  C56  1  0.51290567  0.43410535  0.18637319  1  -0.024931  0  -0.093242  -0.138556  0  3.988916  0
C  C57  1  0.53554837  0.50560273  0.14789282  1  -0.030281  0  -0.00539  0.090261  0  4.004423  0
C  C58  1  0.55323020  0.29347825  0.54348828  1  0.495094  0  0.061473  0.112604  0  3.915142  0
C  C59  1  0.56236612  0.22050647  0.54530950  1  0.052723  0  -0.076954  -0.175558  0  3.936903  0
C  C60  1  0.50234346  0.16048540  0.49949225  1  -0.052573  0  0.017207  0.132253  0  3.986959  0
C  C61  1  0.70951384  0.55724687  0.50668686  1  1.602578  0  0.212464  0.612515  0  4.166132  0
C  C62  1  0.43758075  0.17878583  0.45230338  1  -0.065944  0  -0.078817  -0.179665  0  3.944772  0
C  C63  1  0.43266016  0.25320006  0.45383164  1  0.524628  0  0.060835  0.104814  0  3.932518  0
C  C64  1  0.50625394  0.04259326  0.43939763  1  0.019928  0  -0.093307  -0.221162  0  3.944194  0
C  C65  1  0.50654141  0.96620390  0.43910901  1  0.483281  0  0.082366  0.262409  0  4.077287  0
C  C66  1  0.50553051  0.92502432  0.50131600  1  0.030658  0  -0.021489  -0.033952  0  4.030267  0
C  C67  1  0.50574528  0.96302555  0.56252008  1  0.05657  0  -0.092339  -0.225408  0  4.004795  0
C  C68  1  0.50584326  0.03880105  0.56131525  1  0.426685  0  0.092739  0.230865  0  4.059993  0
C  C69  1  0.50572303  0.08074127  0.50030564  1  0.035331  0  -0.010348  -0.026169  0  4.031551  0
C  C70  1  0.58119964  0.82626575  0.53932505  1  0.458036  0  0.112103  0.203217  0  4.031375  0
C  C71  1  0.58385532  0.75118961  0.53699584  1  0.578904  0  0.059924  -0.01163  0  3.903247  0
C  C72  1  0.98938605  0.64278660  0.58215735  1  0.397473  0  0.087294  0.221453  0  4.076312  0
C  C73  1  0.43732199  0.70634311  0.46351998  1  0.492157  0  0.058437  0.093188  0  3.922061  0
C  C74  1  0.43172554  0.78067091  0.46362731  1  -0.05679  0  -0.079835  -0.185835  0  3.983339  0
C  C75  1  0.50588805  0.84435140  0.50176401  1  0.065356  0  0.00353  0.007417  0  4.027381  0
C  C76  1  0.82327388  0.56917069  0.52325714  1  0.082913  0  -0.027204  -0.124258  0  4.001024  0
C  C77  1  0.10173016  0.35222017  0.47523703  1  -0.082377  0  -0.083942  -0.091182  0  3.999562  0
C  C78  1  0.99094867  0.33130522  0.46521909  1  -0.001023  0  -0.096206  -0.085698  0  4.069136  0
C  C79  1  0.94676261  0.38501323  0.48022946  1  -0.062145  0  -0.095717  -0.138647  0  4.000924  0
N  N80  1  0.48830248  0.30912327  0.49928929  1  -1.255784  0  -0.318176  -0.19696  0  3.520604  0
N  N81  1  0.51305674  0.69266165  0.49893792  1  -1.232605  0  -0.309761  -0.160586  0  3.52467  0
O  O82  1  0.46668017  0.43153629  0.39761074  1  -1.178066  0  -0.321253  -0.557562  0  2.317665  0
O  O83  1  0.52984300  0.56832658  0.39505945  1  -1.164835  0  -0.322438  -0.550656  0  2.321014  0
O  O84  1  0.31787286  0.39229650  0.51503762  1  -1.154057  0  -0.320589  -0.540753  0  2.291878  0
O  O85  1  0.35027172  0.52268308  0.49087749  1  -1.181511  0  -0.31308  -0.561781  0  2.372712  0
O  O86  1  0.50308516  0.43492806  0.60660894  1  -1.164678  0  -0.31738  -0.545715  0  2.294589  0
O  O87  1  0.50396033  0.55951860  0.60085867  1  -1.158744  0  -0.318268  -0.551897  0  2.344081  0
O  O88  1  0.64293964  0.48598651  0.49255910  1  -1.171792  0  -0.319544  -0.566415  0  2.406229  0
O  O89  1  0.68636030  0.61786342  0.51057319  1  -1.155223  0  -0.322504  -0.541807  0  2.241403  0
O  O90  1  0.46232812  0.60321545  0.85365694  1  -1.092071  0  -0.351223  -0.411367  0  2.280027  0
O  O91  1  0.61215378  0.40777944  0.84743330  1  -1.121661  0  -0.357468  -0.443026  0  2.245461  0
O  O92  1  0.70593185  0.62860248  0.92906600  1  -1.099084  0  -0.351451  -0.412034  0  2.271957  0
O  O93  1  0.51092924  0.93607922  0.37673563  1  -1.119838  0  -0.355383  -0.434566  0  2.249937  0
F  F94  1  0.70165689  0.62840516  0.06494910  1  -0.626383  0  -0.101155  -0.124885  0  1.3496  0
F  F95  1  0.50228310  0.07195747  0.62230414  1  -0.629065  0  -0.104038  -0.148782  0  1.330518  0
F  F96  1  0.65552231  0.88330573  0.57810610  1  -0.625474  0  -0.088957  -0.126848  0  1.33873  0
F  F97  1  0.05261581  0.70734636  0.62026039  1  -0.63805  0  -0.117402  -0.160034  0  1.30765  0
F  F98  1  0.80569582  0.45500204  0.46178190  1  -0.637277  0  -0.086415  -0.118404  0  1.430608  0
F  F99  1  0.44462257  0.60245908  0.71927379  1  -0.622877  0  -0.106704  -0.120427  0  1.362047  0
