# generated using pymatgen
data_AgH8C12SN2O2F3
_symmetry_space_group_name_H-M   'P 1'
_cell_length_a   9.29188527
_cell_length_b   9.29188433
_cell_length_c   17.42506716
_cell_angle_alpha   82.85452977
_cell_angle_beta   82.85455567
_cell_angle_gamma   63.84193931
_symmetry_Int_Tables_number   1
_chemical_formula_structural   AgH8C12SN2O2F3
_chemical_formula_sum   'Ag4 H32 C48 S4 N8 O8 F12'
_cell_volume   1335.79991137
_cell_formula_units_Z   4
loop_
 _symmetry_equiv_pos_site_id
 _symmetry_equiv_pos_as_xyz
  1  'x, y, z'
loop_
 _atom_site_type_symbol
 _atom_site_label
 _atom_site_symmetry_multiplicity
 _atom_site_fract_x
 _atom_site_fract_y
 _atom_site_fract_z
 _atom_site_occupancy
 _atom_site_hle17_bader_spin_density
 _atom_site_hle17_ddec_charge
 _atom_site_hle17_ddec_spin_density
 _atom_site_hle17_ddec_sum_bond_order
 _atom_site_hle17_magmom
 _atom_site_hse06_10hf_bader_charge
 _atom_site_hse06_10hf_bader_spin_density
 _atom_site_hse06_10hf_ddec_charge
 _atom_site_hse06_10hf_ddec_spin_density
 _atom_site_hse06_10hf_ddec_sum_bond_order
 _atom_site_hse06_10hf_magmom
 _atom_site_hse06_bader_spin_density
 _atom_site_hse06_ddec_charge
 _atom_site_hse06_ddec_spin_density
 _atom_site_hse06_ddec_sum_bond_order
 _atom_site_hse06_magmom
 _atom_site_pbe_bader_spin_density
 _atom_site_pbe_cm5_charge
 _atom_site_pbe_ddec_charge
 _atom_site_pbe_ddec_spin_density
 _atom_site_pbe_ddec_sum_bond_order
 _atom_site_pbe_magmom
Ag  Ag0  1  0.59229580  0.33226315  0.58226759  1  0  0.53229  0  1.450037  0  0.625551  0  0.39173  0  1.89244  0  0  0.419845  0  1.848149  0  0  0.468237  0.373058  0  1.922804  0
Ag  Ag1  1  0.33226166  0.59229539  0.08226829  1  0  0.532305  0  1.450028  0  0.625543  0  0.391735  0  1.89244  0  0  0.419851  0  1.848147  0  0  0.46825  0.373068  0  1.922805  0
Ag  Ag2  1  0.40770362  0.66773864  0.41773244  1  0  0.532314  0  1.450012  0  0.625543  0  0.391756  0  1.892403  0  0  0.419867  0  1.848114  0  0  0.468242  0.373086  0  1.922768  0
Ag  Ag3  1  0.66773719  0.40770519  0.91773185  1  0  0.532289  0  1.450026  0  0.625554  0  0.391723  0  1.892425  0  0  0.419836  0  1.848134  0  0  0.468241  0.373052  0  1.922787  0
H  H4  1  0.35387085  0.90146000  0.61373748  1  0  0.119801  0  0.957201  0  0.133072  0  0.128302  0  1.020108  0  0  0.131358  0  1.019079  0  0  0.10494  0.126112  0  1.020879  0
H  H5  1  0.90146075  0.35386698  0.11373663  1  0  0.119835  0  0.957181  0  0.13307  0  0.128328  0  1.020095  0  0  0.131383  0  1.019066  0  0  0.104942  0.126126  0  1.020879  0
H  H6  1  0.64613068  0.09853936  0.38626428  1  0  0.119851  0  0.957185  0  0.133085  0  0.128336  0  1.020101  0  0  0.131391  0  1.019072  0  0  0.104952  0.126135  0  1.020883  0
H  H7  1  0.09853966  0.64612999  0.88626421  1  0  0.119844  0  0.957169  0  0.133075  0  0.128334  0  1.020081  0  0  0.131389  0  1.019052  0  0  0.104951  0.126134  0  1.020862  0
H  H8  1  0.14024970  0.05327508  0.51978025  1  0  0.11411  0  0.936559  0  0.159686  0  0.124077  0  0.997819  0  0  0.12723  0  0.994822  0  0  0.112188  0.121683  0  1.000097  0
H  H9  1  0.05327636  0.14024717  0.01977978  1  0  0.114192  0  0.936478  0  0.159663  0  0.124117  0  0.997776  0  0  0.127289  0  0.994755  0  0  0.112209  0.121724  0  1.000051  0
H  H10  1  0.85975292  0.94672430  0.48022029  1  0  0.114192  0  0.936483  0  0.159662  0  0.124117  0  0.997791  0  0  0.127289  0  0.994769  0  0  0.112204  0.121726  0  1.000066  0
H  H11  1  0.94672621  0.85974980  0.98022092  1  0  0.114149  0  0.936504  0  0.159778  0  0.124113  0  0.997769  0  0  0.127271  0  0.994764  0  0  0.112212  0.121719  0  1.000043  0
H  H12  1  0.10834927  0.32480502  0.46268763  1  0  0.115881  0  0.955476  0  0.138529  0  0.124039  0  1.015669  0  0  0.127418  0  1.014428  0  0  0.105282  0.121579  0  1.016747  0
H  H13  1  0.32480700  0.10834744  0.96268761  1  0  0.115879  0  0.955503  0  0.138506  0  0.124039  0  1.0157  0  0  0.127418  0  1.014459  0  0  0.1053  0.12158  0  1.016777  0
H  H14  1  0.89165170  0.67519314  0.53731367  1  0  0.115943  0  0.955394  0  0.13864  0  0.124058  0  1.015642  0  0  0.127438  0  1.014401  0  0  0.105312  0.121604  0  1.016715  0
H  H15  1  0.67519454  0.89165193  0.03731358  1  0  0.115953  0  0.955377  0  0.138499  0  0.124059  0  1.015639  0  0  0.127439  0  1.014398  0  0  0.105308  0.121602  0  1.016716  0
H  H16  1  0.29723436  0.43062644  0.49575123  1  0  0.082568  0  0.954688  0  0.111558  0  0.089183  0  1.024797  0  0  0.09191  0  1.021965  0  0  0.112954  0.087051  0  1.02701  0
H  H17  1  0.43062646  0.29723355  0.99575126  1  0  0.082584  0  0.954678  0  0.111566  0  0.089207  0  1.024771  0  0  0.091933  0  1.021939  0  0  0.112977  0.087076  0  1.026984  0
H  H18  1  0.70276609  0.56937293  0.50424946  1  0  0.082586  0  0.954719  0  0.11156  0  0.089229  0  1.024795  0  0  0.091957  0  1.021951  0  0  0.113003  0.0871  0  1.027008  0
H  H19  1  0.56937240  0.70276703  0.00424888  1  0  0.08267  0  0.954752  0  0.11155  0  0.089327  0  1.024794  0  0  0.092052  0  1.021954  0  0  0.113058  0.087195  0  1.027007  0
H  H20  1  0.38717180  0.44040924  0.81947380  1  0  0.089167  0  0.944982  0  0.142312  0  0.095139  0  1.014165  0  0  0.097941  0  1.011025  0  0  0.110751  0.093029  0  1.016534  0
H  H21  1  0.44041051  0.38717263  0.31947314  1  0  0.08917  0  0.944976  0  0.142387  0  0.09513  0  1.014174  0  0  0.097932  0  1.011035  0  0  0.110746  0.09302  0  1.016542  0
H  H22  1  0.61282969  0.55958772  0.18052697  1  0  0.089125  0  0.945034  0  0.142354  0  0.095101  0  1.014208  0  0  0.097903  0  1.01107  0  0  0.110726  0.092996  0  1.016577  0
H  H23  1  0.55958782  0.61282916  0.68052696  1  0  0.089196  0  0.944985  0  0.142352  0  0.095174  0  1.014147  0  0  0.097976  0  1.011009  0  0  0.110754  0.093065  0  1.016518  0
H  H24  1  0.35543953  0.29430973  0.71736113  1  0  0.111055  0  0.964726  0  0.124902  0  0.117783  0  1.030869  0  0  0.121132  0  1.029465  0  0  0.100918  0.115383  0  1.032083  0
H  H25  1  0.29430926  0.35543691  0.21736193  1  0  0.111047  0  0.964683  0  0.124889  0  0.117773  0  1.030849  0  0  0.121132  0  1.029416  0  0  0.100904  0.115374  0  1.032064  0
H  H26  1  0.64456253  0.70568844  0.28263953  1  0  0.111058  0  0.964676  0  0.124879  0  0.117791  0  1.030831  0  0  0.121146  0  1.029409  0  0  0.100922  0.11539  0  1.032046  0
H  H27  1  0.70568846  0.64456126  0.78263958  1  0  0.111066  0  0.964717  0  0.124882  0  0.117805  0  1.030849  0  0  0.121154  0  1.029445  0  0  0.100924  0.115404  0  1.032064  0
H  H28  1  0.81954185  0.90763918  0.76896660  1  0  0.114487  0  0.949588  0  0.088456  0  0.123049  0  1.011315  0  0  0.126765  0  1.009582  0  0  0.100942  0.120588  0  1.012386  0
H  H29  1  0.90764124  0.81954187  0.26896479  1  0  0.114463  0  0.949608  0  0.088478  0  0.123027  0  1.011328  0  0  0.126742  0  1.009598  0  0  0.100937  0.120567  0  1.012399  0
H  H30  1  0.18045965  0.09235780  0.23103302  1  0  0.114486  0  0.949623  0  0.088446  0  0.123051  0  1.011346  0  0  0.126763  0  1.009613  0  0  0.100944  0.120591  0  1.012417  0
H  H31  1  0.09235819  0.18045992  0.73103293  1  0  0.114479  0  0.949627  0  0.088441  0  0.123042  0  1.011353  0  0  0.126755  0  1.009619  0  0  0.100939  0.120581  0  1.012425  0
H  H32  1  0.82633795  0.06871927  0.87089755  1  0  0.086521  0  0.945135  0  0.124231  0  0.095529  0  1.010187  0  0  0.098181  0  1.006766  0  0  0.114522  0.093639  0  1.01256  0
H  H33  1  0.06872164  0.82634125  0.37089426  1  0  0.086512  0  0.945143  0  0.124196  0  0.095496  0  1.01022  0  0  0.098149  0  1.0068  0  0  0.114531  0.093626  0  1.012576  0
H  H34  1  0.17366298  0.93127650  0.12910277  1  0  0.086515  0  0.945083  0  0.124215  0  0.095519  0  1.010137  0  0  0.098171  0  1.006719  0  0  0.114526  0.093647  0  1.012494  0
H  H35  1  0.93127676  0.17366295  0.62910281  1  0  0.086513  0  0.945122  0  0.124206  0  0.095519  0  1.010173  0  0  0.098171  0  1.006753  0  0  0.114524  0.093643  0  1.01253  0
C  C36  1  0.43500138  0.08813433  0.60285899  1  0  0.176507  0  3.780981  0  0.382333  0  0.180285  0  4.036809  0  0  0.188036  0  4.059216  0  0  0.112979  0.174965  0  4.021592  0
C  C37  1  0.08813391  0.43499846  0.10285920  1  0  0.176538  0  3.781038  0  0.381896  0  0.180326  0  4.036843  0  0  0.188073  0  4.059253  0  0  0.112995  0.175001  0  4.02163  0
C  C38  1  0.56500072  0.91186625  0.39714209  1  0  0.176513  0  3.781002  0  0.381759  0  0.180223  0  4.036926  0  0  0.187969  0  4.059336  0  0  0.112951  0.174901  0  4.021708  0
C  C39  1  0.91186547  0.56500092  0.89714098  1  0  0.176484  0  3.78106  0  0.381886  0  0.180251  0  4.036899  0  0  0.187997  0  4.059307  0  0  0.112982  0.174934  0  4.021678  0
C  C40  1  0.33636700  0.01932301  0.58651742  1  0  -0.146082  0  3.69773  0  -0.038168  0  -0.164562  0  3.943803  0  0  -0.171968  0  3.965914  0  0  -0.085574  -0.159655  0  3.928997  0
C  C41  1  0.01932277  0.33636461  0.08651702  1  0  -0.146206  0  3.697745  0  -0.037744  0  -0.164689  0  3.94381  0  0  -0.172094  0  3.965926  0  0  -0.085613  -0.159774  0  3.929013  0
C  C42  1  0.66363293  0.98067756  0.41348379  1  0  -0.146204  0  3.697756  0  -0.037731  0  -0.164646  0  3.943841  0  0  -0.172053  0  3.965959  0  0  -0.085587  -0.159731  0  3.929039  0
C  C43  1  0.98067712  0.66363356  0.91348321  1  0  -0.146205  0  3.697763  0  -0.037748  0  -0.164673  0  3.943862  0  0  -0.172078  0  3.965974  0  0  -0.085615  -0.159759  0  3.929059  0
C  C44  1  0.21856366  0.10337633  0.53461668  1  0  0.011481  0  3.692229  0  0.003508  0  -0.008662  0  3.945891  0  0  -0.004855  0  3.96341  0  0  -0.061757  -0.011082  0  3.934157  0
C  C45  1  0.10337755  0.21856091  0.03461622  1  0  0.011403  0  3.692269  0  0.003466  0  -0.008688  0  3.94591  0  0  -0.004895  0  3.963421  0  0  -0.061793  -0.011107  0  3.934171  0
C  C46  1  0.78143731  0.89662184  0.46538463  1  0  0.011447  0  3.692253  0  0.003489  0  -0.008654  0  3.945893  0  0  -0.004861  0  3.963407  0  0  -0.061764  -0.011073  0  3.934157  0
C  C47  1  0.89662342  0.78143726  0.96538451  1  0  0.011477  0  3.692191  0  0.003375  0  -0.008651  0  3.945843  0  0  -0.004848  0  3.963359  0  0  -0.061778  -0.011071  0  3.934105  0
C  C48  1  0.20080136  0.25492849  0.50240588  1  0  -0.113144  0  3.713979  0  -0.07782  0  -0.127214  0  3.963628  0  0  -0.133565  0  3.984535  0  0  -0.081927  -0.123155  0  3.949743  0
C  C49  1  0.25492693  0.20079967  0.00240613  1  0  -0.113103  0  3.713941  0  -0.077813  0  -0.127186  0  3.963581  0  0  -0.133538  0  3.984495  0  0  -0.081916  -0.123125  0  3.949694  0
C  C50  1  0.79919913  0.74507329  0.49759522  1  0  -0.113195  0  3.713911  0  -0.07756  0  -0.127246  0  3.963582  0  0  -0.1336  0  3.984497  0  0  -0.081942  -0.123188  0  3.949696  0
C  C51  1  0.74507353  0.79919971  0.99759456  1  0  -0.113114  0  3.713773  0  -0.077831  0  -0.127159  0  3.963463  0  0  -0.133512  0  3.984373  0  0  -0.081877  -0.1231  0  3.949579  0
C  C52  1  0.30432398  0.31461544  0.52124850  1  0  0.135182  0  3.673529  0  0.478026  0  0.108194  0  3.915297  0  0  0.114336  0  3.934597  0  0  0.045741  0.104174  0  3.902408  0
C  C53  1  0.31461555  0.30432341  0.02124914  1  0  0.135183  0  3.673327  0  0.478042  0  0.108194  0  3.915103  0  0  0.114331  0  3.93441  0  0  0.045745  0.104177  0  3.902214  0
C  C54  1  0.69567595  0.68538513  0.47875214  1  0  0.13515  0  3.673443  0  0.477619  0  0.108155  0  3.915187  0  0  0.114296  0  3.934492  0  0  0.045686  0.104138  0  3.902297  0
C  C55  1  0.68538439  0.69567717  0.97875150  1  0  0.135007  0  3.673503  0  0.478063  0  0.108006  0  3.915256  0  0  0.114147  0  3.934568  0  0  0.045621  0.103986  0  3.902367  0
C  C56  1  0.47927744  0.32125737  0.80654046  1  0  0.133791  0  3.695368  0  0.464867  0  0.101903  0  3.947683  0  0  0.109943  0  3.965943  0  0  0.040338  0.096599  0  3.935419  0
C  C57  1  0.32125875  0.47927713  0.30653926  1  0  0.133874  0  3.695435  0  0.464299  0  0.102006  0  3.947723  0  0  0.110043  0  3.965991  0  0  0.040392  0.096705  0  3.935457  0
C  C58  1  0.52072514  0.67873960  0.19346024  1  0  0.133881  0  3.695434  0  0.464699  0  0.102  0  3.947731  0  0  0.110039  0  3.965998  0  0  0.040377  0.096696  0  3.935471  0
C  C59  1  0.67873902  0.52072346  0.69346037  1  0  0.133849  0  3.695453  0  0.464238  0  0.101974  0  3.947758  0  0  0.110015  0  3.966021  0  0  0.040375  0.096665  0  3.935496  0
C  C60  1  0.46291839  0.23929649  0.74910296  1  0  -0.186627  0  3.769668  0  0.026176  0  -0.209085  0  4.034159  0  0  -0.216551  0  4.052238  0  0  -0.101913  -0.204388  0  4.022394  0
C  C61  1  0.23929579  0.46291812  0.24910360  1  0  -0.186709  0  3.769707  0  0.026176  0  -0.209148  0  4.034226  0  0  -0.216633  0  4.052293  0  0  -0.101931  -0.204455  0  4.022465  0
C  C62  1  0.53708259  0.76070168  0.25089720  1  0  -0.186708  0  3.76965  0  0.026244  0  -0.209174  0  4.034164  0  0  -0.216647  0  4.052239  0  0  -0.10193  -0.204476  0  4.022402  0
C  C63  1  0.76070089  0.53708246  0.75089782  1  0  -0.186779  0  3.769703  0  0.026246  0  -0.209246  0  4.034189  0  0  -0.216712  0  4.052268  0  0  -0.101963  -0.204547  0  4.022428  0
C  C64  1  0.58751155  0.08847422  0.73308319  1  0  0.08385  0  3.812701  0  -0.240489  0  0.0984  0  4.074458  0  0  0.106228  0  4.092298  0  0  0.003187  0.093032  0  4.062558  0
C  C65  1  0.08847418  0.58750998  0.23308270  1  0  0.08393  0  3.812493  0  -0.240509  0  0.098374  0  4.074398  0  0  0.106267  0  4.09215  0  0  0.003184  0.093007  0  4.062498  0
C  C66  1  0.41248891  0.91152516  0.26691692  1  0  0.083917  0  3.812603  0  -0.240488  0  0.098433  0  4.074414  0  0  0.106287  0  4.092219  0  0  0.003206  0.093072  0  4.062508  0
C  C67  1  0.91152463  0.41248820  0.76691702  1  0  0.083921  0  3.812608  0  -0.240483  0  0.09848  0  4.074371  0  0  0.106304  0  4.092216  0  0  0.003214  0.093112  0  4.062473  0
C  C68  1  0.71956432  0.02425463  0.77869003  1  0  -0.164411  0  3.717394  0  0.04597  0  -0.18267  0  3.967129  0  0  -0.191214  0  3.987603  0  0  -0.096834  -0.176999  0  3.953178  0
C  C69  1  0.02425684  0.71956336  0.27868876  1  0  -0.16437  0  3.717366  0  0.046265  0  -0.182589  0  3.967095  0  0  -0.191153  0  3.987552  0  0  -0.09682  -0.176922  0  3.953153  0
C  C70  1  0.28043718  0.97574234  0.22131017  1  0  -0.164407  0  3.717433  0  0.046379  0  -0.18266  0  3.967166  0  0  -0.191206  0  3.987628  0  0  -0.096824  -0.176994  0  3.953221  0
C  C71  1  0.97574310  0.28043723  0.72131016  1  0  -0.164384  0  3.717428  0  0.046375  0  -0.182653  0  3.967155  0  0  -0.19119  0  3.987626  0  0  -0.096814  -0.176987  0  3.953212  0
C  C72  1  0.72494002  0.11413469  0.83511487  1  0  0.13221  0  3.711206  0  0.490632  0  0.100809  0  3.958913  0  0  0.109109  0  3.977724  0  0  0.039631  0.095412  0  3.946049  0
C  C73  1  0.11413778  0.72494064  0.33511230  1  0  0.13224  0  3.711312  0  0.490243  0  0.100866  0  3.959022  0  0  0.109166  0  3.977836  0  0  0.039655  0.095455  0  3.946155  0
C  C74  1  0.27506360  0.88585987  0.16488649  1  0  0.132219  0  3.711276  0  0.490359  0  0.100834  0  3.958995  0  0  0.109136  0  3.977807  0  0  0.039634  0.095427  0  3.946126  0
C  C75  1  0.88586113  0.27506235  0.66488595  1  0  0.132238  0  3.711184  0  0.490184  0  0.100853  0  3.958901  0  0  0.109156  0  3.977712  0  0  0.039644  0.095444  0  3.946031  0
C  C76  1  0.77120974  0.29917042  0.42704339  1  0  0.470884  0  4.086053  0  1.709408  0  0.423954  0  4.382343  0  0  0.453147  0  4.377814  0  0  0.173266  0.404435  0  4.384414  0
C  C77  1  0.29917127  0.77120670  0.92704229  1  0  0.470808  0  4.086269  0  1.709462  0  0.423837  0  4.382621  0  0  0.453029  0  4.37809  0  0  0.173217  0.404318  0  4.384685  0
C  C78  1  0.22879344  0.70083016  0.57295705  1  0  0.470853  0  4.086264  0  1.70995  0  0.423915  0  4.382552  0  0  0.45311  0  4.378023  0  0  0.173274  0.404401  0  4.384613  0
C  C79  1  0.70083024  0.22879029  0.07295619  1  0  0.470863  0  4.086129  0  1.709903  0  0.423888  0  4.382475  0  0  0.45309  0  4.377931  0  0  0.173254  0.404364  0  4.384549  0
C  C80  1  0.86911766  0.29081659  0.34690004  1  0  0.669574  0  3.625264  0  1.695231  0  0.600685  0  3.967128  0  0  0.628595  0  3.938702  0  0  0.28938  0.581023  0  3.986848  0
C  C81  1  0.29081757  0.86911954  0.84689975  1  0  0.669504  0  3.625399  0  1.695404  0  0.600634  0  3.967242  0  0  0.62855  0  3.938803  0  0  0.289362  0.58097  0  3.986962  0
C  C82  1  0.13087960  0.70918520  0.65309897  1  0  0.669515  0  3.625434  0  1.6951  0  0.600656  0  3.967252  0  0  0.628565  0  3.93883  0  0  0.289409  0.580987  0  3.986985  0
C  C83  1  0.70918238  0.13088105  0.15309802  1  0  0.669478  0  3.625483  0  1.694879  0  0.60064  0  3.967295  0  0  0.628542  0  3.938887  0  0  0.289384  0.580983  0  3.987007  0
S  S84  1  0.59587381  0.96817490  0.66119014  1  0  0.007285  0  2.45632  0  0.165599  0  -0.001964  0  2.787698  0  0  -0.007907  0  2.789139  0  0  0.05484  0.002138  0  2.787386  0
S  S85  1  0.96817540  0.59586891  0.16119050  1  0  0.007238  0  2.456281  0  0.165617  0  -0.001969  0  2.787678  0  0  -0.007936  0  2.7891  0  0  0.054825  0.002146  0  2.787361  0
S  S86  1  0.40412825  0.03182328  0.33880995  1  0  0.007253  0  2.456278  0  0.165628  0  -0.001953  0  2.787684  0  0  -0.007907  0  2.789119  0  0  0.054826  0.002158  0  2.787365  0
S  S87  1  0.03182341  0.40412926  0.83880980  1  0  0.007284  0  2.456311  0  0.165637  0  -0.001958  0  2.787683  0  0  -0.007899  0  2.789128  0  0  0.054824  0.002146  0  2.787366  0
N  N88  1  0.42147080  0.23243215  0.56986013  1  0  -0.333836  0  3.326535  0  -1.214894  0  -0.252615  0  3.592726  0  0  -0.271421  0  3.609915  0  0  -0.340053  -0.239918  0  3.581  0
N  N89  1  0.23243094  0.42146965  0.06986030  1  0  -0.333841  0  3.326552  0  -1.214877  0  -0.25262  0  3.592745  0  0  -0.271421  0  3.609929  0  0  -0.340069  -0.239923  0  3.581021  0
N  N90  1  0.57853022  0.76756842  0.43014044  1  0  -0.333807  0  3.326525  0  -1.214749  0  -0.252563  0  3.592739  0  0  -0.271362  0  3.609921  0  0  -0.340036  -0.239866  0  3.581014  0
N  N91  1  0.76756791  0.57853093  0.93013984  1  0  -0.333814  0  3.326612  0  -1.214874  0  -0.252593  0  3.592824  0  0  -0.271391  0  3.610005  0  0  -0.340089  -0.239895  0  3.581096  0
N  N92  1  0.60880353  0.26214068  0.84832283  1  0  -0.306564  0  3.316904  0  -1.243085  0  -0.220695  0  3.590028  0  0  -0.240035  0  3.606522  0  0  -0.350543  -0.207668  0  3.578687  0
N  N93  1  0.26214168  0.60880521  0.34832151  1  0  -0.306648  0  3.317052  0  -1.242787  0  -0.220796  0  3.590179  0  0  -0.240136  0  3.606676  0  0  -0.350576  -0.207771  0  3.578843  0
N  N94  1  0.39119744  0.73785749  0.15167790  1  0  -0.306595  0  3.317066  0  -1.243112  0  -0.220742  0  3.590207  0  0  -0.240088  0  3.606707  0  0  -0.350559  -0.207716  0  3.578875  0
N  N95  1  0.73785614  0.39119777  0.65167797  1  0  -0.306608  0  3.317009  0  -1.242835  0  -0.220761  0  3.590157  0  0  -0.240108  0  3.606657  0  0  -0.350583  -0.207731  0  3.578817  0
O  O96  1  0.62014194  0.36148944  0.42580125  1  0  -0.595484  0  2.062371  0  -1.170782  0  -0.55142  0  2.329765  0  0  -0.575043  0  2.317559  0  0  -0.333047  -0.534755  0  2.337555  0
O  O97  1  0.36149101  0.62014226  0.92579934  1  0  -0.595412  0  2.062421  0  -1.170804  0  -0.551349  0  2.329862  0  0  -0.574973  0  2.317657  0  0  -0.333004  -0.534684  0  2.337646  0
O  O98  1  0.37985960  0.63850994  0.57419937  1  0  -0.595456  0  2.062448  0  -1.171006  0  -0.551394  0  2.329852  0  0  -0.575017  0  2.317646  0  0  -0.333045  -0.534731  0  2.33764  0
O  O99  1  0.63850951  0.37985954  0.07419774  1  0  -0.595473  0  2.062334  0  -1.170983  0  -0.551396  0  2.329759  0  0  -0.575022  0  2.317545  0  0  -0.333047  -0.534732  0  2.337553  0
O  O100  1  0.85631226  0.23900228  0.48358484  1  0  -0.566343  0  1.984767  0  -1.194466  0  -0.531685  0  2.225928  0  0  -0.554939  0  2.217563  0  0  -0.322751  -0.514948  0  2.230594  0
O  O101  1  0.23899924  0.85630827  0.98358519  1  0  -0.566303  0  1.984859  0  -1.194403  0  -0.531622  0  2.226039  0  0  -0.554878  0  2.217674  0  0  -0.322719  -0.514887  0  2.230698  0
O  O102  1  0.14369050  0.76100431  0.51641466  1  0  -0.566318  0  1.98487  0  -1.19444  0  -0.531647  0  2.226022  0  0  -0.554907  0  2.217665  0  0  -0.322729  -0.514912  0  2.230685  0
O  O103  1  0.76100066  0.14368990  0.01641446  1  0  -0.566309  0  1.98483  0  -1.19445  0  -0.531629  0  2.225999  0  0  -0.554887  0  2.217635  0  0  -0.322726  -0.514892  0  2.230662  0
F  F104  1  0.77755958  0.37620911  0.28730060  1  0  -0.252442  0  1.210746  0  -0.645649  0  -0.215625  0  1.388626  0  0  -0.224603  0  1.371904  0  0  -0.102945  -0.208712  0  1.399985  0
F  F105  1  0.37620887  0.77756567  0.78730014  1  0  -0.252396  0  1.210785  0  -0.645829  0  -0.215592  0  1.388663  0  0  -0.224571  0  1.371939  0  0  -0.102956  -0.208679  0  1.40002  0
F  F106  1  0.22243546  0.62379027  0.71269871  1  0  -0.252371  0  1.210816  0  -0.645636  0  -0.215577  0  1.388695  0  0  -0.224551  0  1.371975  0  0  -0.102946  -0.208663  0  1.400054  0
F  F107  1  0.62378843  0.22243853  0.21269814  1  0  -0.252407  0  1.210765  0  -0.645421  0  -0.215603  0  1.388638  0  0  -0.224579  0  1.37192  0  0  -0.102953  -0.208692  0  1.399993  0
F  F108  1  0.94959543  0.13432082  0.32758679  1  0  -0.262237  0  1.163074  0  -0.639831  0  -0.217988  0  1.324507  0  0  -0.230811  0  1.312447  0  0  -0.105346  -0.210973  0  1.335525  0
F  F109  1  0.13431939  0.94959760  0.82758604  1  0  -0.262269  0  1.163061  0  -0.639843  0  -0.218008  0  1.324478  0  0  -0.230829  0  1.312413  0  0  -0.105372  -0.210994  0  1.335494  0
F  F110  1  0.05040564  0.86568216  0.67241305  1  0  -0.262231  0  1.163039  0  -0.639956  0  -0.217995  0  1.324464  0  0  -0.230828  0  1.312419  0  0  -0.105351  -0.210978  0  1.335485  0
F  F111  1  0.86568008  0.05040659  0.17241268  1  0  -0.262214  0  1.163062  0  -0.639923  0  -0.217971  0  1.324473  0  0  -0.230802  0  1.31243  0  0  -0.105331  -0.210958  0  1.335489  0
F  F112  1  0.98271698  0.34700327  0.34768748  1  0  -0.259483  0  1.179333  0  -0.644731  0  -0.218883  0  1.344333  0  0  -0.228267  0  1.329776  0  0  -0.107418  -0.211665  0  1.354266  0
F  F113  1  0.34700051  0.98271837  0.84768918  1  0  -0.259441  0  1.179406  0  -0.644759  0  -0.218849  0  1.344411  0  0  -0.228235  0  1.32985  0  0  -0.107392  -0.211632  0  1.354342  0
F  F114  1  0.01727985  0.65300454  0.65231003  1  0  -0.259525  0  1.179387  0  -0.644711  0  -0.21892  0  1.344376  0  0  -0.2283  0  1.329817  0  0  -0.107472  -0.2117  0  1.354312  0
F  F115  1  0.65300159  0.01728221  0.15231075  1  0  -0.259451  0  1.179448  0  -0.644739  0  -0.218872  0  1.344455  0  0  -0.228252  0  1.329901  0  0  -0.10744  -0.211656  0  1.354387  0
