# generated using pymatgen
data_ZnH5(C5O2)3
_symmetry_space_group_name_H-M   'P 1'
_cell_length_a   17.22088123
_cell_length_b   17.03678637
_cell_length_c   16.92328385
_cell_angle_alpha   66.99037393
_cell_angle_beta   60.55488675
_cell_angle_gamma   57.71705398
_symmetry_Int_Tables_number   1
_chemical_formula_structural   ZnH5(C5O2)3
_chemical_formula_sum   'Zn6 H30 C90 O36'
_cell_volume   3599.42116443
_cell_formula_units_Z   6
loop_
 _symmetry_equiv_pos_site_id
 _symmetry_equiv_pos_as_xyz
  1  'x, y, z'
loop_
 _atom_site_type_symbol
 _atom_site_label
 _atom_site_symmetry_multiplicity
 _atom_site_fract_x
 _atom_site_fract_y
 _atom_site_fract_z
 _atom_site_occupancy
 _atom_site_pbe_bader_charge
 _atom_site_pbe_bader_spin_density
 _atom_site_pbe_cm5_charge
 _atom_site_pbe_ddec_charge
 _atom_site_pbe_ddec_spin_density
 _atom_site_pbe_ddec_sum_bond_order
 _atom_site_pbe_magmom
Zn  Zn0  1  0.97579877  0.57961605  0.01343755  1  1.291935  0  0.729945  0.960941  0  2.093772  0
Zn  Zn1  1  0.02402600  0.42034740  0.98689264  1  1.292846  0  0.730211  0.961573  0  2.093718  0
Zn  Zn2  1  0.58134389  0.98259710  0.00092635  1  1.296337  0  0.732517  0.964116  0  2.108661  0
Zn  Zn3  1  0.41878028  0.01730544  0.99889289  1  1.296343  0  0.732631  0.96413  0  2.108765  0
Zn  Zn4  1  0.98033010  0.01325456  0.57776599  1  1.288124  0  0.725302  0.957044  0  2.085374  0
Zn  Zn5  1  0.01971831  0.98675003  0.42223247  1  1.28733  0  0.725327  0.957264  0  2.084763  0
H  H6  1  0.94024068  0.72851472  0.36984746  1  0.062022  0  0.097929  0.110834  0  1.021418  0
H  H7  1  0.61549831  0.15052451  0.34340733  1  0.035721  0  0.094811  0.1031  0  1.041388  0
H  H8  1  0.70098599  0.28817782  0.93177774  1  0.045799  0  0.095215  0.107427  0  1.029988  0
H  H9  1  0.29900364  0.71175016  0.06796932  1  0.044723  0  0.095225  0.10732  0  1.029964  0
H  H10  1  0.98067632  0.74490006  0.74119911  1  0.101036  0  0.109036  0.124172  0  0.998895  0
H  H11  1  0.01923891  0.25514974  0.25917124  1  0.105664  0  0.109191  0.124074  0  0.998506  0
H  H12  1  0.69524098  0.70514051  0.06564181  1  0.133222  0  0.112354  0.131131  0  1.015583  0
H  H13  1  0.30460372  0.29484962  0.93435531  1  0.158254  0  0.112734  0.131798  0  1.015046  0
H  H14  1  0.72786941  0.01971784  0.71704121  1  0.126144  0  0.113438  0.132751  0  0.998348  0
H  H15  1  0.27251052  0.98004880  0.28265115  1  0.130441  0  0.11313  0.132106  0  0.998707  0
H  H16  1  0.86509797  0.86516915  0.41939707  1  0.611255  0  0.337553  0.361569  0  0.871333  0
H  H17  1  0.05992076  0.27151388  0.63037653  1  0.05769  0  0.098144  0.110773  0  1.021272  0
H  H18  1  0.13511721  0.13486253  0.58076943  1  0.608042  0  0.337386  0.361823  0  0.871846  0
H  H19  1  0.79344415  0.29985637  0.11632159  1  0.575927  0  0.335553  0.356067  0  0.878027  0
H  H20  1  0.20640279  0.70011067  0.88358772  1  0.57577  0  0.335597  0.356166  0  0.877534  0
H  H21  1  0.50790200  0.80699003  0.83045307  1  0.593669  0  0.337141  0.363188  0  0.87293  0
H  H22  1  0.49211101  0.19304343  0.16948309  1  0.593799  0  0.337334  0.363468  0  0.87272  0
H  H23  1  0.12658499  0.57358129  0.14271291  1  0.599655  0  0.331076  0.354487  0  0.885701  0
H  H24  1  0.87327243  0.42653346  0.85745841  1  0.592385  0  0.33091  0.354069  0  0.886436  0
H  H25  1  0.30411979  0.79372202  0.63999211  1  0.598978  0  0.336702  0.359938  0  0.876291  0
H  H26  1  0.69575365  0.20639060  0.35997059  1  0.598977  0  0.336892  0.360338  0  0.875706  0
H  H27  1  0.72071506  0.20216176  0.84629236  1  0.621917  0  0.34008  0.362488  0  0.867466  0
H  H28  1  0.70905655  0.30993907  0.04450090  1  0.044807  0  0.093577  0.103163  0  1.036349  0
H  H29  1  0.27922014  0.79775734  0.15354577  1  0.620097  0  0.340298  0.362732  0  0.868609  0
H  H30  1  0.29094747  0.69004530  0.95524875  1  0.018127  0  0.093677  0.103217  0  1.0357  0
H  H31  1  0.45731335  0.84770548  0.71452414  1  0.023853  0  0.09691  0.107586  0  1.034357  0
H  H32  1  0.54257818  0.15241647  0.28547096  1  0.024852  0  0.097055  0.107682  0  1.034596  0
H  H33  1  0.05063340  0.62795600  0.27510329  1  0.02711  0  0.096439  0.108101  0  1.024184  0
H  H34  1  0.94933098  0.37214611  0.72509437  1  0.028756  0  0.096308  0.108051  0  1.023987  0
H  H35  1  0.38430852  0.84963285  0.65658463  1  0.036099  0  0.094971  0.103304  0  1.041388  0
C  C36  1  0.95442010  0.69482622  0.43407668  1  -0.077843  0  -0.123135  -0.306693  0  4.042223  0
C  C37  1  0.61441553  0.10550640  0.41045718  1  0.001961  0  -0.125293  -0.305562  0  4.054816  0
C  C38  1  0.62291902  0.32219973  0.94159467  1  -0.049247  0  -0.128207  -0.319928  0  4.064583  0
C  C39  1  0.37706875  0.67776266  0.05814204  1  -0.046469  0  -0.12844  -0.320386  0  4.065155  0
C  C40  1  0.18290367  0.46619254  0.94390600  1  1.548144  0  0.223065  0.604863  0  4.132901  0
C  C41  1  0.81694838  0.53374451  0.05621579  1  1.540522  0  0.222921  0.605472  0  4.133644  0
C  C42  1  0.42139737  0.02460398  0.16783367  1  1.559646  0  0.222707  0.612665  0  4.147644  0
C  C43  1  0.57897265  0.97520869  0.83199029  1  1.561673  0  0.222466  0.612158  0  4.148933  0
C  C44  1  0.01521476  0.15963907  0.42543587  1  1.545336  0  0.21783  0.603422  0  4.13741  0
C  C45  1  0.98473521  0.84043904  0.57500798  1  1.538756  0  0.217245  0.601993  0  4.138343  0
C  C46  1  0.81525056  0.05651865  0.54102943  1  1.558566  0  0.217854  0.602588  0  4.140015  0
C  C47  1  0.04573329  0.30520455  0.56614548  1  -0.082764  0  -0.122974  -0.306489  0  4.042196  0
C  C48  1  0.18491358  0.94338199  0.45855176  1  1.560842  0  0.217506  0.601957  0  4.138902  0
C  C49  1  0.52575588  0.82494558  0.05595236  1  1.568507  0  0.220045  0.603224  0  4.146756  0
C  C50  1  0.47408755  0.17503668  0.94388797  1  1.567901  0  0.220601  0.603377  0  4.146543  0
C  C51  1  0.98248016  0.58087650  0.83997532  1  1.55689  0  0.218174  0.605546  0  4.142178  0
C  C52  1  0.01739210  0.41919432  0.16034983  1  1.55319  0  0.217997  0.605497  0  4.140695  0
C  C53  1  0.93289544  0.75082168  0.48918099  1  0.484171  0  0.085264  0.279473  0  4.078779  0
C  C54  1  0.06723722  0.24921744  0.51105087  1  0.491945  0  0.084926  0.279772  0  4.078674  0
C  C55  1  0.70563741  0.42230193  0.07447705  1  0.455238  0  0.082008  0.273933  0  4.089014  0
C  C56  1  0.29431006  0.57767865  0.92533081  1  0.472575  0  0.082402  0.274404  0  4.086089  0
C  C57  1  0.54041553  0.89827757  0.72424286  1  0.485094  0  0.084478  0.277193  0  4.098319  0
C  C58  1  0.67452399  0.38618260  0.04139514  1  -0.044957  0  -0.130523  -0.322048  0  4.070791  0
C  C59  1  0.45961792  0.10172802  0.27566769  1  0.504443  0  0.085023  0.277903  0  4.097861  0
C  C60  1  0.06370216  0.50553361  0.25371229  1  0.452587  0  0.085741  0.280193  0  4.078617  0
C  C61  1  0.93626992  0.49453736  0.74653434  1  0.490953  0  0.085877  0.280361  0  4.076802  0
C  C62  1  0.33454000  0.89385197  0.54777704  1  0.47247  0  0.079937  0.270228  0  4.107986  0
C  C63  1  0.66539895  0.10621067  0.45214105  1  0.470243  0  0.079513  0.269932  0  4.107808  0
C  C64  1  0.59028993  0.28639453  0.90992235  1  0.483831  0  0.086395  0.282057  0  4.093451  0
C  C65  1  0.40966284  0.71356095  0.08985754  1  0.479322  0  0.086629  0.281355  0  4.09174  0
C  C66  1  0.97696616  0.55857335  0.55667535  1  -0.001857  0  -0.013273  -0.037136  0  3.985823  0
C  C67  1  0.02316948  0.44145764  0.44353614  1  -0.000453  0  -0.013359  -0.037176  0  3.985152  0
C  C68  1  0.53311038  0.53706989  0.03322456  1  0.033973  0  -0.015673  -0.03709  0  3.984292  0
C  C69  1  0.32546874  0.61380272  0.95835822  1  -0.0429  0  -0.130374  -0.321608  0  4.069288  0
C  C70  1  0.46690562  0.46290538  0.96648589  1  0.03234  0  -0.015609  -0.0374  0  3.984359  0
C  C71  1  0.55240800  0.00043700  0.54377770  1  0.056884  0  -0.01478  -0.039115  0  3.968486  0
C  C72  1  0.44750196  0.99964084  0.45618154  1  0.062977  0  -0.014437  -0.038207  0  3.968475  0
C  C73  1  0.98752803  0.46422715  0.59498977  1  0.002476  0  -0.009373  0.06076  0  4.034454  0
C  C74  1  0.01256537  0.53582584  0.40523306  1  0.000867  0  -0.009614  0.059745  0  4.034618  0
C  C75  1  0.43977361  0.59209347  0.02288736  1  0.013612  0  -0.014558  0.053178  0  4.045089  0
C  C76  1  0.56024880  0.40788706  0.97680799  1  0.01847  0  -0.015059  0.052607  0  4.044668  0
C  C77  1  0.55840797  0.05218208  0.45291275  1  -0.050234  0  -0.010679  0.05486  0  4.031638  0
C  C78  1  0.44147359  0.94792897  0.54706213  1  -0.051193  0  -0.010864  0.054855  0  4.031206  0
C  C79  1  0.01588055  0.40394427  0.53695631  1  0.027849  0  -0.009767  0.058926  0  4.036765  0
C  C80  1  0.49378067  0.89476462  0.67997720  1  -0.009606  0  -0.121237  -0.298223  0  4.038648  0
C  C81  1  0.98426336  0.59609368  0.46325597  1  0.028508  0  -0.009698  0.059067  0  4.036223  0
C  C82  1  0.50555877  0.05196560  0.40885242  1  0.021215  0  -0.00854  0.059807  0  4.017573  0
C  C83  1  0.49432018  0.94814410  0.59112453  1  0.022037  0  -0.008229  0.060194  0  4.017077  0
C  C84  1  0.40871811  0.55646853  0.98541205  1  0.006223  0  -0.014561  0.055915  0  4.044904  0
C  C85  1  0.59129836  0.44350367  0.01429965  1  0.00023  0  -0.01388  0.056593  0  4.044074  0
C  C86  1  0.95461034  0.70909720  0.57258439  1  0.039922  0  0.007654  -0.007464  0  3.893862  0
C  C87  1  0.04542820  0.29095089  0.42768692  1  0.026548  0  0.007404  -0.008479  0  3.895041  0
C  C88  1  0.66528019  0.52280725  0.06823360  1  0.018795  0  0.006409  -0.009618  0  3.898556  0
C  C89  1  0.33466907  0.47717349  0.93160318  1  0.021259  0  0.006185  -0.010356  0  3.899418  0
C  C90  1  0.58930755  0.95905663  0.68289376  1  0.022914  0  0.002346  -0.015269  0  3.928221  0
C  C91  1  0.50614614  0.10532970  0.31998580  1  -0.029361  0  -0.121505  -0.298614  0  4.039574  0
C  C92  1  0.41079975  0.04088742  0.31699155  1  0.023058  0  0.002066  -0.014646  0  3.929359  0
C  C93  1  0.04473530  0.42262247  0.29466158  1  0.049479  0  0.004507  -0.012145  0  3.900568  0
C  C94  1  0.95524515  0.57743595  0.70560990  1  0.012054  0  0.005154  -0.010916  0  3.899963  0
C  C95  1  0.33289251  0.95003133  0.45915580  1  0.031165  0  -0.001407  -0.025077  0  3.926649  0
C  C96  1  0.66713550  0.04994139  0.54071152  1  0.030342  0  -0.001173  -0.025646  0  3.926741  0
C  C97  1  0.48685270  0.32667880  0.92568916  1  0.074118  0  0.005268  -0.012632  0  3.908775  0
C  C98  1  0.51309618  0.67328197  0.07410894  1  0.080532  0  0.004845  -0.009722  0  3.903798  0
C  C99  1  0.96416450  0.75493319  0.61971379  1  -0.006056  0  -0.013558  -0.063116  0  3.910653  0
C  C100  1  0.03578457  0.24514130  0.38062652  1  0.021927  0  -0.01342  -0.06265  0  3.912731  0
C  C101  1  0.71024668  0.57065992  0.07152592  1  0.009445  0  -0.011746  -0.062399  0  3.895977  0
C  C102  1  0.03996633  0.56327961  0.30817972  1  0.020147  0  -0.122487  -0.302844  0  4.041127  0
C  C103  1  0.28963881  0.42931260  0.92843248  1  0.010672  0  -0.011337  -0.061121  0  3.896568  0
C  C104  1  0.62491571  0.97695192  0.73074644  1  -0.022318  0  -0.009913  -0.04912  0  3.929312  0
C  C105  1  0.37534822  0.02288565  0.26907439  1  -0.030586  0  -0.009516  -0.049758  0  3.930426  0
C  C106  1  0.03661361  0.37477238  0.24844117  1  -0.005696  0  -0.014045  -0.06255  0  3.917572  0
C  C107  1  0.96333289  0.62528471  0.75185508  1  -0.062439  0  -0.01466  -0.063624  0  3.918756  0
C  C108  1  0.27844709  0.95528942  0.41428953  1  -0.020874  0  -0.009161  -0.045327  0  3.892272  0
C  C109  1  0.72172748  0.04458425  0.58546760  1  -0.018527  0  -0.008784  -0.04417  0  3.891751  0
C  C110  1  0.43882498  0.27996974  0.92614399  1  -0.012593  0  -0.010735  -0.058914  0  3.913055  0
C  C111  1  0.56108000  0.72000225  0.07371885  1  -0.011131  0  -0.010814  -0.060449  0  3.913753  0
C  C112  1  0.96907158  0.71145171  0.70731281  1  0.073782  0  -0.071598  -0.093353  0  3.949516  0
C  C113  1  0.96003967  0.43679789  0.69204098  1  0.020164  0  -0.122774  -0.303621  0  4.040343  0
C  C114  1  0.03085948  0.28861050  0.29302944  1  0.000612  0  -0.071817  -0.093356  0  3.948582  0
C  C115  1  0.65755365  0.66754214  0.07129416  1  0.054602  0  -0.06992  -0.0838  0  3.943651  0
C  C116  1  0.34232554  0.33243940  0.92864885  1  0.024373  0  -0.070802  -0.085671  0  3.94338  0
C  C117  1  0.69417936  0.01391366  0.68076223  1  0.034589  0  -0.071529  -0.102726  0  3.944536  0
C  C118  1  0.30609897  0.98591296  0.31899722  1  0.03313  0  -0.070994  -0.100836  0  3.944539  0
C  C119  1  0.96175271  0.61509277  0.61166201  1  0.004143  0  0.007542  0.024641  0  3.92178  0
C  C120  1  0.03831335  0.38494857  0.38858436  1  0.004426  0  0.007553  0.025144  0  3.920742  0
C  C121  1  0.57012872  0.57721708  0.05952486  1  -0.045603  0  0.00733  0.022081  0  3.907352  0
C  C122  1  0.42985182  0.42274919  0.94023766  1  -0.04399  0  0.007933  0.02399  0  3.907552  0
C  C123  1  0.60377270  0.00238132  0.58841655  1  0.006415  0  0.008935  0.029644  0  3.91157  0
C  C124  1  0.38544948  0.89461582  0.58950468  1  0.00174  0  -0.125511  -0.305827  0  4.055063  0
C  C125  1  0.39622817  0.99762803  0.41149065  1  0.000727  0  0.008821  0.027698  0  3.91442  0
O  O126  1  0.11974556  0.54444576  0.97243805  1  -1.145846  0  -0.31304  -0.543364  0  2.360309  0
O  O127  1  0.55125168  0.12088268  0.96413694  1  -1.14904  0  -0.313231  -0.539869  0  2.340287  0
O  O128  1  0.02226556  0.49130697  0.85856110  1  -1.141191  0  -0.313445  -0.542531  0  2.344685  0
O  O129  1  0.97757413  0.50876746  0.14178207  1  -1.140743  0  -0.313393  -0.54253  0  2.343597  0
O  O130  1  0.96161549  0.63621222  0.88892240  1  -1.151192  0  -0.325247  -0.563944  0  2.247393  0
O  O131  1  0.03823305  0.36386545  0.11140486  1  -1.149295  0  -0.325269  -0.564345  0  2.247143  0
O  O132  1  0.58117629  0.85298200  0.05645524  1  -1.158597  0  -0.317192  -0.56067  0  2.32285  0
O  O133  1  0.41859241  0.14707333  0.94341355  1  -1.158989  0  -0.317364  -0.560099  0  2.321153  0
O  O134  1  0.83688948  0.07448495  0.59243509  1  -1.15228  0  -0.323775  -0.555836  0  2.294625  0
O  O135  1  0.16334195  0.92554614  0.40700158  1  -1.152615  0  -0.323544  -0.555109  0  2.293165  0
O  O136  1  0.03203272  0.11099034  0.37204991  1  -1.148523  0  -0.322351  -0.564641  0  2.259657  0
O  O137  1  0.88012549  0.45544833  0.02777615  1  -1.138161  0  -0.313043  -0.543759  0  2.36086  0
O  O138  1  0.96783736  0.88908800  0.62846104  1  -1.150214  0  -0.322045  -0.563446  0  2.257467  0
O  O139  1  0.36768076  0.03964218  0.12658809  1  -1.15034  0  -0.320267  -0.562472  0  2.281153  0
O  O140  1  0.63272680  0.96016998  0.87319650  1  -1.152413  0  -0.319853  -0.561983  0  2.280769  0
O  O141  1  0.16184356  0.41051302  0.93308571  1  -1.149909  0  -0.315571  -0.547404  0  2.331943  0
O  O142  1  0.83798734  0.58938513  0.06712600  1  -1.148694  0  -0.315218  -0.547471  0  2.332687  0
O  O143  1  0.88434695  0.84651939  0.47165262  1  -1.120352  0  -0.336745  -0.420045  0  2.369758  0
O  O144  1  0.11583986  0.15351517  0.52853316  1  -1.116487  0  -0.336446  -0.420484  0  2.370018  0
O  O145  1  0.76995750  0.36505074  0.11980011  1  -1.099769  0  -0.342212  -0.414527  0  2.321283  0
O  O146  1  0.22990430  0.63491354  0.88009984  1  -1.093648  0  -0.342401  -0.414846  0  2.318442  0
O  O147  1  0.54739698  0.84179131  0.80614562  1  -1.102868  0  -0.33854  -0.421485  0  2.317353  0
O  O148  1  0.51361468  0.00204729  0.13213124  1  -1.144772  0  -0.313207  -0.537083  0  2.323293  0
O  O149  1  0.45269673  0.15817020  0.19372961  1  -1.10369  0  -0.338828  -0.421945  0  2.316883  0
O  O150  1  0.11154417  0.52005920  0.16071568  1  -1.110278  0  -0.339896  -0.419803  0  2.3683  0
O  O151  1  0.88838202  0.47999984  0.83951761  1  -1.105625  0  -0.33974  -0.419381  0  2.367688  0
O  O152  1  0.28889633  0.83530843  0.58556497  1  -1.114955  0  -0.343151  -0.420778  0  2.314165  0
O  O153  1  0.71100684  0.16477652  0.41437537  1  -1.114149  0  -0.343213  -0.421107  0  2.313771  0
O  O154  1  0.65337961  0.21760194  0.85735917  1  -1.131334  0  -0.335655  -0.407845  0  2.315306  0
O  O155  1  0.34656057  0.78229240  0.14249100  1  -1.127963  0  -0.335892  -0.408153  0  2.317166  0
O  O156  1  0.48675590  0.99778829  0.86772670  1  -1.145792  0  -0.313073  -0.537248  0  2.326045  0
O  O157  1  0.97885407  0.14266979  0.51308293  1  -1.13763  0  -0.313219  -0.538889  0  2.330864  0
O  O158  1  0.02119968  0.85740283  0.48739243  1  -1.130489  0  -0.312862  -0.538687  0  2.333456  0
O  O159  1  0.87266761  0.03726907  0.45983561  1  -1.138269  0  -0.318089  -0.55174  0  2.31571  0
O  O160  1  0.12743731  0.96257191  0.53976030  1  -1.138581  0  -0.317917  -0.551552  0  2.31563  0
O  O161  1  0.44860772  0.87906268  0.03566717  1  -1.149863  0  -0.312874  -0.539312  0  2.339039  0
