# generated using pymatgen
data_CdH12C14(NO)4
_symmetry_space_group_name_H-M   'P 1'
_cell_length_a   11.61941864
_cell_length_b   13.72243797
_cell_length_c   13.83418317
_cell_angle_alpha   102.95930814
_cell_angle_beta   90.00135654
_cell_angle_gamma   115.06768444
_symmetry_Int_Tables_number   1
_chemical_formula_structural   CdH12C14(NO)4
_chemical_formula_sum   'Cd4 H48 C56 N16 O16'
_cell_volume   1935.83582095
_cell_formula_units_Z   4
loop_
 _symmetry_equiv_pos_site_id
 _symmetry_equiv_pos_as_xyz
  1  'x, y, z'
loop_
 _atom_site_type_symbol
 _atom_site_label
 _atom_site_symmetry_multiplicity
 _atom_site_fract_x
 _atom_site_fract_y
 _atom_site_fract_z
 _atom_site_occupancy
 _atom_site_pbe_bader_charge
 _atom_site_pbe_bader_spin_density
 _atom_site_pbe_cm5_charge
 _atom_site_pbe_ddec_charge
 _atom_site_pbe_ddec_spin_density
 _atom_site_pbe_ddec_sum_bond_order
 _atom_site_pbe_magmom
Cd  Cd0  1  0.44387544  0.43803152  0.85722385  1  1.274749  0  0.76331  0.863951  0  2.178273  0
Cd  Cd1  1  0.00523348  0.56151876  0.64258750  1  1.277844  0  0.762759  0.862235  0  2.179053  0
Cd  Cd2  1  0.55612173  0.56196905  0.14277247  1  1.274894  0  0.763374  0.864018  0  2.178318  0
Cd  Cd3  1  0.99476080  0.43847601  0.35740830  1  1.277802  0  0.76275  0.862155  0  2.179147  0
H  H4  1  0.18234173  0.18886864  0.56260080  1  0.030587  0  0.097122  0.107127  0  0.97126  0
H  H5  1  0.99355006  0.81077014  0.93718995  1  0.022157  0  0.096785  0.106775  0  0.971188  0
H  H6  1  0.81766451  0.81113114  0.43739824  1  0.030428  0  0.097112  0.107132  0  0.971279  0
H  H7  1  0.00644406  0.18923121  0.06280292  1  0.022541  0  0.096795  0.106811  0  0.971282  0
H  H8  1  0.06455064  0.22180726  0.62397540  1  0.05126  0  0.090321  0.099644  0  0.995584  0
H  H9  1  0.84256049  0.77726802  0.87576917  1  0.033227  0  0.090686  0.099902  0  0.994969  0
H  H10  1  0.93545256  0.77819331  0.37602092  1  0.0512  0  0.090319  0.099633  0  0.995655  0
H  H11  1  0.15743204  0.22272670  0.12422302  1  0.033415  0  0.09066  0.099851  0  0.9951  0
H  H12  1  0.12721515  0.28991042  0.45977039  1  0.034561  0  0.097281  0.120863  0  1.002785  0
H  H13  1  0.83738757  0.71024034  0.04038044  1  0.055212  0  0.097413  0.121036  0  1.003022  0
H  H14  1  0.87278895  0.71008679  0.54022233  1  0.034709  0  0.097323  0.120912  0  1.002779  0
H  H15  1  0.16261695  0.28975942  0.95961715  1  0.05519  0  0.097434  0.121077  0  1.002966  0
H  H16  1  0.27878330  0.37879736  0.52503213  1  0.071395  0  0.106438  0.132121  0  0.963222  0
H  H17  1  0.90004819  0.62110251  0.97564895  1  0.069019  0  0.106275  0.131248  0  0.963498  0
H  H18  1  0.72121947  0.62120236  0.47496328  1  0.071326  0  0.106439  0.132085  0  0.963241  0
H  H19  1  0.09994438  0.37888886  0.02434035  1  0.069021  0  0.106282  0.131234  0  0.963544  0
H  H20  1  0.25849028  0.18858952  0.85273386  1  0.155007  0  0.119734  0.102454  0  1.012902  0
H  H21  1  0.06893891  0.81075814  0.64687036  1  0.132971  0  0.119646  0.102668  0  1.013303  0
H  H22  1  0.74150985  0.81141351  0.14726081  1  0.155029  0  0.119756  0.102486  0  1.012862  0
H  H23  1  0.93106684  0.18924409  0.35312631  1  0.132817  0  0.119627  0.102661  0  1.013265  0
H  H24  1  0.25693298  0.00535123  0.86226466  1  0.116395  0  0.11539  0.125055  0  1.003737  0
H  H25  1  0.25057601  0.99413623  0.63730350  1  0.128008  0  0.115388  0.124731  0  1.004214  0
H  H26  1  0.74306074  0.99465276  0.13773961  1  0.116351  0  0.115409  0.125064  0  1.003731  0
H  H27  1  0.74943493  0.00586433  0.36269209  1  0.127986  0  0.115396  0.12482  0  1.004189  0
H  H28  1  0.66893792  0.17039705  0.89277447  1  0.096612  0  0.11909  0.132555  0  0.972989  0
H  H29  1  0.49796946  0.82960759  0.60742698  1  0.092683  0  0.119025  0.132549  0  0.97282  0
H  H30  1  0.33105555  0.82959955  0.10723401  1  0.096564  0  0.119062  0.132491  0  0.972969  0
H  H31  1  0.50203226  0.17038143  0.39257195  1  0.093018  0  0.119038  0.132575  0  0.972806  0
H  H32  1  0.65315651  0.34802847  0.88923464  1  0.112049  0  0.124246  0.101118  0  0.977543  0
H  H33  1  0.30443634  0.65175710  0.61066185  1  0.10447  0  0.124153  0.101116  0  0.977918  0
H  H34  1  0.34684291  0.65196971  0.11076839  1  0.111998  0  0.124213  0.101088  0  0.977524  0
H  H35  1  0.69556096  0.34823855  0.38933776  1  0.104565  0  0.124184  0.101209  0  0.97782  0
H  H36  1  0.19347200  0.69435746  0.86758470  1  0.178548  0  0.112832  0.140445  0  1.038892  0
H  H37  1  0.49839316  0.30509584  0.63182526  1  0.180664  0  0.11248  0.1399  0  1.039447  0
H  H38  1  0.80654527  0.30565403  0.13242333  1  0.178785  0  0.112863  0.14046  0  1.038945  0
H  H39  1  0.50159772  0.69489902  0.36817707  1  0.17309  0  0.112507  0.139944  0  1.039571  0
H  H40  1  0.22522930  0.52289823  0.86008827  1  0.144852  0  0.129552  0.111537  0  0.961599  0
H  H41  1  0.70167917  0.47658548  0.63888938  1  0.13582  0  0.129386  0.111099  0  0.961549  0
H  H42  1  0.77477861  0.47710488  0.13991220  1  0.144735  0  0.129551  0.111595  0  0.961591  0
H  H43  1  0.29830695  0.52340676  0.36110300  1  0.135742  0  0.129459  0.111177  0  0.961429  0
H  H44  1  0.61369372  0.68851012  0.84361947  1  0.108699  0  0.118281  0.095119  0  1.021604  0
H  H45  1  0.92475078  0.31179478  0.65762908  1  0.122711  0  0.118259  0.09576  0  1.020605  0
H  H46  1  0.38631195  0.31149366  0.15636958  1  0.108712  0  0.118223  0.095019  0  1.021518  0
H  H47  1  0.07524429  0.68820503  0.34237213  1  0.122625  0  0.118273  0.095757  0  1.020613  0
H  H48  1  0.60111705  0.86992254  0.85566020  1  0.12126  0  0.111346  0.118803  0  1.011048  0
H  H49  1  0.73069975  0.13029740  0.64579186  1  0.1178  0  0.111653  0.120082  0  1.009551  0
H  H50  1  0.39889849  0.13008893  0.14434638  1  0.121476  0  0.111325  0.118769  0  1.011171  0
H  H51  1  0.26929713  0.86970430  0.35422638  1  0.117886  0  0.111687  0.120152  0  1.009644  0
C  C52  1  0.25555140  0.31536440  0.69756875  1  1.56443  0  0.185997  0.616353  0  4.182415  0
C  C53  1  0.94008905  0.68380946  0.80253863  1  1.547291  0  0.186403  0.617246  0  4.180739  0
C  C54  1  0.74445550  0.68464358  0.30242408  1  1.564275  0  0.185948  0.616193  0  4.182621  0
C  C55  1  0.05990474  0.31618779  0.19745699  1  1.546626  0  0.186259  0.617  0  4.180614  0
C  C56  1  0.16225091  0.25795771  0.60304980  1  -0.045465  0  -0.166123  -0.258694  0  3.950995  0
C  C57  1  0.90431795  0.74145241  0.89695352  1  -0.006898  0  -0.165985  -0.258856  0  3.951531  0
C  C58  1  0.83775138  0.74204448  0.39694396  1  -0.045376  0  -0.166113  -0.258679  0  3.951254  0
C  C59  1  0.09567071  0.25854145  0.10303704  1  -0.006904  0  -0.165975  -0.258854  0  3.951607  0
C  C60  1  0.17684728  0.33531623  0.53484395  1  0.011535  0  -0.16621  -0.280829  0  3.927987  0
C  C61  1  0.84163094  0.66449902  0.96548538  1  -0.003034  0  -0.165458  -0.27869  0  3.927491  0
C  C62  1  0.82314984  0.66468593  0.46514837  1  0.0117  0  -0.166281  -0.280839  0  3.927886  0
C  C63  1  0.15836744  0.33550568  0.03451036  1  -0.003047  0  -0.165474  -0.278692  0  3.927451  0
C  C64  1  0.13157691  0.42356733  0.57643590  1  1.524807  0  0.196875  0.617349  0  4.153354  0
C  C65  1  0.70808654  0.57615096  0.92401812  1  1.518721  0  0.196873  0.617311  0  4.152789  0
C  C66  1  0.86842041  0.57642493  0.42355793  1  1.524204  0  0.196989  0.617441  0  4.153144  0
C  C67  1  0.29190291  0.42384965  0.07598110  1  1.519121  0  0.196762  0.617288  0  4.152619  0
C  C68  1  0.34644933  0.18013125  0.86429955  1  0.439235  0  0.050155  0.09773  0  3.930952  0
C  C69  1  0.16546390  0.81940347  0.63540013  1  0.430368  0  0.049057  0.09567  0  3.933415  0
C  C70  1  0.65355125  0.81987269  0.13570110  1  0.439059  0  0.050187  0.097731  0  3.930932  0
C  C71  1  0.83453894  0.18059466  0.36459928  1  0.430382  0  0.049094  0.095744  0  3.933483  0
C  C72  1  0.34586409  0.07973575  0.86810836  1  -0.003819  0  -0.076346  -0.186382  0  3.927206  0
C  C73  1  0.26526829  0.91987791  0.63163387  1  -0.006009  0  -0.076022  -0.185775  0  3.929369  0
C  C74  1  0.65413143  0.92026495  0.13189738  1  -0.003868  0  -0.076436  -0.186431  0  3.927338  0
C  C75  1  0.73474014  0.08012106  0.36836644  1  -0.005848  0  -0.076099  -0.18595  0  3.929642  0
C  C76  1  0.46386316  0.07560615  0.87785447  1  0.319295  0  0.099795  0.193035  0  4.038461  0
C  C77  1  0.38745568  0.92413777  0.62208970  1  0.31856  0  0.099868  0.192881  0  4.03861  0
C  C78  1  0.53613406  0.92439623  0.12215307  1  0.319479  0  0.099816  0.193049  0  4.038177  0
C  C79  1  0.61254933  0.07586125  0.37791424  1  0.317729  0  0.099826  0.192803  0  4.038598  0
C  C80  1  0.57672373  0.17258321  0.88549454  1  0.022349  0  -0.071748  -0.182146  0  3.918346  0
C  C81  1  0.40346155  0.82725069  0.61456357  1  0.01543  0  -0.071799  -0.181696  0  3.917829  0
C  C82  1  0.42327269  0.82741584  0.11451230  1  0.022604  0  -0.071714  -0.182081  0  3.918196  0
C  C83  1  0.59654140  0.17274249  0.38543696  1  0.015432  0  -0.071747  -0.181583  0  3.918  0
C  C84  1  0.56812583  0.27012375  0.88295629  1  0.490017  0  0.054271  0.10368  0  3.946474  0
C  C85  1  0.29731465  0.72963311  0.61696984  1  0.509119  0  0.054166  0.103393  0  3.946431  0
C  C86  1  0.43187525  0.72987775  0.11704746  1  0.4898  0  0.054304  0.103737  0  3.9465  0
C  C87  1  0.70268097  0.27036089  0.38303087  1  0.509208  0  0.054048  0.103129  0  3.946582  0
C  C88  1  0.39672821  0.79587974  0.86509803  1  0.283312  0  0.095555  0.180935  0  4.050623  0
C  C89  1  0.60026097  0.20394239  0.63515731  1  0.260892  0  0.095405  0.180357  0  4.053306  0
C  C90  1  0.60327757  0.20412599  0.13491240  1  0.284261  0  0.095486  0.181037  0  4.05052  0
C  C91  1  0.39973250  0.79605421  0.36485117  1  0.260694  0  0.095394  0.180347  0  4.053416  0
C  C92  1  0.28908417  0.69758328  0.86541069  1  0.015944  0  -0.069204  -0.181323  0  3.870694  0
C  C93  1  0.59086149  0.30207237  0.63431777  1  0.015644  0  -0.06873  -0.180165  0  3.872022  0
C  C94  1  0.71092499  0.30242404  0.13459501  1  0.015689  0  -0.069134  -0.181306  0  3.870616  0
C  C95  1  0.40913070  0.69792167  0.36568512  1  0.023258  0  -0.068752  -0.180213  0  3.872226  0
C  C96  1  0.30604363  0.60180078  0.86066191  1  0.483029  0  0.063039  0.122902  0  3.896669  0
C  C97  1  0.70358837  0.39783247  0.63888342  1  0.498743  0  0.063453  0.123328  0  3.897419  0
C  C98  1  0.69396636  0.39820648  0.13933944  1  0.483117  0  0.062874  0.122703  0  3.89697  0
C  C99  1  0.29640120  0.60216150  0.36111511  1  0.498594  0  0.06338  0.123245  0  3.897158  0
C  C100  1  0.52383660  0.69531703  0.85183497  1  0.481892  0  0.044744  0.095028  0  3.944139  0
C  C101  1  0.82797997  0.30473184  0.64896589  1  0.489569  0  0.044617  0.094575  0  3.942031  0
C  C102  1  0.47617432  0.30468521  0.14816242  1  0.481186  0  0.044827  0.095203  0  3.944088  0
C  C103  1  0.17201468  0.69526884  0.35103840  1  0.483909  0  0.044521  0.094519  0  3.942055  0
C  C104  1  0.51668374  0.79456256  0.85744454  1  -0.040887  0  -0.082517  -0.195249  0  3.953877  0
C  C105  1  0.72157574  0.20548848  0.64349199  1  -0.031652  0  -0.082624  -0.196537  0  3.955269  0
C  C106  1  0.48332417  0.20544228  0.14256063  1  -0.041054  0  -0.082477  -0.19525  0  3.954136  0
C  C107  1  0.27842237  0.79451394  0.35651918  1  -0.026322  0  -0.08261  -0.196641  0  3.95547  0
N  N108  1  0.45532470  0.27355775  0.87174348  1  -1.19943  0  -0.316517  -0.223527  0  3.478227  0
N  N109  1  0.18100578  0.72606749  0.62798345  1  -1.19742  0  -0.315479  -0.221285  0  3.478353  0
N  N110  1  0.54467595  0.72644288  0.12825791  1  -1.199328  0  -0.316526  -0.22352  0  3.478124  0
N  N111  1  0.81899571  0.27393310  0.37201432  1  -1.197337  0  -0.315417  -0.221219  0  3.478321  0
N  N112  1  0.47987127  0.97892115  0.87749397  1  -0.461876  0  -0.138293  -0.125639  0  3.266612  0
N  N113  1  0.50023502  0.02085980  0.62244664  1  -0.457356  0  -0.139302  -0.127729  0  3.268322  0
N  N114  1  0.52012761  0.02108455  0.12251428  1  -0.461939  0  -0.138322  -0.125566  0  3.266362  0
N  N115  1  0.49977000  0.97913752  0.37755404  1  -0.457173  0  -0.139218  -0.127565  0  3.267945  0
N  N116  1  0.37688151  0.89200150  0.87011388  1  -0.456397  0  -0.131013  -0.109136  0  3.226197  0
N  N117  1  0.48423412  0.10779970  0.63008111  1  -0.446807  0  -0.130527  -0.107651  0  3.227794  0
N  N118  1  0.62312266  0.10800101  0.12990309  1  -0.456626  0  -0.130966  -0.109287  0  3.226079  0
N  N119  1  0.51576539  0.89219694  0.36993028  1  -0.446722  0  -0.130577  -0.107765  0  3.227569  0
N  N120  1  0.42090621  0.60085570  0.85478823  1  -1.206177  0  -0.312747  -0.213042  0  3.457542  0
N  N121  1  0.81943177  0.39892024  0.64514012  1  -1.216999  0  -0.312869  -0.213017  0  3.45802  0
N  N122  1  0.57910761  0.39915233  0.14520895  1  -1.206191  0  -0.312695  -0.213017  0  3.457683  0
N  N123  1  0.18056246  0.60107789  0.35486002  1  -1.216396  0  -0.312848  -0.212929  0  3.457978  0
O  O124  1  0.37265576  0.37405345  0.68667487  1  -1.17562  0  -0.346253  -0.577826  0  2.189327  0
O  O125  1  0.99886737  0.62549625  0.81351799  1  -1.165887  0  -0.345774  -0.576769  0  2.188066  0
O  O126  1  0.62734707  0.62596358  0.31331481  1  -1.175407  0  -0.346301  -0.57776  0  2.189382  0
O  O127  1  0.00113062  0.37450596  0.18647723  1  -1.165763  0  -0.345668  -0.576623  0  2.188146  0
O  O128  1  0.21709506  0.30233374  0.78161442  1  -1.189183  0  -0.349884  -0.596594  0  2.15068  0
O  O129  1  0.91415086  0.69642939  0.71838773  1  -1.190758  0  -0.350421  -0.597442  0  2.148883  0
O  O130  1  0.78291533  0.69767260  0.21838023  1  -1.189378  0  -0.349873  -0.596578  0  2.150772  0
O  O131  1  0.08584088  0.30356203  0.28160592  1  -1.190635  0  -0.350374  -0.59731  0  2.14876  0
O  O132  1  0.12558803  0.45228566  0.66915489  1  -1.159349  0  -0.320093  -0.544794  0  2.15187  0
O  O133  1  0.67347466  0.54685154  0.83120869  1  -1.154335  0  -0.320559  -0.545102  0  2.15051  0
O  O134  1  0.87441821  0.54771238  0.33083800  1  -1.158948  0  -0.320143  -0.544823  0  2.151941  0
O  O135  1  0.32651605  0.45315158  0.16879250  1  -1.154965  0  -0.320577  -0.54515  0  2.150268  0
O  O136  1  0.09955887  0.46855559  0.51553872  1  -1.194996  0  -0.348042  -0.602342  0  2.363058  0
O  O137  1  0.63086221  0.53168697  0.98497954  1  -1.198332  0  -0.348543  -0.603403  0  2.366203  0
O  O138  1  0.90042820  0.53143509  0.48446128  1  -1.194902  0  -0.348062  -0.602414  0  2.363118  0
O  O139  1  0.36913290  0.46831289  0.01502603  1  -1.198162  0  -0.348437  -0.603322  0  2.366144  0
