# generated using pymatgen
data_CaH10C6O5
_symmetry_space_group_name_H-M   'P 1'
_cell_length_a   5.89177141
_cell_length_b   6.77039911
_cell_length_c   10.81144623
_cell_angle_alpha   76.42497718
_cell_angle_beta   81.93796324
_cell_angle_gamma   78.61643861
_symmetry_Int_Tables_number   1
_chemical_formula_structural   CaH10C6O5
_chemical_formula_sum   'Ca2 H20 C12 O10'
_cell_volume   408.96900216
_cell_formula_units_Z   2
loop_
 _symmetry_equiv_pos_site_id
 _symmetry_equiv_pos_as_xyz
  1  'x, y, z'
loop_
 _atom_site_type_symbol
 _atom_site_label
 _atom_site_symmetry_multiplicity
 _atom_site_fract_x
 _atom_site_fract_y
 _atom_site_fract_z
 _atom_site_occupancy
 _atom_site_hle17_bader_spin_density
 _atom_site_hle17_ddec_charge
 _atom_site_hle17_ddec_spin_density
 _atom_site_hle17_ddec_sum_bond_order
 _atom_site_hle17_magmom
 _atom_site_hse06_10hf_bader_spin_density
 _atom_site_hse06_10hf_ddec_charge
 _atom_site_hse06_10hf_ddec_spin_density
 _atom_site_hse06_10hf_ddec_sum_bond_order
 _atom_site_hse06_10hf_magmom
 _atom_site_hse06_bader_spin_density
 _atom_site_hse06_ddec_charge
 _atom_site_hse06_ddec_spin_density
 _atom_site_hse06_ddec_sum_bond_order
 _atom_site_hse06_magmom
 _atom_site_pbe_bader_spin_density
 _atom_site_pbe_cm5_charge
 _atom_site_pbe_ddec_charge
 _atom_site_pbe_ddec_spin_density
 _atom_site_pbe_ddec_sum_bond_order
 _atom_site_pbe_magmom
Ca  Ca0  1  0.60015470  0.26025772  0.42748994  1  0  1.553507  0  1.119442  0  0  1.422012  0  1.470832  0  0  1.467603  0  1.423939  0  0  0.905803  1.387706  0  1.504012  0
Ca  Ca1  1  0.39984297  0.73974390  0.57250817  1  0  1.553512  0  1.119438  0  0  1.421998  0  1.47084  0  0  1.467575  0  1.423979  0  0  0.905789  1.387687  0  1.504035  0
H  H2  1  0.27493161  0.48101371  0.10467972  1  0  0.094538  0  0.937343  0  0  0.111489  0  0.999597  0  0  0.113213  0  0.999062  0  0  0.101932  0.11019  0  1.0002  0
H  H3  1  0.72506287  0.51898641  0.89532068  1  0  0.094563  0  0.937314  0  0  0.111481  0  0.999598  0  0  0.113201  0  0.999067  0  0  0.101941  0.110182  0  1.000199  0
H  H4  1  0.45511405  0.24214743  0.14812909  1  0  0.09689  0  0.938147  0  0  0.113523  0  1.000242  0  0  0.115573  0  0.999263  0  0  0.106825  0.111992  0  1.001192  0
H  H5  1  0.54488662  0.75785709  0.85187025  1  0  0.096882  0  0.938154  0  0  0.113522  0  1.000244  0  0  0.115575  0  0.999257  0  0  0.10681  0.111987  0  1.001197  0
H  H6  1  0.17621719  0.06766863  0.07200513  1  0  0.058884  0  0.940757  0  0  0.079216  0  1.000983  0  0  0.079732  0  1.001558  0  0  0.088673  0.078759  0  1.000726  0
H  H7  1  0.82378568  0.93233272  0.92799539  1  0  0.058885  0  0.940761  0  0  0.079221  0  1.000978  0  0  0.079738  0  1.001555  0  0  0.088682  0.078766  0  1.000717  0
H  H8  1  0.99487300  0.30608659  0.02866991  1  0  0.06095  0  0.943038  0  0  0.079439  0  1.00761  0  0  0.080028  0  1.008015  0  0  0.089032  0.078898  0  1.007568  0
H  H9  1  0.00512468  0.69391503  0.97132819  1  0  0.061028  0  0.943085  0  0  0.079481  0  1.007683  0  0  0.08007  0  1.008089  0  0  0.089063  0.078936  0  1.007645  0
H  H10  1  0.31167781  0.43706548  0.86766518  1  0  0.063815  0  0.949106  0  0  0.079829  0  1.01733  0  0  0.08115  0  1.017332  0  0  0.09562  0.078807  0  1.017447  0
H  H11  1  0.68832875  0.56293422  0.13233527  1  0  0.063798  0  0.949191  0  0  0.079827  0  1.017395  0  0  0.081155  0  1.017386  0  0  0.09564  0.078801  0  1.017516  0
H  H12  1  0.50043927  0.20057928  0.91357021  1  0  0.056908  0  0.934578  0  0  0.079908  0  0.989705  0  0  0.080214  0  0.990733  0  0  0.087797  0.079502  0  0.989332  0
H  H13  1  0.49956236  0.79941901  0.08643174  1  0  0.05692  0  0.934551  0  0  0.079906  0  0.989695  0  0  0.08021  0  0.990727  0  0  0.087795  0.079509  0  0.98931  0
H  H14  1  0.21602878  0.01516842  0.84643641  1  0  0.097784  0  0.95113  0  0  0.108361  0  1.021108  0  0  0.110816  0  1.019449  0  0  0.098799  0.106512  0  1.022521  0
H  H15  1  0.78398119  0.98483130  0.15356007  1  0  0.097822  0  0.951088  0  0  0.108433  0  1.02108  0  0  0.110884  0  1.019417  0  0  0.098801  0.106584  0  1.022491  0
H  H16  1  0.03699924  0.25582361  0.79863741  1  0  0.109949  0  0.917409  0  0  0.126928  0  0.974598  0  0  0.129006  0  0.97366  0  0  0.107605  0.12532  0  0.975546  0
H  H17  1  0.96299992  0.74417950  0.20136038  1  0  0.109903  0  0.917432  0  0  0.126927  0  0.974634  0  0  0.128995  0  0.973691  0  0  0.107611  0.125321  0  0.975584  0
H  H18  1  0.96627113  0.06677818  0.61434305  1  0  0.414061  0  0.880568  0  0  0.386784  0  0.945619  0  0  0.395859  0  0.932365  0  0  0.309552  0.380316  0  0.955073  0
H  H19  1  0.03372359  0.93322036  0.38565846  1  0  0.414096  0  0.880544  0  0  0.386817  0  0.945579  0  0  0.39589  0  0.932328  0  0  0.309547  0.38035  0  0.955032  0
H  H20  1  0.03706931  0.24438061  0.49897211  1  0  0.415847  0  0.893037  0  0  0.383958  0  0.959706  0  0  0.395806  0  0.942289  0  0  0.305144  0.375513  0  0.972101  0
H  H21  1  0.96292911  0.75561621  0.50103120  1  0  0.41584  0  0.893036  0  0  0.383944  0  0.959718  0  0  0.395792  0  0.942301  0  0  0.305126  0.3755  0  0.972114  0
C  C22  1  0.13623600  0.28058227  0.26790848  1  0  0.73675  0  3.811025  0  0  0.690184  0  4.108546  0  0  0.723808  0  4.100509  0  0  0.234986  0.66724  0  4.113175  0
C  C23  1  0.86376341  0.71941926  0.73209043  1  0  0.736708  0  3.811062  0  0  0.690116  0  4.108616  0  0  0.723739  0  4.100576  0  0  0.234974  0.667175  0  4.11324  0
C  C24  1  0.27250558  0.31419445  0.13626559  1  0  -0.26983  0  3.677686  0  0  -0.311489  0  3.934197  0  0  -0.316963  0  3.942916  0  0  -0.158628  -0.307652  0  3.928054  0
C  C25  1  0.72749016  0.68580866  0.86373524  1  0  -0.269881  0  3.677719  0  0  -0.311502  0  3.934203  0  0  -0.316973  0  3.942918  0  0  -0.158648  -0.307654  0  3.928045  0
C  C26  1  0.17825721  0.23376064  0.03689777  1  0  -0.080537  0  3.705822  0  0  -0.122993  0  3.970319  0  0  -0.123143  0  3.985115  0  0  -0.167623  -0.122623  0  3.959915  0
C  C27  1  0.82174588  0.76623924  0.96310107  1  0  -0.080635  0  3.705993  0  0  -0.123082  0  3.970476  0  0  -0.123233  0  3.985273  0  0  -0.167672  -0.122712  0  3.96007  0
C  C28  1  0.31592112  0.27072632  0.90545571  1  0  -0.083198  0  3.688441  0  0  -0.125701  0  3.951526  0  0  -0.126541  0  3.96627  0  0  -0.161448  -0.12482  0  3.941099  0
C  C29  1  0.68408222  0.72927194  0.09454518  1  0  -0.083203  0  3.688364  0  0  -0.125641  0  3.951448  0  0  -0.126503  0  3.966193  0  0  -0.161455  -0.124762  0  3.941025  0
C  C30  1  0.21874958  0.18041269  0.81097434  1  0  -0.273613  0  3.66939  0  0  -0.313047  0  3.922546  0  0  -0.318358  0  3.929615  0  0  -0.159693  -0.309284  0  3.917591  0
C  C31  1  0.78125304  0.81959027  0.18902413  1  0  -0.273531  0  3.669221  0  0  -0.313153  0  3.922612  0  0  -0.318422  0  3.929624  0  0  -0.159695  -0.309383  0  3.917634  0
C  C32  1  0.34754604  0.21241429  0.67874135  1  0  0.760752  0  3.804446  0  0  0.718403  0  4.088565  0  0  0.753226  0  4.078992  0  0  0.237268  0.694482  0  4.094413  0
C  C33  1  0.65245525  0.78757491  0.32125906  1  0  0.760885  0  3.804118  0  0  0.718559  0  4.088274  0  0  0.75337  0  4.078697  0  0  0.237327  0.694642  0  4.09413  0
O  O34  1  0.94202783  0.21857241  0.28016740  1  0  -0.723187  0  1.965817  0  0  -0.659845  0  2.207131  0  0  -0.686787  0  2.196517  0  0  -0.363203  -0.640689  0  2.21395  0
O  O35  1  0.05796814  0.78142919  0.71983269  1  0  -0.723158  0  1.965841  0  0  -0.659815  0  2.207177  0  0  -0.686752  0  2.196564  0  0  -0.363211  -0.64066  0  2.213998  0
O  O36  1  0.22412602  0.31571891  0.36028066  1  0  -0.710389  0  1.984982  0  0  -0.647732  0  2.224471  0  0  -0.675409  0  2.213039  0  0  -0.353127  -0.627966  0  2.231614  0
O  O37  1  0.77587017  0.68428119  0.63971868  1  0  -0.710361  0  1.985019  0  0  -0.64766  0  2.224469  0  0  -0.675352  0  2.213082  0  0  -0.353081  -0.627893  0  2.231609  0
O  O38  1  0.38704180  0.39129372  0.62255422  1  0  -0.741566  0  1.976677  0  0  -0.675276  0  2.224486  0  0  -0.704961  0  2.213589  0  0  -0.391986  -0.654021  0  2.231308  0
O  O39  1  0.61295174  0.60871253  0.37744636  1  0  -0.741532  0  1.976764  0  0  -0.675265  0  2.224617  0  0  -0.704947  0  2.213715  0  0  -0.391966  -0.654021  0  2.231446  0
O  O40  1  0.41377056  0.06006754  0.62370545  1  0  -0.770042  0  2.008414  0  0  -0.70545  0  2.259829  0  0  -0.735753  0  2.250502  0  0  -0.397115  -0.68379  0  2.265623  0
O  O41  1  0.58623034  0.93993544  0.37629408  1  0  -0.770178  0  2.008027  0  0  -0.705551  0  2.2594  0  0  -0.735862  0  2.250081  0  0  -0.397182  -0.683892  0  2.265198  0
O  O42  1  0.90561058  0.20126473  0.56218320  1  0  -0.868291  0  1.834367  0  0  -0.818516  0  2.015903  0  0  -0.838117  0  1.984595  0  0  -0.616219  -0.804415  0  2.037813  0
O  O43  1  0.09438414  0.79873381  0.43781831  1  0  -0.868345  0  1.834375  0  0  -0.818548  0  2.015876  0  0  -0.838149  0  1.984578  0  0  -0.616192  -0.804439  0  2.03777  0
