# generated using pymatgen
data_MoH12C9(NO2)2
_symmetry_space_group_name_H-M   'P 1'
_cell_length_a   8.60880403
_cell_length_b   9.90091234
_cell_length_c   13.82960000
_cell_angle_alpha   90.00000000
_cell_angle_beta   90.00000000
_cell_angle_gamma   106.97419206
_symmetry_Int_Tables_number   1
_chemical_formula_structural   MoH12C9(NO2)2
_chemical_formula_sum   'Mo4 H48 C36 N8 O16'
_cell_volume   1127.41479792
_cell_formula_units_Z   4
loop_
 _symmetry_equiv_pos_site_id
 _symmetry_equiv_pos_as_xyz
  1  'x, y, z'
loop_
 _atom_site_type_symbol
 _atom_site_label
 _atom_site_symmetry_multiplicity
 _atom_site_fract_x
 _atom_site_fract_y
 _atom_site_fract_z
 _atom_site_occupancy
 _atom_site_hle17_bader_spin_density
 _atom_site_hle17_ddec_charge
 _atom_site_hle17_ddec_spin_density
 _atom_site_hle17_ddec_sum_bond_order
 _atom_site_hle17_magmom
 _atom_site_hse06_10hf_bader_spin_density
 _atom_site_hse06_10hf_ddec_charge
 _atom_site_hse06_10hf_ddec_spin_density
 _atom_site_hse06_10hf_ddec_sum_bond_order
 _atom_site_hse06_10hf_magmom
 _atom_site_hse06_bader_spin_density
 _atom_site_hse06_ddec_charge
 _atom_site_hse06_ddec_spin_density
 _atom_site_hse06_ddec_sum_bond_order
 _atom_site_hse06_magmom
 _atom_site_pbe_bader_charge
 _atom_site_pbe_bader_spin_density
 _atom_site_pbe_cm5_charge
 _atom_site_pbe_ddec_charge
 _atom_site_pbe_ddec_spin_density
 _atom_site_pbe_ddec_sum_bond_order
 _atom_site_pbe_magmom
Mo  Mo0  1  0.53406908  0.41005144  0.97669202  1  0  0.941142  0  3.584559  0  0  0.864519  0  4.188739  0  0  0.898119  0  4.174876  0  1.412724  0  0.784055  0.834004  0  4.210494  0
Mo  Mo1  1  0.96592923  0.58994513  0.47669130  1  0  0.941478  0  3.584413  0  0  0.864482  0  4.188731  0  0  0.898095  0  4.174864  0  1.412793  0  0.784059  0.833976  0  4.210487  0
Mo  Mo2  1  0.46592388  0.58996309  0.02331159  1  0  0.941587  0  3.584369  0  0  0.864572  0  4.188725  0  0  0.89818  0  4.174862  0  1.418175  0  0.784007  0.834083  0  4.210447  0
Mo  Mo3  1  0.03407607  0.41003348  0.52331015  1  0  0.941263  0  3.584437  0  0  0.864614  0  4.18864  0  0  0.898207  0  4.174781  0  1.418354  0  0.784007  0.834108  0  4.210379  0
H  H4  1  0.07520623  0.66427885  0.00848470  1  0  0.15367  0  0.95085  0  0  0.168058  0  1.013774  0  0  0.171492  0  1.011756  0  0.106701  0  0.101124  0.165656  0  1.015186  0
H  H5  1  0.42479230  0.33571350  0.50848615  1  0  0.153618  0  0.95083  0  0  0.168002  0  1.01378  0  0  0.171436  0  1.011762  0  0.106514  0  0.101098  0.1656  0  1.015191  0
H  H6  1  0.92479323  0.33571350  0.99151385  1  0  0.153657  0  0.950809  0  0  0.168012  0  1.013781  0  0  0.171446  0  1.011764  0  0.106529  0  0.101101  0.165611  0  1.015191  0
H  H7  1  0.57520600  0.66427885  0.49151385  1  0  0.153666  0  0.950862  0  0  0.168062  0  1.013777  0  0  0.171497  0  1.01176  0  0.106476  0  0.101118  0.165661  0  1.015189  0
H  H8  1  0.01885594  0.74849367  0.11083545  1  0  0.138479  0  0.962675  0  0  0.152128  0  1.030752  0  0  0.154071  0  1.03193  0  0.094507  0  0.099664  0.150511  0  1.030254  0
H  H9  1  0.48114572  0.25149762  0.61083401  1  0  0.138476  0  0.96274  0  0  0.152138  0  1.030801  0  0  0.154078  0  1.031983  0  0.094505  0  0.099688  0.150522  0  1.030301  0
H  H10  1  0.98114826  0.25149551  0.88916382  1  0  0.138451  0  0.962775  0  0  0.15212  0  1.030822  0  0  0.15406  0  1.032002  0  0.094478  0  0.09968  0.150503  0  1.030324  0
H  H11  1  0.51885258  0.74849472  0.38916382  1  0  0.138467  0  0.962654  0  0  0.152107  0  1.030749  0  0  0.154048  0  1.03193  0  0.094502  0  0.099665  0.15049  0  1.030252  0
H  H12  1  0.02611496  0.82833554  0.99578368  1  0  0.130542  0  0.932768  0  0  0.149039  0  0.991669  0  0  0.151376  0  0.990754  0  0.039331  0  0.096265  0.147239  0  0.992487  0
H  H13  1  0.47388393  0.17165786  0.49578730  1  0  0.130523  0  0.932793  0  0  0.149017  0  0.991699  0  0  0.151352  0  0.990787  0  0.038874  0  0.096294  0.147217  0  0.992517  0
H  H14  1  0.97388753  0.17165892  0.00421270  1  0  0.130508  0  0.932782  0  0  0.149008  0  0.991678  0  0  0.151343  0  0.990767  0  0.038862  0  0.096279  0.14721  0  0.992494  0
H  H15  1  0.52611204  0.82833448  0.50421487  1  0  0.130529  0  0.932818  0  0  0.14904  0  0.99171  0  0  0.151376  0  0.990796  0  0.038921  0  0.096274  0.14724  0  0.992528  0
H  H16  1  0.60233628  0.43472515  0.32913606  1  0  0.157361  0  0.94243  0  0  0.173256  0  1.004046  0  0  0.176564  0  1.002985  0  0.109707  0  0.105458  0.170994  0  1.004728  0
H  H17  1  0.89766739  0.56527353  0.82913533  1  0  0.157354  0  0.942429  0  0  0.173243  0  1.004051  0  0  0.176554  0  1.002986  0  0.109731  0  0.105442  0.170982  0  1.004733  0
H  H18  1  0.39766798  0.56527459  0.67086322  1  0  0.157371  0  0.942456  0  0  0.17326  0  1.004076  0  0  0.17657  0  1.003012  0  0.109729  0  0.105448  0.170998  0  1.004759  0
H  H19  1  0.10233187  0.43472515  0.17086467  1  0  0.157348  0  0.942434  0  0  0.173236  0  1.004048  0  0  0.176546  0  1.002984  0  0.109741  0  0.105431  0.170975  0  1.004731  0
H  H20  1  0.51276381  0.25490326  0.29437077  1  0  0.130262  0  0.952795  0  0  0.150562  0  1.010801  0  0  0.152205  0  1.011127  0  0.063749  0  0.096344  0.149302  0  1.010717  0
H  H21  1  0.98723673  0.74509648  0.79436788  1  0  0.130267  0  0.952779  0  0  0.150552  0  1.010802  0  0  0.152196  0  1.011127  0  0.063919  0  0.096328  0.149291  0  1.010719  0
H  H22  1  0.48723768  0.74509859  0.70563068  1  0  0.130265  0  0.952794  0  0  0.150553  0  1.010811  0  0  0.152197  0  1.011136  0  0.063896  0  0.096335  0.149293  0  1.010727  0
H  H23  1  0.01276137  0.25490220  0.20562851  1  0  0.130302  0  0.952759  0  0  0.150566  0  1.010799  0  0  0.15221  0  1.011125  0  0.063738  0  0.09635  0.149308  0  1.010714  0
H  H24  1  0.38887698  0.36581300  0.32630083  1  0  0.14959  0  0.926711  0  0  0.169801  0  0.981061  0  0  0.17281  0  0.979731  0  0.076351  0  0.104674  0.167611  0  0.982205  0
H  H25  1  0.11112403  0.63418674  0.82630011  1  0  0.149596  0  0.926791  0  0  0.16981  0  0.98113  0  0  0.172817  0  0.979802  0  0.076338  0  0.104689  0.167619  0  0.982273  0
H  H26  1  0.61112264  0.63418674  0.67369917  1  0  0.149643  0  0.926761  0  0  0.169858  0  0.98109  0  0  0.172867  0  0.97976  0  0.076366  0  0.104713  0.167668  0  0.982234  0
H  H27  1  0.88887442  0.36581300  0.17369700  1  0  0.149608  0  0.926797  0  0  0.169823  0  0.981126  0  0  0.172831  0  0.979799  0  0.076307  0  0.104686  0.167634  0  0.982271  0
H  H28  1  0.61296832  0.90588164  0.98789770  1  0  0.110997  0  0.980092  0  0  0.117574  0  1.049843  0  0  0.122231  0  1.045299  0  0.103363  0  0.105456  0.114376  0  1.052861  0
H  H29  1  0.88703319  0.09412443  0.48789987  1  0  0.110946  0  0.980124  0  0  0.11755  0  1.049873  0  0  0.122178  0  1.045362  0  0.103263  0  0.105435  0.114351  0  1.052891  0
H  H30  1  0.38702807  0.09412232  0.01210230  1  0  0.110964  0  0.980068  0  0  0.117563  0  1.049823  0  0  0.122198  0  1.045303  0  0.103705  0  0.105433  0.114365  0  1.05284  0
H  H31  1  0.11297017  0.90587953  0.51210447  1  0  0.110971  0  0.980069  0  0  0.117549  0  1.049843  0  0  0.122199  0  1.045307  0  0.103307  0  0.10545  0.114351  0  1.052861  0
H  H32  1  0.67189536  0.34546682  0.74883366  1  0  0.10464  0  0.964879  0  0  0.114957  0  1.022938  0  0  0.118358  0  1.020938  0  0.104573  0  0.114229  0.112661  0  1.024069  0
H  H33  1  0.82810767  0.65454031  0.24883366  1  0  0.104631  0  0.964886  0  0  0.11496  0  1.022933  0  0  0.118362  0  1.020927  0  0.104422  0  0.114224  0.112668  0  1.024052  0
H  H34  1  0.32810800  0.65453714  0.25116562  1  0  0.104658  0  0.964909  0  0  0.115  0  1.022928  0  0  0.118402  0  1.020926  0  0.104354  0  0.114253  0.112704  0  1.024059  0
H  H35  1  0.17189675  0.34546682  0.75116706  1  0  0.104621  0  0.964901  0  0  0.114937  0  1.022963  0  0  0.118338  0  1.020963  0  0.10458  0  0.114239  0.112641  0  1.024094  0
H  H36  1  0.83778865  0.15650621  0.69176621  1  0  0.123592  0  0.992434  0  0  0.127499  0  1.061034  0  0  0.13119  0  1.058687  0  0.141607  0  0.11864  0.124762  0  1.062862  0
H  H37  1  0.66221135  0.84349881  0.19176766  1  0  0.123575  0  0.99246  0  0  0.127478  0  1.061058  0  0  0.131169  0  1.058711  0  0.141605  0  0.118642  0.12474  0  1.062889  0
H  H38  1  0.16221052  0.84349564  0.30823307  1  0  0.123572  0  0.992457  0  0  0.127487  0  1.061039  0  0  0.131178  0  1.058691  0  0.141618  0  0.118646  0.124749  0  1.062869  0
H  H39  1  0.33779343  0.15650937  0.80823451  1  0  0.123519  0  0.992538  0  0  0.127422  0  1.061137  0  0  0.131113  0  1.05879  0  0.141524  0  0.118629  0.124688  0  1.062959  0
H  H40  1  0.81286612  0.90110425  0.74863264  1  0  0.109902  0  0.921848  0  0  0.133644  0  0.978154  0  0  0.134619  0  0.978006  0  0.071699  0  0.112948  0.132773  0  0.97849  0
H  H41  1  0.68713084  0.09889866  0.24863409  1  0  0.109909  0  0.92184  0  0  0.133668  0  0.978126  0  0  0.134643  0  0.977978  0  0.071718  0  0.112955  0.132796  0  0.97846  0
H  H42  1  0.18712956  0.09889760  0.25136736  1  0  0.109897  0  0.921854  0  0  0.133656  0  0.978144  0  0  0.134632  0  0.977996  0  0.071691  0  0.112958  0.132785  0  0.978478  0
H  H43  1  0.31287252  0.90110530  0.75136808  1  0  0.109927  0  0.921843  0  0  0.133681  0  0.978136  0  0  0.134658  0  0.977986  0  0.071673  0  0.112961  0.13281  0  0.978471  0
H  H44  1  0.72775624  0.84660665  0.86502863  1  0  0.113052  0  0.968185  0  0  0.131738  0  1.032432  0  0  0.133101  0  1.032347  0  0.102543  0  0.109976  0.130889  0  1.032382  0
H  H45  1  0.77223875  0.15339731  0.36503008  1  0  0.113032  0  0.96817  0  0  0.13172  0  1.032422  0  0  0.133083  0  1.032332  0  0.102966  0  0.109966  0.130872  0  1.03237  0
H  H46  1  0.27223828  0.15339520  0.13497137  1  0  0.113026  0  0.968193  0  0  0.131716  0  1.032445  0  0  0.133078  0  1.032356  0  0.103005  0  0.109961  0.130868  0  1.032393  0
H  H47  1  0.22776148  0.84660771  0.63497281  1  0  0.112949  0  0.968313  0  0  0.131678  0  1.032502  0  0  0.133043  0  1.032418  0  0.102597  0  0.109937  0.130829  0  1.032451  0
H  H48  1  0.92407440  0.97338296  0.85489385  1  0  0.094282  0  0.933606  0  0  0.113868  0  0.99978  0  0  0.114717  0  0.999576  0  0.049681  0  0.103486  0.113472  0  0.999682  0
H  H49  1  0.57591988  0.02661889  0.35489457  1  0  0.094334  0  0.933501  0  0  0.1139  0  0.999703  0  0  0.114749  0  0.9995  0  0.049987  0  0.103503  0.113503  0  0.999607  0
H  H50  1  0.07591941  0.02661677  0.14510615  1  0  0.094334  0  0.933563  0  0  0.113907  0  0.99976  0  0  0.114756  0  0.999557  0  0.049988  0  0.103499  0.113511  0  0.999662  0
H  H51  1  0.42408115  0.97338508  0.64510687  1  0  0.094253  0  0.933625  0  0  0.113832  0  0.999817  0  0  0.11468  0  0.999616  0  0.050046  0  0.10347  0.113436  0  0.99972  0
C  C52  1  0.82141561  0.64708804  0.01909310  1  0  0.70071  0  3.769624  0  0  0.660751  0  4.066298  0  0  0.695687  0  4.058906  0  1.440428  0  0.202875  0.637087  0  4.069733  0
C  C53  1  0.67858549  0.35290642  0.51909310  1  0  0.700918  0  3.769645  0  0  0.660917  0  4.066366  0  0  0.695854  0  4.05897  0  1.4404  0  0.202937  0.637251  0  4.069802  0
C  C54  1  0.17858734  0.35290431  0.98090545  1  0  0.70086  0  3.769714  0  0  0.660873  0  4.06643  0  0  0.695811  0  4.059036  0  1.440483  0  0.202972  0.637206  0  4.069865  0
C  C55  1  0.32141190  0.64709015  0.48090617  1  0  0.700825  0  3.769736  0  0  0.660855  0  4.066425  0  0  0.695791  0  4.059031  0  1.440398  0  0.202944  0.63719  0  4.06986  0
C  C56  1  0.99653843  0.72621604  0.03336177  1  0  -0.448116  0  3.658498  0  0  -0.519889  0  3.891939  0  0  -0.527705  0  3.894709  0  -0.085571  0  -0.244072  -0.514531  0  3.890475  0
C  C57  1  0.50346347  0.27377736  0.53336250  1  0  -0.448075  0  3.658542  0  0  -0.519843  0  3.892005  0  0  -0.527656  0  3.894779  0  -0.084937  0  -0.244107  -0.514485  0  3.890541  0
C  C58  1  0.00346371  0.27377736  0.96663606  1  0  -0.448073  0  3.658557  0  0  -0.519823  0  3.892028  0  0  -0.527636  0  3.894802  0  -0.084902  0  -0.244072  -0.514466  0  3.890561  0
C  C59  1  0.49653634  0.72621604  0.46663750  1  0  -0.448109  0  3.6585  0  0  -0.519895  0  3.891968  0  0  -0.527709  0  3.894739  0  -0.084901  0  -0.244075  -0.514536  0  3.890506  0
C  C60  1  0.50127845  0.40795209  0.18692804  1  0  0.702076  0  3.786513  0  0  0.658209  0  4.091448  0  0  0.693337  0  4.083704  0  1.473264  0  0.201158  0.634606  0  4.094925  0
C  C61  1  0.99872067  0.59204343  0.68692732  1  0  0.70236  0  3.786381  0  0  0.658444  0  4.091364  0  0  0.693573  0  4.083616  0  1.473273  0  0.201287  0.634841  0  4.094844  0
C  C62  1  0.49872359  0.59204448  0.81307124  1  0  0.702396  0  3.786292  0  0  0.658495  0  4.091248  0  0  0.693624  0  4.0835  0  1.473314  0  0.201314  0.634892  0  4.094727  0
C  C63  1  0.00127439  0.40795314  0.31306907  1  0  0.702246  0  3.786252  0  0  0.658369  0  4.091182  0  0  0.693497  0  4.083436  0  1.473287  0  0.20127  0.634767  0  4.094661  0
C  C64  1  0.50092159  0.36180332  0.28998742  1  0  -0.45254  0  3.653523  0  0  -0.524251  0  3.882435  0  0  -0.532074  0  3.884738  0  -0.1227  0  -0.243432  -0.519175  0  3.88131  0
C  C65  1  0.99908012  0.63819642  0.78998597  1  0  -0.452578  0  3.653556  0  0  -0.524257  0  3.882472  0  0  -0.53208  0  3.884773  0  -0.122828  0  -0.243414  -0.519181  0  3.881348  0
C  C66  1  0.49907954  0.63819747  0.71001330  1  0  -0.452642  0  3.653618  0  0  -0.524327  0  3.882532  0  0  -0.532151  0  3.884834  0  -0.122858  0  -0.243447  -0.519251  0  3.881409  0
C  C67  1  0.00091763  0.36180121  0.21001114  1  0  -0.452582  0  3.653544  0  0  -0.524262  0  3.88246  0  0  -0.532085  0  3.884763  0  -0.122726  0  -0.243408  -0.519191  0  3.881338  0
C  C68  1  0.62591219  0.08056630  0.89060421  1  0  0.283475  0  3.789285  0  0  0.261239  0  4.049221  0  0  0.272605  0  4.065859  0  0.916268  0  0.19888  0.253285  0  4.037337  0
C  C69  1  0.87408780  0.91943872  0.39060638  1  0  0.283318  0  3.789402  0  0  0.261081  0  4.049361  0  0  0.272446  0  4.065994  0  0.916435  0  0.198766  0.253126  0  4.037477  0
C  C70  1  0.37408536  0.91943766  0.10939434  1  0  0.283258  0  3.789485  0  0  0.261049  0  4.049388  0  0  0.272414  0  4.066024  0  0.916246  0  0.19877  0.253093  0  4.037505  0
C  C71  1  0.12591404  0.08056418  0.60939723  1  0  0.283347  0  3.789407  0  0  0.261126  0  4.049332  0  0  0.272491  0  4.065968  0  0.915869  0  0.198822  0.253171  0  4.037447  0
C  C72  1  0.56100714  0.99146822  0.97178588  1  0  -0.149281  0  3.753486  0  0  -0.173324  0  4.017315  0  0  -0.173022  0  4.029735  0  -0.068427  0  -0.093477  -0.172257  0  4.007097  0
C  C73  1  0.93899018  0.00853574  0.47178949  1  0  -0.149145  0  3.753303  0  0  -0.173218  0  4.017105  0  0  -0.172894  0  4.029543  0  0.02826  0  -0.093428  -0.172153  0  4.006896  0
C  C74  1  0.43898809  0.00853574  0.02821195  1  0  -0.149038  0  3.753354  0  0  -0.173117  0  4.017142  0  0  -0.1728  0  4.029579  0  0.027806  0  -0.093354  -0.172052  0  4.006932  0
C  C75  1  0.06100783  0.99146611  0.52821557  1  0  -0.149156  0  3.753322  0  0  -0.173211  0  4.017144  0  0  -0.172905  0  4.029564  0  -0.068471  0  -0.093428  -0.172144  0  4.006928  0
C  C76  1  0.67658624  0.24799272  0.78254613  1  0  0.010237  0  3.772747  0  0  -0.024119  0  4.05567  0  0  -0.022553  0  4.072766  0  0.42563  0  -0.004054  -0.024204  0  4.042508  0
C  C77  1  0.82341411  0.75201335  0.28254830  1  0  0.010076  0  3.772896  0  0  -0.024302  0  4.055815  0  0  -0.022738  0  4.072912  0  0.425488  0  -0.004095  -0.024385  0  4.042656  0
C  C78  1  0.32341631  0.75201230  0.21745387  1  0  0.010102  0  3.772792  0  0  -0.024279  0  4.055724  0  0  -0.022715  0  4.072821  0  0.425448  0  -0.004104  -0.024364  0  4.042564  0
C  C79  1  0.17658880  0.24799272  0.71745531  1  0  0.010267  0  3.772734  0  0  -0.02409  0  4.055651  0  0  -0.022524  0  4.072747  0  0.4256  0  -0.00406  -0.024175  0  4.04249  0
C  C80  1  0.75812416  0.15451140  0.75283522  1  0  -0.070273  0  3.670745  0  0  -0.11182  0  3.93369  0  0  -0.110134  0  3.951145  0  0.340092  0  -0.003639  -0.113128  0  3.921842  0
C  C81  1  0.74187502  0.84549467  0.25283739  1  0  -0.070154  0  3.670919  0  0  -0.111676  0  3.93383  0  0  -0.10999  0  3.951288  0  0.340334  0  -0.003592  -0.112986  0  3.921984  0
C  C82  1  0.24187652  0.84549150  0.24716478  1  0  -0.070226  0  3.670853  0  0  -0.111773  0  3.933796  0  0  -0.110086  0  3.951252  0  0.340473  0  -0.003684  -0.113081  0  3.921949  0
C  C83  1  0.25812824  0.15451246  0.74716622  1  0  -0.070203  0  3.670776  0  0  -0.111737  0  3.933723  0  0  -0.110052  0  3.951179  0  0.340113  0  -0.003598  -0.113045  0  3.921874  0
C  C84  1  0.80191914  0.93571080  0.82298403  1  0  -0.165441  0  3.642169  0  0  -0.268379  0  3.889433  0  0  -0.265419  0  3.898386  0  0.258731  0  -0.127297  -0.270354  0  3.883116  0
C  C85  1  0.69807549  0.06429210  0.32298620  1  0  -0.165522  0  3.642048  0  0  -0.268459  0  3.88934  0  0  -0.265493  0  3.898285  0  0.258191  0  -0.127325  -0.270432  0  3.883022  0
C  C86  1  0.19807386  0.06428999  0.17701524  1  0  -0.165508  0  3.642116  0  0  -0.268462  0  3.889393  0  0  -0.265498  0  3.898342  0  0.258201  0  -0.127323  -0.270436  0  3.883075  0
C  C87  1  0.30192590  0.93571292  0.67701669  1  0  -0.165396  0  3.64225  0  0  -0.268357  0  3.88949  0  0  -0.265399  0  3.898441  0  0.258409  0  -0.127256  -0.270331  0  3.883173  0
N  N88  1  0.59553063  0.20259478  0.86747050  1  0  -0.426256  0  3.097478  0  0  -0.383585  0  3.378309  0  0  -0.397062  0  3.391251  0  -1.227589  0  -0.347606  -0.373179  0  3.368635  0
N  N89  1  0.90447240  0.79741235  0.36747194  1  0  -0.426152  0  3.097538  0  0  -0.383467  0  3.378346  0  0  -0.396947  0  3.391298  0  -1.227724  0  -0.34755  -0.373062  0  3.368671  0
N  N90  1  0.40447228  0.79741129  0.13252878  1  0  -0.426165  0  3.097454  0  0  -0.383499  0  3.378286  0  0  -0.396977  0  3.391232  0  -1.227548  0  -0.347557  -0.373095  0  3.368612  0
N  N91  1  0.09553131  0.20259267  0.63253095  1  0  -0.426268  0  3.097516  0  0  -0.3836  0  3.378354  0  0  -0.397077  0  3.391297  0  -1.227174  0  -0.347604  -0.373194  0  3.368678  0
N  N92  1  0.72627629  0.04917529  0.82148074  1  0  -0.079463  0  3.556887  0  0  0.021606  0  3.767639  0  0  0.007058  0  3.794979  0  -1.234973  0  -0.248743  0.031884  0  3.748772  0
N  N93  1  0.77372102  0.95082867  0.32148291  1  0  -0.07937  0  3.557071  0  0  0.021687  0  3.767816  0  0  0.00714  0  3.795158  0  -1.235026  0  -0.248686  0.031965  0  3.748949  0
N  N94  1  0.27372055  0.95082655  0.17851854  1  0  -0.079314  0  3.556975  0  0  0.021757  0  3.767692  0  0  0.007209  0  3.795034  0  -1.235192  0  -0.248634  0.032035  0  3.748824  0
N  N95  1  0.22628037  0.04917635  0.67852071  1  0  -0.079343  0  3.556872  0  0  0.021708  0  3.767629  0  0  0.007162  0  3.794969  0  -1.234999  0  -0.248732  0.031984  0  3.748763  0
O  O96  1  0.78154450  0.51751013  0.99065700  1  0  -0.582849  0  2.149142  0  0  -0.532162  0  2.415462  0  0  -0.558592  0  2.410854  0  -1.160298  0  -0.333863  -0.512778  0  2.417686  0
O  O97  1  0.71845427  0.48248433  0.49065772  1  0  -0.582912  0  2.14914  0  0  -0.532216  0  2.415514  0  0  -0.558647  0  2.410908  0  -1.160241  0  -0.333875  -0.512831  0  2.417739  0
O  O98  1  0.21845577  0.48248116  0.00934156  1  0  -0.582948  0  2.149235  0  0  -0.532246  0  2.415594  0  0  -0.558678  0  2.410988  0  -1.160279  0  -0.333913  -0.512862  0  2.417817  0
O  O99  1  0.28154428  0.51751224  0.50934083  1  0  -0.582947  0  2.149211  0  0  -0.532247  0  2.415532  0  0  -0.558679  0  2.410927  0  -1.160399  0  -0.33391  -0.512862  0  2.417755  0
O  O100  1  0.53879364  0.33426570  0.11860647  1  0  -0.598053  0  2.123767  0  0  -0.550272  0  2.392084  0  0  -0.576864  0  2.387147  0  -1.160719  0  -0.342521  -0.530884  0  2.394407  0
O  O101  1  0.96120468  0.66573087  0.61860647  1  0  -0.598212  0  2.123707  0  0  -0.550402  0  2.392054  0  0  -0.576996  0  2.387117  0  -1.160666  0  -0.342599  -0.531015  0  2.394378  0
O  O102  1  0.46120572  0.66572981  0.88139281  1  0  -0.598299  0  2.123792  0  0  -0.550498  0  2.392136  0  0  -0.577092  0  2.387199  0  -1.160704  0  -0.342629  -0.531113  0  2.394457  0
O  O103  1  0.03879110  0.33426782  0.38139064  1  0  -0.59821  0  2.12374  0  0  -0.550432  0  2.392068  0  0  -0.577024  0  2.38713  0  -1.160686  0  -0.342612  -0.531046  0  2.39439  0
O  O104  1  0.71207548  0.70908542  0.03679571  1  0  -0.598366  0  2.148866  0  0  -0.549196  0  2.418801  0  0  -0.576728  0  2.415503  0  -1.16341  0  -0.337385  -0.529325  0  2.420556  0
O  O105  1  0.78792748  0.29091115  0.53679571  1  0  -0.598491  0  2.14895  0  0  -0.54931  0  2.418916  0  0  -0.576838  0  2.415613  0  -1.16344  0  -0.337426  -0.52944  0  2.420683  0
O  O106  1  0.28793085  0.29091009  0.96320356  1  0  -0.598356  0  2.148894  0  0  -0.549202  0  2.418877  0  0  -0.576729  0  2.415571  0  -1.163592  0  -0.337436  -0.529336  0  2.420656  0
O  O107  1  0.21206991  0.70908542  0.46320356  1  0  -0.598311  0  2.148934  0  0  -0.549171  0  2.418945  0  0  -0.5767  0  2.415643  0  -1.163618  0  -0.337404  -0.529296  0  2.4207  0
O  O108  1  0.46434514  0.52172150  0.16839750  1  0  -0.583625  0  2.16244  0  0  -0.531499  0  2.428123  0  0  -0.559438  0  2.426415  0  -1.158239  0  -0.329147  -0.511354  0  2.428168  0
O  O109  1  0.03565516  0.47827612  0.66839605  1  0  -0.583728  0  2.162419  0  0  -0.531604  0  2.428137  0  0  -0.559542  0  2.426428  0  -1.158313  0  -0.32919  -0.511458  0  2.428184  0
O  O110  1  0.53565689  0.47827507  0.83160395  1  0  -0.583725  0  2.162367  0  0  -0.531601  0  2.428077  0  0  -0.55954  0  2.426368  0  -1.158315  0  -0.329213  -0.511454  0  2.428125  0
O  O111  1  0.96434026  0.52172150  0.33160250  1  0  -0.583651  0  2.162288  0  0  -0.531506  0  2.427983  0  0  -0.559445  0  2.426271  0  -1.158306  0  -0.329189  -0.511361  0  2.42803  0
