# generated using pymatgen
data_Al3H19(C3O)14
_symmetry_space_group_name_H-M   'P 1'
_cell_length_a   12.88289329
_cell_length_b   12.89924343
_cell_length_c   28.59774047
_cell_angle_alpha   89.99702668
_cell_angle_beta   89.92815716
_cell_angle_gamma   120.85979940
_symmetry_Int_Tables_number   1
_chemical_formula_structural   Al3H19(C3O)14
_chemical_formula_sum   'Al6 H38 C84 O28'
_cell_volume   4079.54048976
_cell_formula_units_Z   2
loop_
 _symmetry_equiv_pos_site_id
 _symmetry_equiv_pos_as_xyz
  1  'x, y, z'
loop_
 _atom_site_type_symbol
 _atom_site_label
 _atom_site_symmetry_multiplicity
 _atom_site_fract_x
 _atom_site_fract_y
 _atom_site_fract_z
 _atom_site_occupancy
 _atom_site_pbe_bader_charge
 _atom_site_pbe_bader_spin_density
 _atom_site_pbe_cm5_charge
 _atom_site_pbe_ddec_charge
 _atom_site_pbe_ddec_spin_density
 _atom_site_pbe_ddec_sum_bond_order
 _atom_site_pbe_magmom
Al  Al0  1  0.47497916  0.22939154  0.50148291  1  2.491679  0  0.399199  1.681446  0  2.555932  0
Al  Al1  1  0.73098555  0.24344919  0.50063166  1  2.475242  0  0.507864  1.661125  0  2.509442  0
Al  Al2  1  0.73200400  0.47673989  0.50029372  1  2.482464  0  0.505502  1.659493  0  2.517697  0
Al  Al3  1  0.22842415  0.47525029  0.99916077  1  2.493307  0  0.399196  1.68209  0  2.5537  0
Al  Al4  1  0.24371492  0.73182133  0.00068519  1  2.478512  0  0.507941  1.661108  0  2.509523  0
Al  Al5  1  0.47628554  0.73116247  0.00025018  1  2.482848  0  0.505275  1.661565  0  2.5162  0
H  H6  1  0.96569487  0.66947587  0.77514201  1  0.061207  0  0.10472  0.093843  0  0.988117  0
H  H7  1  0.69519311  0.13804030  0.20726896  1  0.070115  0  0.104252  0.09403  0  0.991285  0
H  H8  1  0.44997890  0.31778443  0.21100973  1  0.081307  0  0.103641  0.093088  0  0.990647  0
H  H9  1  0.86177512  0.55774890  0.21622084  1  0.075318  0  0.103567  0.093187  0  0.99526  0
H  H10  1  0.78986105  0.45304389  0.73072597  1  0.08879  0  0.100257  0.087378  0  1.012752  0
H  H11  1  0.55800707  0.34971069  0.73479878  1  0.063541  0  0.099218  0.085567  0  1.010096  0
H  H12  1  0.66527091  0.20989589  0.73804970  1  0.045805  0  0.099534  0.086537  0  1.01453  0
H  H13  1  0.45308578  0.79040535  0.23098073  1  0.09291  0  0.100465  0.087907  0  1.011294  0
H  H14  1  0.34842200  0.55771944  0.23532776  1  0.065527  0  0.098863  0.085283  0  1.011664  0
H  H15  1  0.20876464  0.66430798  0.23730891  1  0.0599  0  0.099621  0.08645  0  1.014581  0
H  H16  1  0.85946422  0.31991346  0.78906526  1  0.063257  0  0.104655  0.094638  0  0.992449  0
H  H17  1  0.34616749  0.31215071  0.78096456  1  0.083692  0  0.105736  0.095441  0  0.985828  0
H  H18  1  0.69844408  0.55964417  0.79049416  1  0.059103  0  0.103219  0.093011  0  0.994469  0
H  H19  1  0.45207163  0.13794987  0.79108697  1  0.080592  0  0.105088  0.094888  0  0.990093  0
H  H20  1  0.31745772  0.85864245  0.28855150  1  0.028038  0  0.103949  0.093446  0  0.994056  0
H  H21  1  0.55984925  0.69808180  0.29027413  1  0.067994  0  0.103195  0.093124  0  0.992855  0
H  H22  1  0.13787804  0.45169812  0.29042662  1  0.054555  0  0.104385  0.094264  0  0.992283  0
H  H23  1  0.03051629  0.34617433  0.72029404  1  0.068293  0  0.105949  0.095399  0  0.984791  0
H  H24  1  0.67179116  0.70097714  0.72053165  1  0.06849  0  0.103918  0.09307  0  0.988313  0
H  H25  1  0.31451380  0.96581446  0.72091115  1  0.092824  0  0.1062  0.096378  0  0.985191  0
H  H26  1  0.34462943  0.02954607  0.21959813  1  0.056632  0  0.104946  0.094347  0  0.9865  0
H  H27  1  0.69905141  0.66967362  0.21972048  1  0.070487  0  0.103565  0.092834  0  0.989079  0
H  H28  1  0.69712808  0.03574529  0.78636996  1  0.081755  0  0.106139  0.096409  0  0.984991  0
H  H29  1  0.96485682  0.31336305  0.22060858  1  0.081664  0  0.104919  0.09439  0  0.987052  0
H  H30  1  0.20656387  0.56243830  0.76458452  1  0.068073  0  0.100429  0.08688  0  1.00839  0
H  H31  1  0.45953476  0.66294958  0.76669089  1  0.065355  0  0.098757  0.084795  0  1.01458  0
H  H32  1  0.34620512  0.79171194  0.76938599  1  0.061998  0  0.100262  0.086619  0  1.011717  0
H  H33  1  0.55935332  0.20622072  0.26465794  1  0.068171  0  0.100201  0.086931  0  1.007525  0
H  H34  1  0.66114360  0.45779243  0.26601667  1  0.051742  0  0.098575  0.084544  0  1.015307  0
H  H35  1  0.79104119  0.34498951  0.26945672  1  0.058161  0  0.100247  0.087042  0  1.011386  0
H  H36  1  0.66794126  0.96690751  0.27616676  1  0.06253  0  0.104026  0.093089  0  0.98921  0
H  H37  1  0.31087623  0.34619789  0.28158749  1  0.076973  0  0.104023  0.093147  0  0.987905  0
H  H38  1  0.03482492  0.69603581  0.28605392  1  0.090376  0  0.105546  0.095593  0  0.985709  0
H  H39  1  0.13700266  0.69584559  0.70645326  1  0.051613  0  0.105503  0.095583  0  0.988833  0
H  H40  1  0.31947361  0.45327064  0.71093842  1  0.088962  0  0.103993  0.093096  0  0.990837  0
H  H41  1  0.55953060  0.86345110  0.71624835  1  0.048579  0  0.103775  0.093699  0  0.994396  0
H  H42  1  0.27778812  0.13987257  0.47298135  1  0.591195  0  0.293306  0.3832  0  0.922733  0
H  H43  1  0.11043371  0.27828023  0.02728404  1  0.592432  0  0.293019  0.382868  0  0.923244  0
C  C44  1  0.56142410  0.44009240  0.56718439  1  1.671582  0  0.2777  0.709135  0  4.169097  0
C  C45  1  0.49173296  0.97813563  0.20048857  1  0.089297  0  0.009349  0.118065  0  3.794077  0
C  C46  1  0.49583336  0.51994264  0.20337026  1  0.136581  0  0.00842  0.124861  0  3.802308  0
C  C47  1  0.01935180  0.51611833  0.20575232  1  0.127492  0  0.00923  0.124433  0  3.788745  0
C  C48  1  0.92066458  0.40300330  0.77011407  1  -0.017974  0  -0.068209  -0.078187  0  3.627014  0
C  C49  1  0.61467077  0.53607265  0.77222651  1  -0.014833  0  -0.068993  -0.07898  0  3.633709  0
C  C50  1  0.47594299  0.07729368  0.77388803  1  -0.016873  0  -0.067244  -0.0764  0  3.627695  0
C  C51  1  0.40099811  0.92031975  0.26992087  1  0.025327  0  -0.068964  -0.078675  0  3.629283  0
C  C52  1  0.53548383  0.61401101  0.27208328  1  -0.022151  0  -0.069627  -0.079884  0  3.631758  0
C  C53  1  0.07684955  0.47527292  0.27337278  1  0.001104  0  -0.067718  -0.077395  0  3.630237  0
C  C54  1  0.88253570  0.47747937  0.73897605  1  -0.047917  0  -0.066957  -0.075045  0  3.62564  0
C  C55  1  0.56150625  0.10950917  0.56835241  1  1.658723  0  0.279449  0.707902  0  4.16769  0
C  C56  1  0.53626257  0.41952069  0.74253200  1  -0.022582  0  -0.068643  -0.078133  0  3.630805  0
C  C57  1  0.59430083  0.11679352  0.74551260  1  -0.00411  0  -0.067838  -0.077084  0  3.626156  0
C  C58  1  0.47680939  0.88286061  0.23918227  1  -0.051322  0  -0.067467  -0.076358  0  3.6253  0
C  C59  1  0.41809853  0.53560421  0.24280009  1  -0.035194  0  -0.069026  -0.078887  0  3.633641  0
C  C60  1  0.11575761  0.59326360  0.24494770  1  -0.02711  0  -0.068943  -0.0775  0  3.626854  0
C  C61  1  0.04202092  0.53801630  0.84375047  1  -0.379104  0  -0.025598  -0.039996  0  4.076866  0
C  C62  1  0.48292682  0.52677276  0.84634259  1  -0.601236  0  -0.023686  -0.036256  0  4.081042  0
C  C63  1  0.47792214  0.95530717  0.84949907  1  -0.517926  0  -0.012751  -0.014539  0  4.056525  0
C  C64  1  0.53449802  0.04215316  0.34395232  1  -0.290497  0  -0.028961  -0.04652  0  4.081363  0
C  C65  1  0.52683439  0.48274472  0.34622807  1  -0.466185  0  -0.027279  -0.042249  0  4.086703  0
C  C66  1  0.87442567  0.43413490  0.56478080  1  1.641792  0  0.282834  0.721451  0  4.155058  0
C  C67  1  0.95544873  0.47752085  0.34927462  1  -0.535686  0  -0.015064  -0.020097  0  4.061854  0
C  C68  1  0.95282586  0.47589247  0.65194646  1  -0.424274  0  -0.012875  -0.015185  0  4.056796  0
C  C69  1  0.53358716  0.48579984  0.65499028  1  -0.464835  0  -0.025247  -0.04007  0  4.082978  0
C  C70  1  0.53160094  0.04406286  0.65749969  1  -0.517391  0  -0.025316  -0.039094  0  4.076319  0
C  C71  1  0.47689818  0.95299505  0.15206184  1  -0.032186  0  -0.015053  -0.019549  0  4.060207  0
C  C72  1  0.48212871  0.53138899  0.15500292  1  -0.527548  0  -0.02825  -0.045432  0  4.087873  0
C  C73  1  0.04190533  0.53013648  0.15705484  1  -0.48859  0  -0.02697  -0.042575  0  4.078451  0
C  C74  1  0.56073950  0.44029961  0.43379279  1  1.659292  0  0.275107  0.712285  0  4.165613  0
C  C75  1  0.56144462  0.10970227  0.43282066  1  1.636299  0  0.275344  0.711005  0  4.165314  0
C  C76  1  0.87562465  0.43262062  0.43633585  1  1.636309  0  0.282579  0.721837  0  4.156325  0
C  C77  1  0.43605572  0.55889854  0.06716449  1  1.674356  0  0.276274  0.712573  0  4.166409  0
C  C78  1  0.44064903  0.56100835  0.93384457  1  1.655706  0  0.279253  0.708383  0  4.169639  0
C  C79  1  0.10996116  0.56339209  0.93246996  1  1.646799  0  0.278105  0.709581  0  4.16449  0
C  C80  1  0.43224631  0.87554085  0.93648888  1  1.627993  0  0.283897  0.723859  0  4.154223  0
C  C81  1  0.07574775  0.61275006  0.72538383  1  0.005333  0  -0.066974  -0.075899  0  3.624952  0
C  C82  1  0.40323942  0.47694109  0.72922425  1  -0.044927  0  -0.067527  -0.075198  0  3.627446  0
C  C83  1  0.53564060  0.92418325  0.73336686  1  0.006568  0  -0.068283  -0.078728  0  3.630241  0
C  C84  1  0.61167820  0.07631170  0.22590239  1  -0.017719  0  -0.06698  -0.075865  0  3.627396  0
C  C85  1  0.47439315  0.40182297  0.22922540  1  -0.042544  0  -0.069424  -0.078564  0  3.629387  0
C  C86  1  0.92282196  0.53413614  0.23322713  1  -0.018301  0  -0.068418  -0.078166  0  3.628916  0
C  C87  1  0.98000982  0.59766530  0.76261518  1  -0.010339  0  -0.070471  -0.081842  0  3.635307  0
C  C88  1  0.10740602  0.56209983  0.06782877  1  1.682315  0  0.276317  0.713406  0  4.162731  0
C  C89  1  0.41839070  0.39816770  0.76702512  1  -0.04254  0  -0.069494  -0.080179  0  3.631991  0
C  C90  1  0.61242494  0.02043331  0.77135642  1  -0.041062  0  -0.068616  -0.080051  0  3.633025  0
C  C91  1  0.59617416  0.98075360  0.26320505  1  -0.015618  0  -0.070354  -0.081376  0  3.635925  0
C  C92  1  0.39676337  0.41796590  0.26733620  1  -0.032662  0  -0.070235  -0.080142  0  3.634983  0
C  C93  1  0.01952113  0.61134171  0.27103891  1  -0.046446  0  -0.069332  -0.081041  0  3.632909  0
C  C94  1  0.06473377  0.54835089  0.88545827  1  0.08841  0  -0.040436  -0.196456  0  3.971058  0
C  C95  1  0.46919962  0.53917500  0.88770049  1  0.292495  0  -0.040435  -0.197805  0  3.979532  0
C  C96  1  0.46145822  0.92913180  0.89091342  1  0.265385  0  -0.042205  -0.209383  0  3.969062  0
C  C97  1  0.54505579  0.06486283  0.38565675  1  0.049742  0  -0.040883  -0.194242  0  3.972511  0
C  C98  1  0.53935173  0.46892355  0.38755711  1  0.150601  0  -0.042671  -0.198417  0  3.979894  0
C  C99  1  0.43608256  0.87426487  0.06490746  1  1.652088  0  0.282704  0.72224  0  4.154998  0
C  C100  1  0.92940810  0.46134765  0.39070694  1  0.284036  0  -0.042053  -0.206331  0  3.970296  0
C  C101  1  0.92737888  0.46121579  0.61046185  1  0.18703  0  -0.042291  -0.20832  0  3.968949  0
C  C102  1  0.54371109  0.47129646  0.61350066  1  0.173453  0  -0.040428  -0.1965  0  3.978886  0
C  C103  1  0.54344486  0.06591629  0.61571583  1  0.245706  0  -0.038867  -0.195962  0  3.972815  0
C  C104  1  0.46306831  0.92735137  0.11059285  1  -0.21336  0  -0.042461  -0.207331  0  3.968866  0
C  C105  1  0.46679238  0.54113384  0.11357430  1  0.232591  0  -0.042336  -0.19629  0  3.98011  0
C  C106  1  0.06339775  0.54251435  0.11522918  1  0.176801  0  -0.042421  -0.197835  0  3.972558  0
C  C107  1  0.11382467  0.53821280  0.75654530  1  -0.03929  0  -0.067444  -0.075434  0  3.627049  0
C  C108  1  0.48160567  0.59342846  0.75889325  1  -0.021833  0  -0.069021  -0.077543  0  3.632048  0
C  C109  1  0.41723634  0.88465902  0.76169090  1  -0.025372  0  -0.067171  -0.074722  0  3.624003  0
C  C110  1  0.97797688  0.49192593  0.70035782  1  0.096167  0  0.009179  0.116364  0  3.794467  0
C  C111  1  0.53581038  0.11370950  0.25664869  1  -0.035607  0  -0.068646  -0.077641  0  3.627169  0
C  C112  1  0.59171565  0.48018088  0.25848657  1  -0.014846  0  -0.068923  -0.076878  0  3.632096  0
C  C113  1  0.88388360  0.41608359  0.26159207  1  -0.026146  0  -0.067606  -0.075088  0  3.62492  0
C  C114  1  0.01849475  0.52379585  0.79515931  1  0.139205  0  0.009684  0.121592  0  3.795542  0
C  C115  1  0.49635741  0.51458417  0.79800864  1  0.149358  0  0.009077  0.12195  0  3.803933  0
C  C116  1  0.49416731  0.98071267  0.80110838  1  0.110887  0  0.00942  0.117642  0  3.793567  0
C  C117  1  0.52091553  0.01853851  0.29534028  1  0.087803  0  0.009638  0.124641  0  3.791849  0
C  C118  1  0.51403174  0.49589993  0.29791534  1  0.153288  0  0.008681  0.123925  0  3.802548  0
C  C119  1  0.98036077  0.49338744  0.30081854  1  0.110334  0  0.009491  0.118568  0  3.794083  0
C  C120  1  0.01635119  0.41800605  0.73290406  1  -0.018242  0  -0.068213  -0.07785  0  3.629885  0
C  C121  1  0.52158764  0.49847800  0.70340260  1  0.120499  0  0.009378  0.124332  0  3.800214  0
C  C122  1  0.59952313  0.61485502  0.73439521  1  -0.020465  0  -0.071494  -0.083365  0  3.636712  0
C  C123  1  0.39920366  0.98105401  0.73590791  1  -0.039749  0  -0.068623  -0.079417  0  3.630695  0
C  C124  1  0.41643457  0.01583044  0.23261438  1  -0.007632  0  -0.069283  -0.079316  0  3.633807  0
C  C125  1  0.61311339  0.59786689  0.23392983  1  -0.035062  0  -0.071097  -0.083004  0  3.637769  0
C  C126  1  0.98018031  0.39811892  0.23556098  1  -0.031835  0  -0.069754  -0.08105  0  3.631803  0
C  C127  1  0.51752099  0.02080963  0.70613180  1  0.110779  0  0.009971  0.122883  0  3.792438  0
O  O128  1  0.48280519  0.12860391  0.55106476  1  -1.212869  0  -0.199404  -0.53124  0  2.280785  0
O  O129  1  0.33203701  0.48284438  0.05226508  1  -1.222774  0  -0.211008  -0.56121  0  2.295056  0
O  O130  1  0.13148319  0.66294762  0.04883875  1  -1.252112  0  -0.242127  -0.602012  0  2.228134  0
O  O131  1  0.51082507  0.84717929  0.04757333  1  -1.241419  0  -0.226885  -0.587333  0  2.250038  0
O  O132  1  0.48418831  0.13314880  0.44852285  1  -1.212708  0  -0.20983  -0.559104  0  2.292959  0
O  O133  1  0.84903871  0.33051839  0.45377211  1  -1.23606  0  -0.226814  -0.587775  0  2.250207  0
O  O134  1  0.66225913  0.51831727  0.45269007  1  -1.253163  0  -0.241865  -0.602061  0  2.23612  0
O  O135  1  0.13534487  0.48668002  0.94700573  1  -1.212505  0  -0.201547  -0.539139  0  2.287373  0
O  O136  1  0.32974362  0.84899412  0.95377115  1  -1.239704  0  -0.227553  -0.588663  0  2.247296  0
O  O137  1  0.51888599  0.66261714  0.95269408  1  -1.253891  0  -0.242232  -0.606501  0  2.237843  0
O  O138  1  0.48195335  0.34054327  0.45125384  1  -1.216549  0  -0.211872  -0.566019  0  2.29081  0
O  O139  1  0.85150955  0.33450719  0.54602347  1  -1.236682  0  -0.227035  -0.588373  0  2.251053  0
O  O140  1  0.65676594  0.12638894  0.45449277  1  -1.248973  0  -0.243779  -0.605628  0  2.229299  0
O  O141  1  0.85279510  0.50885036  0.45505822  1  -1.244015  0  -0.225503  -0.585583  0  2.252986  0
O  O142  1  0.34081267  0.48263853  0.95136142  1  -1.209746  0  -0.20008  -0.534627  0  2.282557  0
O  O143  1  0.12492897  0.65662990  0.95526763  1  -1.251719  0  -0.244981  -0.610012  0  2.230785  0
O  O144  1  0.50815048  0.85270404  0.95552882  1  -1.239219  0  -0.22649  -0.588767  0  2.254998  0
O  O145  1  0.64774499  0.31741310  0.50047601  1  -1.609541  0  -0.390501  -1.272206  0  2.29552  0
O  O146  1  0.31683397  0.64782371  0.00042448  1  -1.610886  0  -0.390706  -1.272655  0  2.295852  0
O  O147  1  0.65787373  0.51969171  0.54551812  1  -1.262321  0  -0.244129  -0.608867  0  2.236224  0
O  O148  1  0.12336885  0.48242631  0.04940061  1  -1.216514  0  -0.211787  -0.564766  0  2.288376  0
O  O149  1  0.33704678  0.85250574  0.04596876  1  -1.242471  0  -0.226317  -0.587161  0  2.252268  0
O  O150  1  0.51659779  0.65442101  0.04542716  1  -1.259814  0  -0.243995  -0.607369  0  2.234979  0
O  O151  1  0.48447879  0.33665099  0.55220498  1  -1.216302  0  -0.201982  -0.540937  0  2.289611  0
O  O152  1  0.65993077  0.12981809  0.54806337  1  -1.253805  0  -0.243433  -0.607237  0  2.234494  0
O  O153  1  0.84859000  0.50940777  0.54717119  1  -1.246445  0  -0.226321  -0.586967  0  2.250511  0
O  O154  1  0.31700720  0.14677031  0.50255765  1  -1.375663  0  -0.576079  -0.991341  0  1.79563  0
O  O155  1  0.14629639  0.31738273  0.99789979  1  -1.376544  0  -0.575914  -0.990858  0  1.793623  0
