# generated using pymatgen
data_H5AuC6S
_symmetry_space_group_name_H-M   'P 1'
_cell_length_a   4.36059154
_cell_length_b   13.80402604
_cell_length_c   20.80320000
_cell_angle_alpha   104.87608304
_cell_angle_beta   90.00000000
_cell_angle_gamma   99.08771205
_symmetry_Int_Tables_number   1
_chemical_formula_structural   H5AuC6S
_chemical_formula_sum   'H40 Au8 C48 S8'
_cell_volume   1193.98101164
_cell_formula_units_Z   8
loop_
 _symmetry_equiv_pos_site_id
 _symmetry_equiv_pos_as_xyz
  1  'x, y, z'
loop_
 _atom_site_type_symbol
 _atom_site_label
 _atom_site_symmetry_multiplicity
 _atom_site_fract_x
 _atom_site_fract_y
 _atom_site_fract_z
 _atom_site_occupancy
 _atom_site_hle17_bader_spin_density
 _atom_site_hle17_ddec_charge
 _atom_site_hle17_ddec_spin_density
 _atom_site_hle17_ddec_sum_bond_order
 _atom_site_hle17_magmom
 _atom_site_hse06_10hf_bader_spin_density
 _atom_site_hse06_10hf_ddec_charge
 _atom_site_hse06_10hf_ddec_spin_density
 _atom_site_hse06_10hf_ddec_sum_bond_order
 _atom_site_hse06_10hf_magmom
 _atom_site_hse06_bader_spin_density
 _atom_site_hse06_ddec_charge
 _atom_site_hse06_ddec_spin_density
 _atom_site_hse06_ddec_sum_bond_order
 _atom_site_hse06_magmom
 _atom_site_pbe_bader_charge
 _atom_site_pbe_bader_spin_density
 _atom_site_pbe_cm5_charge
 _atom_site_pbe_ddec_charge
 _atom_site_pbe_ddec_spin_density
 _atom_site_pbe_ddec_sum_bond_order
 _atom_site_pbe_magmom
H  H0  1  0.05700303  0.68575447  0.50358477  1  0  0.077331  0  0.97731  0  0  0.085391  0  1.046929  0  0  0.088154  0  1.045782  0  0.039365  0  0.090618  0.083452  0  1.047762  0
H  H1  1  0.37139992  0.31409210  0.99640972  1  0  0.077596  0  0.977262  0  0  0.085619  0  1.046669  0  0  0.088322  0  1.045637  0  0.038042  0  0.090884  0.083715  0  1.047444  0
H  H2  1  0.94301581  0.31421290  0.49640771  1  0  0.077352  0  0.976976  0  0  0.085363  0  1.046694  0  0  0.088124  0  1.045536  0  0.039427  0  0.090582  0.083425  0  1.047525  0
H  H3  1  0.62864970  0.68593226  0.00359438  1  0  0.077628  0  0.977532  0  0  0.085652  0  1.046912  0  0  0.088356  0  1.045881  0  0.036  0  0.090857  0.083746  0  1.047687  0
H  H4  1  0.95758165  0.86295324  0.52814130  1  0  0.076176  0  0.995198  0  0  0.081267  0  1.072441  0  0  0.084336  0  1.070034  0  0.069282  0  0.080261  0.079032  0  1.074251  0
H  H5  1  0.09415748  0.13693208  0.97199053  1  0  0.07595  0  0.994468  0  0  0.080914  0  1.071891  0  0  0.08398  0  1.069644  0  0.075949  0  0.079532  0.078655  0  1.07363  0
H  H6  1  0.04235924  0.13700502  0.47184914  1  0  0.076153  0  0.995017  0  0  0.081301  0  1.07217  0  0  0.084375  0  1.069754  0  0.069007  0  0.080352  0.079061  0  1.074  0
H  H7  1  0.90586615  0.86309075  0.02801763  1  0  0.075965  0  0.994329  0  0  0.080873  0  1.071805  0  0  0.083916  0  1.069567  0  0.075782  0  0.079561  0.078613  0  1.073545  0
H  H8  1  0.21284584  0.98001600  0.46367279  1  0  0.093429  0  0.971952  0  0  0.104401  0  1.0377  0  0  0.106999  0  1.036358  0  0.074638  0  0.089313  0.102514  0  1.038773  0
H  H9  1  0.23272362  0.01987008  0.03644956  1  0  0.094195  0  0.971982  0  0  0.105047  0  1.037848  0  0  0.107671  0  1.036504  0  0.073646  0  0.089282  0.103149  0  1.038901  0
H  H10  1  0.78705070  0.01994530  0.53631817  1  0  0.093647  0  0.971824  0  0  0.104571  0  1.03763  0  0  0.107164  0  1.036296  0  0.074511  0  0.089473  0.102694  0  1.038687  0
H  H11  1  0.76730346  0.98015047  0.96356110  1  0  0.094217  0  0.97192  0  0  0.105148  0  1.037689  0  0  0.107779  0  1.036336  0  0.073494  0  0.089344  0.10318  0  1.038856  0
H  H12  1  0.64961233  0.73881936  0.34558006  1  0  0.092172  0  0.957371  0  0  0.104707  0  1.019695  0  0  0.107387  0  1.018505  0  0.086213  0  0.092055  0.102736  0  1.020656  0
H  H13  1  0.91171981  0.26092236  0.15423505  1  0  0.09227  0  0.958662  0  0  0.104725  0  1.020775  0  0  0.107495  0  1.019511  0  0.078773  0  0.09221  0.102708  0  1.021789  0
H  H14  1  0.35034074  0.26115865  0.65440989  1  0  0.092278  0  0.957419  0  0  0.104817  0  1.019689  0  0  0.107502  0  1.018486  0  0.086766  0  0.09216  0.102823  0  1.020687  0
H  H15  1  0.08831490  0.73910427  0.84577617  1  0  0.092283  0  0.958524  0  0  0.104615  0  1.020811  0  0  0.107371  0  1.019549  0  0.0788  0  0.092196  0.102611  0  1.021785  0
H  H16  1  0.40162517  0.62270630  0.41090449  1  0  0.080218  0  0.976575  0  0  0.091028  0  1.039541  0  0  0.093052  0  1.039692  0  0.070469  0  0.094781  0.089602  0  1.039474  0
H  H17  1  0.77968890  0.37705214  0.08892453  1  0  0.078762  0  0.97759  0  0  0.090431  0  1.039633  0  0  0.09237  0  1.039884  0  0.109515  0  0.094384  0.089043  0  1.039518  0
H  H18  1  0.59840011  0.37727855  0.58909240  1  0  0.080303  0  0.976363  0  0  0.091173  0  1.039262  0  0  0.093193  0  1.039409  0  0.070619  0  0.094876  0.089745  0  1.039197  0
H  H19  1  0.22035844  0.62296766  0.91108072  1  0  0.078851  0  0.977532  0  0  0.090465  0  1.039607  0  0  0.092401  0  1.039861  0  0.11013  0  0.094293  0.089075  0  1.039501  0
H  H20  1  0.42561783  0.44916656  0.15875687  1  0  0.081294  0  0.983582  0  0  0.092038  0  1.047765  0  0  0.094224  0  1.04774  0  0.056112  0  0.095701  0.090426  0  1.047921  0
H  H21  1  0.97411171  0.55178927  0.34127901  1  0  0.079479  0  0.987239  0  0  0.090702  0  1.050692  0  0  0.092905  0  1.050663  0  0.0541  0  0.095077  0.089107  0  1.05082  0
H  H22  1  0.57443981  0.55086008  0.84124377  1  0  0.081283  0  0.983693  0  0  0.092057  0  1.04779  0  0  0.094256  0  1.047749  0  0.055978  0  0.095678  0.090445  0  1.047945  0
H  H23  1  0.02590628  0.44820394  0.65872363  1  0  0.079534  0  0.987252  0  0  0.09068  0  1.050778  0  0  0.092882  0  1.050751  0  0.05401  0  0.0951  0.089089  0  1.050897  0
H  H24  1  0.30734068  0.48456620  0.05070728  1  0  0.078286  0  0.962838  0  0  0.091778  0  1.021941  0  0  0.094045  0  1.021111  0  0.048583  0  0.096554  0.090139  0  1.022582  0
H  H25  1  0.82061621  0.51622932  0.44927966  1  0  0.078685  0  0.963274  0  0  0.092736  0  1.021789  0  0  0.095045  0  1.020909  0  0.065206  0  0.097277  0.091084  0  1.022462  0
H  H26  1  0.69273418  0.51545360  0.94928980  1  0  0.078363  0  0.962765  0  0  0.09173  0  1.022024  0  0  0.093992  0  1.021186  0  0.048081  0  0.096529  0.090099  0  1.022664  0
H  H27  1  0.17941364  0.48376009  0.55072234  1  0  0.078819  0  0.963131  0  0  0.092793  0  1.021738  0  0  0.095108  0  1.020851  0  0.065428  0  0.097282  0.091143  0  1.022411  0
H  H28  1  0.08371432  0.63911262  0.04927995  1  0  0.09254  0  0.960327  0  0  0.10522  0  1.022057  0  0  0.107673  0  1.021311  0  0.054013  0  0.09746  0.103433  0  1.022676  0
H  H29  1  0.44393382  0.36127870  0.45060641  1  0  0.09226  0  0.959377  0  0  0.104695  0  1.021565  0  0  0.107166  0  1.020822  0  0.051514  0  0.097425  0.102903  0  1.022195  0
H  H30  1  0.91633111  0.36090793  0.95071726  1  0  0.092497  0  0.960368  0  0  0.105129  0  1.022144  0  0  0.107581  0  1.021402  0  0.053945  0  0.097459  0.103349  0  1.022773  0
H  H31  1  0.55608570  0.63871299  0.54939597  1  0  0.0922  0  0.959349  0  0  0.104647  0  1.021522  0  0  0.107118  0  1.020778  0  0.051356  0  0.097376  0.102854  0  1.022153  0
H  H32  1  0.10877910  0.72556757  0.26365935  1  0  0.085932  0  0.988137  0  0  0.093125  0  1.06395  0  0  0.096245  0  1.061302  0  0.089975  0  0.082424  0.090777  0  1.06602  0
H  H33  1  0.38628150  0.27427292  0.23623219  1  0  0.086222  0  0.987561  0  0  0.092993  0  1.06391  0  0  0.096176  0  1.061243  0  0.090043  0  0.082252  0.090614  0  1.065989  0
H  H34  1  0.89115248  0.27443627  0.73633597  1  0  0.085872  0  0.988045  0  0  0.093153  0  1.063797  0  0  0.096281  0  1.061132  0  0.08896  0  0.0824  0.090782  0  1.065887  0
H  H35  1  0.61371852  0.72572560  0.76377184  1  0  0.08616  0  0.987591  0  0  0.092942  0  1.06391  0  0  0.096133  0  1.061233  0  0.089523  0  0.082231  0.090561  0  1.065992  0
H  H36  1  0.33805248  0.57144509  0.26503056  1  0  0.082493  0  0.967246  0  0  0.095044  0  1.026882  0  0  0.096902  0  1.027341  0  0.070552  0  0.097449  0.093713  0  1.026636  0
H  H37  1  0.76824547  0.42878820  0.23494905  1  0  0.081645  0  0.967929  0  0  0.094101  0  1.027726  0  0  0.096016  0  1.028079  0  0.077372  0  0.096963  0.092712  0  1.027587  0
H  H38  1  0.66194367  0.42856862  0.73496644  1  0  0.082399  0  0.967228  0  0  0.094975  0  1.026837  0  0  0.096831  0  1.027296  0  0.070442  0  0.097399  0.093645  0  1.026586  0
H  H39  1  0.23175570  0.57120805  0.76505267  1  0  0.081727  0  0.967957  0  0  0.094189  0  1.02773  0  0  0.096105  0  1.028083  0  0.077223  0  0.097006  0.092798  0  1.027597  0
Au  Au40  1  0.77021240  0.87684550  0.25615443  1  0  0.064721  0  2.333017  0  0  0.006652  0  2.859887  0  0  0.022213  0  2.824366  0  0.099547  0  0.219303  -0.003449  0  2.883663  0
Au  Au41  1  0.89317658  0.12339994  0.24400414  1  0  0.064074  0  2.333105  0  0  0.006256  0  2.859578  0  0  0.021766  0  2.824164  0  0.101792  0  0.219109  -0.003797  0  2.883277  0
Au  Au42  1  0.22971768  0.12314618  0.74383737  1  0  0.064671  0  2.333075  0  0  0.006608  0  2.859958  0  0  0.022165  0  2.824435  0  0.099385  0  0.219323  -0.003488  0  2.883721  0
Au  Au43  1  0.10682303  0.87660238  0.75600342  1  0  0.064029  0  2.332983  0  0  0.006211  0  2.859429  0  0  0.021719  0  2.824014  0  0.101472  0  0.219114  -0.003846  0  2.883129  0
Au  Au44  1  0.37857602  0.07575369  0.35101732  1  0  0.072462  0  2.323715  0  0  0.013044  0  2.846379  0  0  0.027567  0  2.813408  0  0.105891  0  0.218565  0.003706  0  2.868346  0
Au  Au45  1  0.30267665  0.92439299  0.14910665  1  0  0.072803  0  2.324253  0  0  0.013903  0  2.845898  0  0  0.02838  0  2.813064  0  0.109921  0  0.219325  0.004547  0  2.867877  0
Au  Au46  1  0.62138122  0.92423268  0.64898272  1  0  0.072475  0  2.323729  0  0  0.013044  0  2.846438  0  0  0.027592  0  2.813421  0  0.105963  0  0.218588  0.003707  0  2.868404  0
Au  Au47  1  0.69732447  0.07561693  0.85088923  1  0  0.072817  0  2.324021  0  0  0.013861  0  2.845773  0  0  0.028333  0  2.81295  0  0.110106  0  0.219297  0.004508  0  2.867743  0
C  C48  1  0.16305314  0.73551895  0.47382782  1  0  -0.08307  0  3.779491  0  0  -0.098343  0  4.029768  0  0  -0.100942  0  4.051877  0  -0.062007  0  -0.100969  -0.096512  0  4.014692  0
C  C49  1  0.42761228  0.26430027  0.02616585  1  0  -0.085363  0  3.781075  0  0  -0.100716  0  4.032002  0  0  -0.10327  0  4.054021  0  0.00989  0  -0.101613  -0.098887  0  4.016915  0
C  C50  1  0.83693971  0.26444690  0.52616872  1  0  -0.083379  0  3.779561  0  0  -0.098676  0  4.029966  0  0  -0.101268  0  4.052055  0  -0.063376  0  -0.101012  -0.096838  0  4.014884  0
C  C51  1  0.57244920  0.73572029  0.97384337  1  0  -0.085328  0  3.781246  0  0  -0.100654  0  4.03206  0  0  -0.103209  0  4.05407  0  0.011619  0  -0.101563  -0.09884  0  4.017001  0
C  C52  1  0.10931009  0.83571573  0.48818557  1  0  -0.052643  0  3.778998  0  0  -0.063689  0  4.02618  0  0  -0.065568  0  4.049022  0  0.019988  0  -0.097235  -0.062331  0  4.010712  0
C  C53  1  0.27345299  0.16414147  0.01188763  1  0  -0.051841  0  3.778324  0  0  -0.063111  0  4.026024  0  0  -0.064995  0  4.04864  0  -0.021005  0  -0.09626  -0.061716  0  4.010648  0
C  C54  1  0.89062582  0.16424632  0.51181176  1  0  -0.052368  0  3.779153  0  0  -0.063392  0  4.026284  0  0  -0.06527  0  4.049131  0  0.021467  0  -0.097302  -0.062042  0  4.010815  0
C  C55  1  0.72656873  0.83588212  0.98811922  1  0  -0.051928  0  3.778585  0  0  -0.063192  0  4.026374  0  0  -0.065051  0  4.049013  0  -0.021276  0  -0.096401  -0.061807  0  4.011015  0
C  C56  1  0.24979937  0.90130151  0.45196900  1  0  -0.112692  0  3.740567  0  0  -0.130466  0  3.981071  0  0  -0.133723  0  4.00369  0  0.019123  0  -0.102765  -0.128208  0  3.965775  0
C  C57  1  0.34870551  0.09854278  0.04807749  1  0  -0.112703  0  3.739729  0  0  -0.130183  0  3.979513  0  0  -0.133449  0  4.002158  0  -0.036191  0  -0.102368  -0.127901  0  3.964198  0
C  C58  1  0.75012127  0.09865750  0.54802205  1  0  -0.113329  0  3.740436  0  0  -0.131161  0  3.981081  0  0  -0.13442  0  4.0037  0  0.017631  0  -0.103003  -0.128907  0  3.965796  0
C  C59  1  0.65131619  0.90148537  0.95193014  1  0  -0.112989  0  3.739604  0  0  -0.130562  0  3.97937  0  0  -0.133829  0  4.002007  0  -0.035918  0  -0.102547  -0.128252  0  3.964072  0
C  C60  1  0.44413381  0.86641775  0.40039162  1  0  0.067054  0  3.756902  0  0  0.088545  0  3.99742  0  0  0.090627  0  4.023487  0  -0.234056  0  -0.020325  0.086996  0  3.979793  0
C  C61  1  0.57820758  0.13345769  0.09958711  1  0  0.066484  0  3.75709  0  0  0.088  0  3.99746  0  0  0.090079  0  4.023535  0  -0.20367  0  -0.02073  0.08645  0  3.979831  0
C  C62  1  0.55577568  0.13356025  0.59960026  1  0  0.067378  0  3.756927  0  0  0.088919  0  3.997338  0  0  0.091001  0  4.023405  0  -0.233235  0  -0.02026  0.087371  0  3.97971  0
C  C63  1  0.42180648  0.86656895  0.90041978  1  0  0.066558  0  3.75712  0  0  0.088179  0  3.997305  0  0  0.090256  0  4.023383  0  -0.203766  0  -0.020633  0.086634  0  3.979658  0
C  C64  1  0.49470470  0.76540803  0.38512482  1  0  -0.113973  0  3.752885  0  0  -0.127781  0  3.987597  0  0  -0.131761  0  4.011135  0  -0.00024  0  -0.099392  -0.124939  0  3.971578  0
C  C65  1  0.73002531  0.23440967  0.11475034  1  0  -0.115851  0  3.756168  0  0  -0.129671  0  3.991064  0  0  -0.133735  0  4.014568  0  0.007107  0  -0.100075  -0.126798  0  3.975049  0
C  C66  1  0.50524647  0.23456163  0.61486707  1  0  -0.114359  0  3.753225  0  0  -0.128203  0  3.98796  0  0  -0.132183  0  4.011506  0  -0.00158  0  -0.099615  -0.125348  0  3.971948  0
C  C67  1  0.27000941  0.76561240  0.88526011  1  0  -0.115767  0  3.75629  0  0  -0.129534  0  3.991116  0  0  -0.133583  0  4.014616  0  0.007345  0  -0.100109  -0.126655  0  3.975104  0
C  C68  1  0.35485503  0.70051895  0.42216815  1  0  -0.077018  0  3.789745  0  0  -0.084587  0  4.029806  0  0  -0.08646  0  4.052358  0  -0.113857  0  -0.098135  -0.083207  0  4.014371  0
C  C69  1  0.65481704  0.29928963  0.07774247  1  0  -0.072933  0  3.789618  0  0  -0.080912  0  4.029194  0  0  -0.082708  0  4.05177  0  -0.163434  0  -0.097207  -0.079565  0  4.013726  0
C  C70  1  0.64513360  0.29945222  0.57782497  1  0  -0.076753  0  3.789026  0  0  -0.084306  0  4.029017  0  0  -0.086169  0  4.051558  0  -0.112044  0  -0.098069  -0.082924  0  4.013575  0
C  C71  1  0.34522114  0.70072560  0.92226248  1  0  -0.073037  0  3.789415  0  0  -0.080961  0  4.028874  0  0  -0.082757  0  4.051451  0  -0.163743  0  -0.097034  -0.079615  0  4.013401  0
C  C72  1  0.33068832  0.51725880  0.15807390  1  0  -0.079389  0  3.770861  0  0  -0.09352  0  4.016799  0  0  -0.095908  0  4.038958  0  -0.02715  0  -0.097354  -0.091838  0  4.001749  0
C  C73  1  0.81252154  0.48339084  0.34188482  1  0  -0.078166  0  3.772457  0  0  -0.092694  0  4.018695  0  0  -0.095112  0  4.040811  0  -0.034936  0  -0.09718  -0.091019  0  4.003677  0
C  C74  1  0.66935825  0.48276404  0.84192610  1  0  -0.079536  0  3.770574  0  0  -0.093655  0  4.016468  0  0  -0.096056  0  4.038623  0  -0.027114  0  -0.097254  -0.091972  0  4.001416  0
C  C75  1  0.18748728  0.51660236  0.65811926  1  0  -0.078029  0  3.772252  0  0  -0.092486  0  4.018442  0  0  -0.094904  0  4.040556  0  -0.035121  0  -0.097095  -0.090813  0  4.003426  0
C  C76  1  0.26217737  0.53682117  0.09747731  1  0  -0.069865  0  3.792181  0  0  -0.080672  0  4.038651  0  0  -0.08228  0  4.060362  0  -0.101198  0  -0.096204  -0.079462  0  4.023781  0
C  C77  1  0.72418827  0.46384518  0.40247128  1  0  -0.069862  0  3.789799  0  0  -0.081037  0  4.036242  0  0  -0.082681  0  4.057972  0  -0.111801  0  -0.096146  -0.079828  0  4.021402  0
C  C78  1  0.73786769  0.46319406  0.90252043  1  0  -0.069901  0  3.792253  0  0  -0.080629  0  4.038749  0  0  -0.082225  0  4.060455  0  -0.10009  0  -0.096259  -0.079427  0  4.023887  0
C  C79  1  0.27583126  0.53614651  0.59752870  1  0  -0.070227  0  3.789696  0  0  -0.081358  0  4.036158  0  0  -0.083008  0  4.057893  0  -0.107408  0  -0.096322  -0.080149  0  4.021321  0
C  C80  1  0.13570588  0.62311202  0.09642248  1  0  -0.113653  0  3.752098  0  0  -0.133362  0  3.998909  0  0  -0.136439  0  4.020673  0  0.033877  0  -0.096846  -0.131172  0  3.984093  0
C  C81  1  0.51248395  0.37729906  0.40349176  1  0  -0.113163  0  3.748116  0  0  -0.133081  0  3.994367  0  0  -0.136205  0  4.016207  0  -0.00937  0  -0.097664  -0.130874  0  3.979519  0
C  C82  1  0.86431244  0.37690018  0.90357331  1  0  -0.113573  0  3.752249  0  0  -0.133246  0  3.999007  0  0  -0.136322  0  4.020767  0  0.034046  0  -0.096858  -0.131074  0  3.984213  0
C  C83  1  0.48751340  0.62269415  0.59651088  1  0  -0.113127  0  3.748029  0  0  -0.133034  0  3.994248  0  0  -0.136159  0  4.016091  0  -0.013264  0  -0.097579  -0.130828  0  3.979401  0
C  C84  1  0.07715352  0.69038599  0.15639941  1  0  0.069226  0  3.768118  0  0  0.087788  0  4.008452  0  0  0.089992  0  4.034748  0  -0.207953  0  -0.022035  0.086191  0  3.990664  0
C  C85  1  0.38793034  0.30980020  0.34350199  1  0  0.069495  0  3.767443  0  0  0.089581  0  4.005691  0  0  0.091792  0  4.03193  0  -0.10192  0  -0.020549  0.087978  0  3.987946  0
C  C86  1  0.92284721  0.30962773  0.84359951  1  0  0.069207  0  3.768077  0  0  0.08784  0  4.008319  0  0  0.090044  0  4.034617  0  -0.208966  0  -0.022046  0.086244  0  3.990528  0
C  C87  1  0.61207579  0.69019681  0.65650178  1  0  0.069535  0  3.767082  0  0  0.089593  0  4.005379  0  0  0.091804  0  4.031624  0  -0.102374  0  -0.020543  0.087996  0  3.987619  0
C  C88  1  0.15099465  0.67198985  0.21719323  1  0  -0.120416  0  3.765127  0  0  -0.136456  0  4.008868  0  0  -0.140236  0  4.031106  0  0.008213  0  -0.103882  -0.133815  0  3.993876  0
C  C89  1  0.48106013  0.32805046  0.28272178  1  0  -0.121369  0  3.765434  0  0  -0.137752  0  4.009052  0  0  -0.141624  0  4.031265  0  -0.09654  0  -0.103478  -0.135062  0  3.994073  0
C  C90  1  0.84897016  0.32802083  0.78280614  1  0  -0.120518  0  3.76541  0  0  -0.136679  0  4.009142  0  0  -0.140469  0  4.031388  0  0.008771  0  -0.103854  -0.134013  0  3.99416  0
C  C91  1  0.51892997  0.67194198  0.71727977  1  0  -0.121283  0  3.765425  0  0  -0.137619  0  4.008997  0  0  -0.141495  0  4.031211  0  -0.095503  0  -0.103423  -0.13493  0  3.994023  0
C  C92  1  0.27806181  0.58551438  0.21771140  1  0  -0.059868  0  3.767789  0  0  -0.068803  0  4.008464  0  0  -0.070681  0  4.031287  0  -0.057147  0  -0.092413  -0.067434  0  3.992886  0
C  C93  1  0.69363925  0.41474550  0.28223668  1  0  -0.058134  0  3.767891  0  0  -0.066828  0  4.008354  0  0  -0.06869  0  4.031193  0  -0.012673  0  -0.092179  -0.065466  0  3.992767  0
C  C94  1  0.72193740  0.41449629  0.78228460  1  0  -0.059441  0  3.767471  0  0  -0.068382  0  4.008123  0  0  -0.070262  0  4.030954  0  -0.056768  0  -0.092268  -0.067013  0  3.99254  0
C  C95  1  0.30635847  0.58525303  0.71776782  1  0  -0.058276  0  3.76825  0  0  -0.066991  0  4.008714  0  0  -0.068855  0  4.031556  0  -0.012884  0  -0.092253  -0.06563  0  3.993132  0
S  S96  1  0.66972054  0.95541563  0.36362322  1  0  -0.12611  0  3.101136  0  0  -0.072374  0  3.592036  0  0  -0.089211  0  3.583419  0  -0.074328  0  -0.169828  -0.061126  0  3.597541  0
S  S97  1  0.71470443  0.04456466  0.13649932  1  0  -0.125214  0  3.099549  0  0  -0.071524  0  3.589993  0  0  -0.08834  0  3.581392  0  -0.077514  0  -0.169581  -0.060295  0  3.595484  0
S  S98  1  0.33020921  0.04456162  0.63636853  1  0  -0.126048  0  3.100974  0  0  -0.07227  0  3.591764  0  0  -0.089115  0  3.583155  0  -0.074428  0  -0.169792  -0.061023  0  3.59727  0
S  S99  1  0.28530623  0.95545058  0.86350611  1  0  -0.125082  0  3.099665  0  0  -0.071393  0  3.590025  0  0  -0.088208  0  3.581433  0  -0.07715  0  -0.169539  -0.060158  0  3.5955  0
S  S100  1  0.89483395  0.79468397  0.15027110  1  0  -0.105268  0  2.948009  0  0  -0.0511  0  3.411161  0  0  -0.06731  0  3.40452  0  -0.069762  0  -0.157698  -0.04033  0  3.415465  0
S  S101  1  0.10128036  0.20561086  0.34975504  1  0  -0.104641  0  2.948421  0  0  -0.051003  0  3.411329  0  0  -0.067196  0  3.404646  0  -0.071974  0  -0.15808  -0.040254  0  3.415676  0
S  S102  1  0.10516373  0.20532823  0.84971939  1  0  -0.105336  0  2.947913  0  0  -0.051203  0  3.411066  0  0  -0.067408  0  3.404422  0  -0.069299  0  -0.157765  -0.040437  0  3.415378  0
S  S103  1  0.89871506  0.79438766  0.65025091  1  0  -0.10463  0  2.948381  0  0  -0.051014  0  3.411384  0  0  -0.067213  0  3.404703  0  -0.071968  0  -0.158093  -0.040268  0  3.415735  0
