# generated using pymatgen
data_NaH7C8SO8
_symmetry_space_group_name_H-M   'P 1'
_cell_length_a   7.10668633
_cell_length_b   11.14138096
_cell_length_c   13.10971213
_cell_angle_alpha   95.46351931
_cell_angle_beta   90.00029187
_cell_angle_gamma   90.00010038
_symmetry_Int_Tables_number   1
_chemical_formula_structural   NaH7C8SO8
_chemical_formula_sum   'Na4 H28 C32 S4 O32'
_cell_volume   1033.28908444
_cell_formula_units_Z   4
loop_
 _symmetry_equiv_pos_site_id
 _symmetry_equiv_pos_as_xyz
  1  'x, y, z'
loop_
 _atom_site_type_symbol
 _atom_site_label
 _atom_site_symmetry_multiplicity
 _atom_site_fract_x
 _atom_site_fract_y
 _atom_site_fract_z
 _atom_site_occupancy
 _atom_site_hle17_bader_spin_density
 _atom_site_hle17_ddec_charge
 _atom_site_hle17_ddec_spin_density
 _atom_site_hle17_ddec_sum_bond_order
 _atom_site_hle17_magmom
 _atom_site_hse06_10hf_bader_spin_density
 _atom_site_hse06_10hf_ddec_charge
 _atom_site_hse06_10hf_ddec_spin_density
 _atom_site_hse06_10hf_ddec_sum_bond_order
 _atom_site_hse06_10hf_magmom
 _atom_site_hse06_bader_spin_density
 _atom_site_hse06_ddec_charge
 _atom_site_hse06_ddec_spin_density
 _atom_site_hse06_ddec_sum_bond_order
 _atom_site_hse06_magmom
 _atom_site_pbe_bader_spin_density
 _atom_site_pbe_cm5_charge
 _atom_site_pbe_ddec_charge
 _atom_site_pbe_ddec_spin_density
 _atom_site_pbe_ddec_sum_bond_order
 _atom_site_pbe_magmom
Na  Na0  1  0.53004876  0.07847780  0.90081354  1  0  0.921831  0  0.343504  0  0  0.892179  0  0.476985  0  0  0.900691  0  0.456388  0  0  0.667714  0.885492  0  0.492196  0
Na  Na1  1  0.03004409  0.42152091  0.59918663  1  0  0.921823  0  0.34352  0  0  0.892183  0  0.476998  0  0  0.900694  0  0.456396  0  0  0.667726  0.885503  0  0.492204  0
Na  Na2  1  0.46996062  0.92152374  0.09918846  1  0  0.921809  0  0.343519  0  0  0.892166  0  0.476978  0  0  0.900673  0  0.456384  0  0  0.667719  0.885482  0  0.492186  0
Na  Na3  1  0.96995403  0.57847883  0.40081445  1  0  0.921832  0  0.343511  0  0  0.892201  0  0.476968  0  0  0.900711  0  0.456371  0  0  0.667731  0.885522  0  0.492177  0
H  H4  1  0.13961941  0.36934734  0.84265796  1  0  0.119429  0  0.953597  0  0  0.121546  0  1.026581  0  0  0.126086  0  1.022476  0  0  0.116987  0.118242  0  1.029569  0
H  H5  1  0.63962621  0.13065247  0.65733652  1  0  0.119441  0  0.953515  0  0  0.121556  0  1.026495  0  0  0.126093  0  1.022398  0  0  0.117004  0.118252  0  1.029486  0
H  H6  1  0.86037449  0.63065512  0.15734183  1  0  0.119456  0  0.953639  0  0  0.121575  0  1.026627  0  0  0.126118  0  1.022518  0  0  0.117007  0.118272  0  1.029616  0
H  H7  1  0.36038176  0.86934728  0.34266304  1  0  0.11939  0  0.953581  0  0  0.121509  0  1.02655  0  0  0.126046  0  1.022453  0  0  0.116988  0.118206  0  1.02954  0
H  H8  1  0.38229764  0.69696857  0.98781251  1  0  0.101493  0  0.975909  0  0  0.104674  0  1.052854  0  0  0.109357  0  1.047666  0  0  0.114947  0.101262  0  1.056588  0
H  H9  1  0.88229939  0.80303045  0.51218416  1  0  0.101497  0  0.975934  0  0  0.104683  0  1.052869  0  0  0.109363  0  1.047686  0  0  0.114969  0.101271  0  1.056608  0
H  H10  1  0.61769625  0.30303297  0.01218949  1  0  0.101468  0  0.976014  0  0  0.104688  0  1.05291  0  0  0.109371  0  1.047723  0  0  0.114948  0.101276  0  1.056646  0
H  H11  1  0.11770858  0.19696841  0.48781304  1  0  0.101473  0  0.97594  0  0  0.104716  0  1.052823  0  0  0.109401  0  1.047627  0  0  0.114949  0.101303  0  1.05656  0
H  H12  1  0.21989993  0.41450117  0.17095587  1  0  0.121447  0  0.931859  0  0  0.126388  0  0.99947  0  0  0.130922  0  0.995046  0  0  0.118304  0.12308  0  1.002693  0
H  H13  1  0.71989833  0.08549679  0.32903826  1  0  0.12144  0  0.931927  0  0  0.126373  0  0.999528  0  0  0.130904  0  0.99511  0  0  0.118258  0.123063  0  1.002751  0
H  H14  1  0.78010100  0.58549767  0.82904514  1  0  0.121491  0  0.931915  0  0  0.126434  0  0.999501  0  0  0.130967  0  0.995077  0  0  0.11832  0.123125  0  1.002724  0
H  H15  1  0.28009838  0.91450026  0.67095954  1  0  0.12142  0  0.931977  0  0  0.126363  0  0.999572  0  0  0.130895  0  0.995153  0  0  0.118267  0.123054  0  1.002793  0
H  H16  1  0.41331930  0.68918697  0.71991500  1  0  0.420438  0  0.861031  0  0  0.388475  0  0.938815  0  0  0.400725  0  0.924382  0  0  0.313395  0.379862  0  0.948304  0
H  H17  1  0.91332071  0.81081208  0.78008405  1  0  0.420463  0  0.86112  0  0  0.388508  0  0.938893  0  0  0.40076  0  0.92436  0  0  0.313433  0.379896  0  0.948378  0
H  H18  1  0.58667882  0.31081367  0.28008617  1  0  0.420444  0  0.861124  0  0  0.388494  0  0.938884  0  0  0.400745  0  0.924373  0  0  0.313429  0.379881  0  0.94837  0
H  H19  1  0.08668725  0.18918856  0.21991635  1  0  0.420466  0  0.861155  0  0  0.388511  0  0.938919  0  0  0.400762  0  0.924365  0  0  0.313439  0.379898  0  0.948409  0
H  H20  1  0.42256644  0.63334074  0.32671500  1  0  0.410434  0  0.88  0  0  0.379967  0  0.956714  0  0  0.392109  0  0.941368  0  0  0.312313  0.371416  0  0.96594  0
H  H21  1  0.92256422  0.86666090  0.17328159  1  0  0.410399  0  0.880088  0  0  0.379935  0  0.956802  0  0  0.392078  0  0.941425  0  0  0.312296  0.371383  0  0.966026  0
H  H22  1  0.57743589  0.36665902  0.67328380  1  0  0.410478  0  0.879925  0  0  0.379981  0  0.956702  0  0  0.392125  0  0.941353  0  0  0.312308  0.371429  0  0.965928  0
H  H23  1  0.07742967  0.13333616  0.82671621  1  0  0.410437  0  0.880062  0  0  0.379963  0  0.956779  0  0  0.392105  0  0.941393  0  0  0.312305  0.371412  0  0.966003  0
H  H24  1  0.78382578  0.11538415  0.08453568  1  0  0.43353  0  0.8533  0  0  0.40665  0  0.909941  0  0  0.415881  0  0.896142  0  0  0.303521  0.400089  0  0.919748  0
H  H25  1  0.28382251  0.38462107  0.41546688  1  0  0.433512  0  0.853302  0  0  0.406593  0  0.91  0  0  0.415824  0  0.896201  0  0  0.303493  0.400036  0  0.9198  0
H  H26  1  0.21617797  0.88462190  0.91546670  1  0  0.433431  0  0.853389  0  0  0.40654  0  0.910068  0  0  0.415773  0  0.896268  0  0  0.303498  0.399986  0  0.919861  0
H  H27  1  0.71617702  0.61537957  0.58453429  1  0  0.433511  0  0.853305  0  0  0.406619  0  0.909989  0  0  0.415851  0  0.896187  0  0  0.303516  0.40006  0  0.919791  0
H  H28  1  0.59084858  0.16787492  0.11714179  1  0  0.424756  0  0.86225  0  0  0.398944  0  0.922892  0  0  0.407682  0  0.909762  0  0  0.303339  0.392712  0  0.932277  0
H  H29  1  0.09084767  0.33212462  0.38285898  1  0  0.424788  0  0.862258  0  0  0.398967  0  0.922871  0  0  0.407708  0  0.909738  0  0  0.303322  0.392733  0  0.93226  0
H  H30  1  0.40914953  0.83212482  0.88285853  1  0  0.424759  0  0.862262  0  0  0.398934  0  0.922912  0  0  0.407676  0  0.909775  0  0  0.303326  0.3927  0  0.9323  0
H  H31  1  0.90915185  0.66787421  0.61714279  1  0  0.424731  0  0.862308  0  0  0.398915  0  0.922938  0  0  0.407657  0  0.909802  0  0  0.303315  0.392681  0  0.932325  0
C  C32  1  0.17477261  0.37908364  0.00755164  1  0  -0.131829  0  3.73945  0  0  -0.10085  0  3.989693  0  0  -0.111391  0  4.013086  0  0  -0.014597  -0.094366  0  3.974166  0
C  C33  1  0.67477684  0.12091605  0.49244404  1  0  -0.131702  0  3.73943  0  0  -0.100723  0  3.989674  0  0  -0.111256  0  4.013053  0  0  -0.014534  -0.094236  0  3.97414  0
C  C34  1  0.82522410  0.62091791  0.99244884  1  0  -0.131702  0  3.739415  0  0  -0.100707  0  3.989651  0  0  -0.111245  0  4.013041  0  0  -0.014583  -0.094222  0  3.974123  0
C  C35  1  0.32522831  0.87908371  0.50755323  1  0  -0.131677  0  3.739324  0  0  -0.100736  0  3.989626  0  0  -0.111266  0  4.012998  0  0  -0.014578  -0.094252  0  3.974096  0
C  C36  1  0.18594378  0.42338783  0.91186886  1  0  -0.036016  0  3.677842  0  0  -0.075661  0  3.927283  0  0  -0.071256  0  3.946393  0  0  -0.060972  -0.078107  0  3.914317  0
C  C37  1  0.68594698  0.07661203  0.58812651  1  0  -0.036086  0  3.677814  0  0  -0.075728  0  3.927273  0  0  -0.071322  0  3.946374  0  0  -0.061008  -0.078179  0  3.91431  0
C  C38  1  0.81405293  0.57661281  0.08813230  1  0  -0.03602  0  3.677904  0  0  -0.075697  0  3.927383  0  0  -0.071292  0  3.946492  0  0  -0.060923  -0.078146  0  3.914419  0
C  C39  1  0.31405817  0.92338682  0.41187297  1  0  -0.036055  0  3.677891  0  0  -0.07568  0  3.927297  0  0  -0.071277  0  3.946404  0  0  -0.060985  -0.07813  0  3.914335  0
C  C40  1  0.26141228  0.53848503  0.90453163  1  0  -0.089811  0  3.76278  0  0  -0.063361  0  3.999719  0  0  -0.075543  0  4.024629  0  0  -0.01415  -0.055597  0  3.98313  0
C  C41  1  0.76141243  0.96151472  0.59546629  1  0  -0.089664  0  3.762715  0  0  -0.063233  0  3.999603  0  0  -0.075412  0  4.024504  0  0  -0.014073  -0.055468  0  3.983017  0
C  C42  1  0.73858583  0.46151562  0.09546877  1  0  -0.089838  0  3.762961  0  0  -0.063405  0  3.999894  0  0  -0.075588  0  4.024804  0  0  -0.01418  -0.055641  0  3.983308  0
C  C43  1  0.23859131  0.03848413  0.40453243  1  0  -0.089759  0  3.762643  0  0  -0.063293  0  3.999532  0  0  -0.075473  0  4.024442  0  0  -0.014114  -0.055528  0  3.982945  0
C  C44  1  0.32175315  0.60823947  0.99263667  1  0  -0.026413  0  3.667255  0  0  -0.071401  0  3.923427  0  0  -0.065694  0  3.941161  0  0  -0.061231  -0.074771  0  3.911375  0
C  C45  1  0.82175510  0.89176038  0.50735838  1  0  -0.026465  0  3.667283  0  0  -0.071462  0  3.923448  0  0  -0.065755  0  3.941183  0  0  -0.061287  -0.074844  0  3.911393  0
C  C46  1  0.67824075  0.39176208  0.00736457  1  0  -0.026373  0  3.667358  0  0  -0.071387  0  3.92353  0  0  -0.065678  0  3.941263  0  0  -0.061203  -0.074765  0  3.911474  0
C  C47  1  0.17824442  0.10823938  0.49263890  1  0  -0.026384  0  3.667219  0  0  -0.071439  0  3.92338  0  0  -0.065733  0  3.941114  0  0  -0.061214  -0.074812  0  3.911332  0
C  C48  1  0.30372505  0.56460324  0.08855704  1  0  -0.080497  0  3.745092  0  0  -0.053564  0  3.980267  0  0  -0.065557  0  4.004827  0  0  -0.010633  -0.046104  0  3.964006  0
C  C49  1  0.80372804  0.93539824  0.41143769  1  0  -0.080596  0  3.745276  0  0  -0.053686  0  3.980433  0  0  -0.065681  0  4.004997  0  0  -0.010668  -0.046201  0  3.964142  0
C  C50  1  0.69626884  0.43540011  0.91144436  1  0  -0.080427  0  3.745249  0  0  -0.053549  0  3.98041  0  0  -0.065546  0  4.004976  0  0  -0.010606  -0.046067  0  3.964118  0
C  C51  1  0.19627571  0.06460152  0.58856035  1  0  -0.080458  0  3.745085  0  0  -0.053569  0  3.980252  0  0  -0.065563  0  4.004816  0  0  -0.01063  -0.046109  0  3.963989  0
C  C52  1  0.23078657  0.44897508  0.09629916  1  0  -0.02729  0  3.664095  0  0  -0.071576  0  3.923638  0  0  -0.065643  0  3.939846  0  0  -0.061585  -0.074957  0  3.9126  0
C  C53  1  0.73078696  0.05102560  0.40369600  1  0  -0.027308  0  3.664196  0  0  -0.071597  0  3.923782  0  0  -0.065669  0  3.939992  0  0  -0.061573  -0.074981  0  3.912725  0
C  C54  1  0.76920873  0.55102648  0.90370055  1  0  -0.027411  0  3.664217  0  0  -0.071703  0  3.923776  0  0  -0.06577  0  3.939982  0  0  -0.061636  -0.075091  0  3.912733  0
C  C55  1  0.26921256  0.94897325  0.59630349  1  0  -0.027346  0  3.664107  0  0  -0.071645  0  3.923691  0  0  -0.065717  0  3.9399  0  0  -0.061589  -0.075017  0  3.912638  0
C  C56  1  0.27587290  0.58103698  0.80064344  1  0  0.68747  0  3.795508  0  0  0.63551  0  4.093939  0  0  0.668714  0  4.085114  0  0  0.241466  0.612888  0  4.099639  0
C  C57  1  0.77587247  0.91896549  0.69935399  1  0  0.687343  0  3.79559  0  0  0.635488  0  4.093889  0  0  0.668695  0  4.085059  0  0  0.241413  0.612865  0  4.099591  0
C  C58  1  0.72412522  0.41896187  0.19935452  1  0  0.687557  0  3.795228  0  0  0.635678  0  4.093558  0  0  0.668883  0  4.084731  0  0  0.241578  0.613056  0  4.099262  0
C  C59  1  0.22413550  0.08103247  0.30064237  1  0  0.687445  0  3.79553  0  0  0.635521  0  4.093894  0  0  0.668725  0  4.085068  0  0  0.241404  0.6129  0  4.099595  0
C  C60  1  0.37117052  0.64049091  0.18118241  1  0  0.676819  0  3.803987  0  0  0.63031  0  4.09536  0  0  0.663167  0  4.087381  0  0  0.243202  0.607988  0  4.100446  0
C  C61  1  0.87116399  0.85951067  0.31881174  1  0  0.67664  0  3.803972  0  0  0.630264  0  4.095177  0  0  0.663115  0  4.087213  0  0  0.243111  0.607935  0  4.100263  0
C  C62  1  0.62882759  0.35951334  0.81881906  1  0  0.676717  0  3.804097  0  0  0.63035  0  4.095245  0  0  0.663209  0  4.087264  0  0  0.243235  0.608023  0  4.10033  0
C  C63  1  0.12883131  0.14048819  0.68118545  1  0  0.676704  0  3.804026  0  0  0.630342  0  4.095184  0  0  0.663201  0  4.087203  0  0  0.243244  0.608022  0  4.10027  0
S  S64  1  0.10880778  0.22565674  0.01413422  1  0  1.319643  0  5.618563  0  0  1.218969  0  6.136908  0  0  1.266863  0  6.113666  0  0  0.532884  1.185972  0  6.151913  0
S  S65  1  0.60880817  0.27434104  0.48586417  1  0  1.319535  0  5.618649  0  0  1.218849  0  6.136998  0  0  1.266736  0  6.113762  0  0  0.532868  1.185849  0  6.152005  0
S  S66  1  0.89119034  0.77434212  0.98586451  1  0  1.319486  0  5.618661  0  0  1.218805  0  6.137019  0  0  1.266688  0  6.113789  0  0  0.532843  1.185802  0  6.152027  0
S  S67  1  0.39119276  0.72565780  0.51413608  1  0  1.319542  0  5.618483  0  0  1.218877  0  6.136819  0  0  1.266759  0  6.113588  0  0  0.532884  1.185876  0  6.151827  0
O  O68  1  0.28558203  0.15904698  0.00945544  1  0  -0.690856  0  1.983121  0  0  -0.647793  0  2.247533  0  0  -0.668379  0  2.231943  0  0  -0.379567  -0.633111  0  2.257662  0
O  O69  1  0.78558266  0.34095195  0.49054354  1  0  -0.690814  0  1.983172  0  0  -0.647752  0  2.247591  0  0  -0.668338  0  2.232008  0  0  -0.379553  -0.633069  0  2.257722  0
O  O70  1  0.71442030  0.84095457  0.99054427  1  0  -0.690816  0  1.983223  0  0  -0.647745  0  2.247626  0  0  -0.668328  0  2.232042  0  0  -0.379581  -0.633061  0  2.257755  0
O  O71  1  0.21441827  0.65904691  0.50945518  1  0  -0.690818  0  1.983166  0  0  -0.647755  0  2.247564  0  0  -0.668339  0  2.23198  0  0  -0.379555  -0.633072  0  2.257696  0
O  O72  1  0.98233297  0.19318786  0.92668836  1  0  -0.657495  0  1.992382  0  0  -0.602302  0  2.231948  0  0  -0.623365  0  2.217574  0  0  -0.318374  -0.587434  0  2.241034  0
O  O73  1  0.48233899  0.30680698  0.57331123  1  0  -0.657493  0  1.992411  0  0  -0.60227  0  2.231957  0  0  -0.623333  0  2.217594  0  0  -0.318367  -0.587403  0  2.24105  0
O  O74  1  0.01766656  0.80681099  0.07331112  1  0  -0.657455  0  1.992343  0  0  -0.602261  0  2.231907  0  0  -0.623326  0  2.217538  0  0  -0.318359  -0.587392  0  2.240992  0
O  O75  1  0.51766335  0.69319006  0.42668810  1  0  -0.657471  0  1.992338  0  0  -0.602275  0  2.231882  0  0  -0.623336  0  2.217524  0  0  -0.318372  -0.587405  0  2.240971  0
O  O76  1  0.00674519  0.22023286  0.11224126  1  0  -0.68286  0  2.022535  0  0  -0.619478  0  2.260752  0  0  -0.641796  0  2.245816  0  0  -0.325595  -0.603816  0  2.270481  0
O  O77  1  0.50674047  0.27976837  0.38775865  1  0  -0.68285  0  2.022511  0  0  -0.619463  0  2.260708  0  0  -0.641784  0  2.245787  0  0  -0.325609  -0.603804  0  2.270438  0
O  O78  1  0.99325574  0.77976508  0.88775891  1  0  -0.682822  0  2.02253  0  0  -0.619425  0  2.260722  0  0  -0.641741  0  2.245792  0  0  -0.325579  -0.603767  0  2.270449  0
O  O79  1  0.49326046  0.72022957  0.61224152  1  0  -0.682857  0  2.02251  0  0  -0.619451  0  2.260692  0  0  -0.641769  0  2.245782  0  0  -0.325603  -0.60379  0  2.270423  0
O  O80  1  0.18905987  0.53346875  0.72632685  1  0  -0.59865  0  1.931345  0  0  -0.562512  0  2.158127  0  0  -0.580978  0  2.146506  0  0  -0.353229  -0.549787  0  2.165962  0
O  O81  1  0.68906308  0.96653271  0.77366948  1  0  -0.598616  0  1.931393  0  0  -0.562503  0  2.15811  0  0  -0.580968  0  2.146488  0  0  -0.353176  -0.549776  0  2.165944  0
O  O82  1  0.81094387  0.46653280  0.27367439  1  0  -0.598755  0  1.931048  0  0  -0.562638  0  2.157784  0  0  -0.581106  0  2.146165  0  0  -0.353319  -0.549909  0  2.165622  0
O  O83  1  0.31094770  0.03347424  0.22633298  1  0  -0.598578  0  1.931605  0  0  -0.562433  0  2.158327  0  0  -0.580898  0  2.146709  0  0  -0.353106  -0.54971  0  2.166162  0
O  O84  1  0.39485110  0.67336729  0.79456882  1  0  -0.561992  0  2.098871  0  0  -0.501161  0  2.313226  0  0  -0.524113  0  2.297451  0  0  -0.321872  -0.485176  0  2.323311  0
O  O85  1  0.89484905  0.82663353  0.70543186  1  0  -0.561926  0  2.098853  0  0  -0.501177  0  2.313209  0  0  -0.524141  0  2.297363  0  0  -0.321909  -0.485194  0  2.323295  0
O  O86  1  0.60514984  0.32663605  0.20543334  1  0  -0.561965  0  2.098922  0  0  -0.501201  0  2.313291  0  0  -0.524152  0  2.297454  0  0  -0.321936  -0.485217  0  2.323377  0
O  O87  1  0.10515047  0.17336531  0.29456839  1  0  -0.562029  0  2.098726  0  0  -0.501249  0  2.313098  0  0  -0.524209  0  2.297233  0  0  -0.321963  -0.485265  0  2.323186  0
O  O88  1  0.43398053  0.74356399  0.17886221  1  0  -0.606811  0  1.924098  0  0  -0.570659  0  2.150527  0  0  -0.589572  0  2.139363  0  0  -0.347532  -0.557658  0  2.158017  0
O  O89  1  0.93397231  0.75643047  0.32113152  1  0  -0.606811  0  1.924067  0  0  -0.570664  0  2.150399  0  0  -0.589575  0  2.139236  0  0  -0.347496  -0.557661  0  2.157894  0
O  O90  1  0.56601478  0.25643577  0.82113659  1  0  -0.606867  0  1.924049  0  0  -0.570747  0  2.150383  0  0  -0.589659  0  2.139214  0  0  -0.347599  -0.557744  0  2.157878  0
O  O91  1  0.06602721  0.24356749  0.67886713  1  0  -0.60683  0  1.924106  0  0  -0.570725  0  2.15046  0  0  -0.589638  0  2.139289  0  0  -0.347573  -0.557724  0  2.157952  0
O  O92  1  0.36107189  0.58391684  0.26595121  1  0  -0.55469  0  2.094288  0  0  -0.504284  0  2.310009  0  0  -0.525983  0  2.2936  0  0  -0.320034  -0.489177  0  2.319674  0
O  O93  1  0.86107319  0.91608562  0.23404376  1  0  -0.55451  0  2.094281  0  0  -0.504195  0  2.310009  0  0  -0.525873  0  2.293541  0  0  -0.319947  -0.489087  0  2.319674  0
O  O94  1  0.63892622  0.41608381  0.73404843  1  0  -0.554685  0  2.094271  0  0  -0.504302  0  2.309925  0  0  -0.526006  0  2.293531  0  0  -0.320053  -0.489194  0  2.319593  0
O  O95  1  0.13891789  0.08391234  0.76595337  1  0  -0.554635  0  2.094361  0  0  -0.504259  0  2.310016  0  0  -0.525955  0  2.293566  0  0  -0.320023  -0.489152  0  2.319678  0
O  O96  1  0.64866427  0.09916674  0.07669275  1  0  -0.892066  0  1.809976  0  0  -0.859021  0  1.986747  0  0  -0.872937  0  1.955207  0  0  -0.678724  -0.848957  0  2.008876  0
O  O97  1  0.14865971  0.40083287  0.42331124  1  0  -0.892075  0  1.809974  0  0  -0.858969  0  1.986802  0  0  -0.872883  0  1.955259  0  0  -0.678675  -0.848905  0  2.008934  0
O  O98  1  0.35134229  0.90083300  0.92330910  1  0  -0.891968  0  1.810039  0  0  -0.858893  0  1.986888  0  0  -0.872809  0  1.955346  0  0  -0.678682  -0.848833  0  2.009015  0
O  O99  1  0.85134122  0.59916595  0.57669282  1  0  -0.892024  0  1.809997  0  0  -0.85898  0  1.986776  0  0  -0.872889  0  1.955226  0  0  -0.6787  -0.848916  0  2.008906  0
