# generated using pymatgen
data_HgH14C13(IN)2
_symmetry_space_group_name_H-M   'P 1'
_cell_length_a   5.01079519
_cell_length_b   11.84991479
_cell_length_c   13.40310607
_cell_angle_alpha   89.99994675
_cell_angle_beta   90.00003397
_cell_angle_gamma   90.68567296
_symmetry_Int_Tables_number   1
_chemical_formula_structural   HgH14C13(IN)2
_chemical_formula_sum   'Hg2 H28 C26 I4 N4'
_cell_volume   795.78588975
_cell_formula_units_Z   2
loop_
 _symmetry_equiv_pos_site_id
 _symmetry_equiv_pos_as_xyz
  1  'x, y, z'
loop_
 _atom_site_type_symbol
 _atom_site_label
 _atom_site_symmetry_multiplicity
 _atom_site_fract_x
 _atom_site_fract_y
 _atom_site_fract_z
 _atom_site_occupancy
 _atom_site_hle17_bader_spin_density
 _atom_site_hle17_ddec_charge
 _atom_site_hle17_ddec_spin_density
 _atom_site_hle17_ddec_sum_bond_order
 _atom_site_hle17_magmom
 _atom_site_hse06_10hf_bader_spin_density
 _atom_site_hse06_10hf_ddec_charge
 _atom_site_hse06_10hf_ddec_spin_density
 _atom_site_hse06_10hf_ddec_sum_bond_order
 _atom_site_hse06_10hf_magmom
 _atom_site_hse06_bader_spin_density
 _atom_site_hse06_ddec_charge
 _atom_site_hse06_ddec_spin_density
 _atom_site_hse06_ddec_sum_bond_order
 _atom_site_hse06_magmom
 _atom_site_pbe_bader_spin_density
 _atom_site_pbe_cm5_charge
 _atom_site_pbe_ddec_charge
 _atom_site_pbe_ddec_spin_density
 _atom_site_pbe_ddec_sum_bond_order
 _atom_site_pbe_magmom
Hg  Hg0  1  0.01805216  0.77694424  0.49418662  1  0  0.562944  0  2.167551  0  0  0.421467  0  2.661603  0  0  0.465075  0  2.637862  0  0  0.415944  0.392646  0  2.677127  0
Hg  Hg1  1  0.98194858  0.22305537  0.99418673  1  0  0.562926  0  2.167579  0  0  0.421454  0  2.661636  0  0  0.465061  0  2.637894  0  0  0.415931  0.392631  0  2.677159  0
H  H2  1  0.89749311  0.60233232  0.67232983  1  0  0.062499  0  0.969778  0  0  0.068865  0  1.041382  0  0  0.071668  0  1.038561  0  0  0.094552  0.066863  0  1.043383  0
H  H3  1  0.10250714  0.39766761  0.17233005  1  0  0.062507  0  0.969774  0  0  0.068871  0  1.041371  0  0  0.071673  0  1.038553  0  0  0.094543  0.066869  0  1.043372  0
H  H4  1  0.61279887  0.56802051  0.82314933  1  0  0.097567  0  0.988878  0  0  0.1064  0  1.055867  0  0  0.109656  0  1.055117  0  0  0.09012  0.104102  0  1.056509  0
H  H5  1  0.38719962  0.43197927  0.32314884  1  0  0.097561  0  0.988888  0  0  0.106396  0  1.055871  0  0  0.109652  0  1.055121  0  0  0.09013  0.1041  0  1.056511  0
H  H6  1  0.25848172  0.89323342  0.77108361  1  0  0.107753  0  0.946649  0  0  0.117757  0  1.008103  0  0  0.121087  0  1.007328  0  0  0.101304  0.115403  0  1.008786  0
H  H7  1  0.74152070  0.10676726  0.27108272  1  0  0.107765  0  0.946709  0  0  0.117773  0  1.008149  0  0  0.121103  0  1.007374  0  0  0.101303  0.115419  0  1.008832  0
H  H8  1  0.56488422  0.91566778  0.62454745  1  0  0.059438  0  0.98761  0  0  0.061926  0  1.066016  0  0  0.0647  0  1.063291  0  0  0.091759  0.059864  0  1.068087  0
H  H9  1  0.43511797  0.08433305  0.12454726  1  0  0.05945  0  0.987626  0  0  0.061933  0  1.066039  0  0  0.064706  0  1.063316  0  0  0.091766  0.05987  0  1.06811  0
H  H10  1  0.06256328  0.76472226  0.89688806  1  0  0.08045  0  0.946374  0  0  0.097835  0  1.008248  0  0  0.099052  0  1.008515  0  0  0.084558  0.096947  0  1.008138  0
H  H11  1  0.93743931  0.23527745  0.39688861  1  0  0.080441  0  0.946354  0  0  0.097832  0  1.008235  0  0  0.099051  0  1.008501  0  0  0.08455  0.096944  0  1.008124  0
H  H12  1  0.16569618  0.62205657  0.90296732  1  0  0.074541  0  0.947932  0  0  0.089534  0  1.01618  0  0  0.091028  0  1.015467  0  0  0.084486  0.088425  0  1.016786  0
H  H13  1  0.83430444  0.37794397  0.40296698  1  0  0.074545  0  0.94792  0  0  0.089541  0  1.016167  0  0  0.091035  0  1.015454  0  0  0.084502  0.088431  0  1.016773  0
H  H14  1  0.57492951  0.68284161  0.99850564  1  0  0.062533  0  0.945933  0  0  0.084114  0  1.005268  0  0  0.084692  0  1.006277  0  0  0.079809  0.083677  0  1.004589  0
H  H15  1  0.42507126  0.31715883  0.49850451  1  0  0.06253  0  0.945882  0  0  0.084094  0  1.005225  0  0  0.084672  0  1.006231  0  0  0.079793  0.083665  0  1.004536  0
H  H16  1  0.46390274  0.82395679  0.99621730  1  0  0.060451  0  0.97147  0  0  0.074385  0  1.044138  0  0  0.075721  0  1.044003  0  0  0.070848  0.073307  0  1.044474  0
H  H17  1  0.53609803  0.17604365  0.49621631  1  0  0.06047  0  0.971468  0  0  0.074399  0  1.044126  0  0  0.075735  0  1.04399  0  0  0.070852  0.073321  0  1.044465  0
H  H18  1  0.05887540  0.77089118  0.09293262  1  0  0.081458  0  0.944913  0  0  0.099172  0  1.005848  0  0  0.100524  0  1.005842  0  0  0.084399  0.098205  0  1.00591  0
H  H19  1  0.94112474  0.22910968  0.59293272  1  0  0.081456  0  0.944925  0  0  0.099172  0  1.005858  0  0  0.100525  0  1.005852  0  0  0.084397  0.098206  0  1.00592  0
H  H20  1  0.14699218  0.62616217  0.08805397  1  0  0.075651  0  0.9493  0  0  0.089282  0  1.018515  0  0  0.090858  0  1.017729  0  0  0.083439  0.088124  0  1.019161  0
H  H21  1  0.85300796  0.37383870  0.58805393  1  0  0.075657  0  0.949255  0  0  0.089289  0  1.018476  0  0  0.090866  0  1.017689  0  0  0.083444  0.088131  0  1.019122  0
H  H22  1  0.58677073  0.91845040  0.36112642  1  0  0.05903  0  0.989453  0  0  0.061956  0  1.06753  0  0  0.064723  0  1.064816  0  0  0.091133  0.059856  0  1.069644  0
H  H23  1  0.41322979  0.08154850  0.86112653  1  0  0.059052  0  0.989365  0  0  0.061978  0  1.067444  0  0  0.064745  0  1.06473  0  0  0.091145  0.059877  0  1.06956  0
H  H24  1  0.27865283  0.89973065  0.21466035  1  0  0.106862  0  0.949464  0  0  0.117127  0  1.010518  0  0  0.120485  0  1.009681  0  0  0.101511  0.114772  0  1.011215  0
H  H25  1  0.72134749  0.10026924  0.71466050  1  0  0.106853  0  0.949463  0  0  0.117116  0  1.010526  0  0  0.120473  0  1.009688  0  0  0.101513  0.114761  0  1.011222  0
H  H26  1  0.56722315  0.56054043  0.17609707  1  0  0.097891  0  0.986835  0  0  0.10728  0  1.053016  0  0  0.110454  0  1.052389  0  0  0.09119  0.105065  0  1.053523  0
H  H27  1  0.43277511  0.43945950  0.67609763  1  0  0.097875  0  0.986889  0  0  0.107278  0  1.053043  0  0  0.110449  0  1.052421  0  0  0.091191  0.105065  0  1.053547  0
H  H28  1  0.85579449  0.59201485  0.32653013  1  0  0.063385  0  0.966051  0  0  0.069771  0  1.037679  0  0  0.072635  0  1.034735  0  0  0.096039  0.067667  0  1.039825  0
H  H29  1  0.14420598  0.40798409  0.82652990  1  0  0.06341  0  0.966032  0  0  0.069797  0  1.037657  0  0  0.072663  0  1.034711  0  0  0.09605  0.067694  0  1.039802  0
C  C30  1  0.75405934  0.66485817  0.69785447  1  0  0.121371  0  3.753301  0  0  0.091799  0  4.003403  0  0  0.099431  0  4.022078  0  0  0.032369  0.086908  0  3.990628  0
C  C31  1  0.24594095  0.33514174  0.19785477  1  0  0.121343  0  3.753328  0  0  0.091792  0  4.003413  0  0  0.099424  0  4.022089  0  0  0.032403  0.0869  0  3.990639  0
C  C32  1  0.59399998  0.64628785  0.78090834  1  0  -0.17491  0  3.708516  0  0  -0.188344  0  3.947682  0  0  -0.196936  0  3.969195  0  0  -0.090845  -0.182766  0  3.933143  0
C  C33  1  0.40599844  0.35371197  0.28090867  1  0  -0.174862  0  3.708526  0  0  -0.188296  0  3.947674  0  0  -0.196885  0  3.969192  0  0  -0.090862  -0.18272  0  3.933135  0
C  C34  1  0.40918023  0.72799560  0.80978741  1  0  0.164149  0  3.702131  0  0  0.182436  0  3.934924  0  0  0.187898  0  3.95721  0  0  0.014593  0.179033  0  3.919603  0
C  C35  1  0.59082224  0.27200504  0.30978710  1  0  0.164094  0  3.702026  0  0  0.182395  0  3.934806  0  0  0.187847  0  3.957111  0  0  0.014574  0.178993  0  3.919486  0
C  C36  1  0.39947202  0.82690740  0.75264837  1  0  -0.168533  0  3.69813  0  0  -0.185931  0  3.941827  0  0  -0.194591  0  3.964013  0  0  -0.089123  -0.180373  0  3.926894  0
C  C37  1  0.60053036  0.17309330  0.25264889  1  0  -0.168551  0  3.698205  0  0  -0.185958  0  3.941895  0  0  -0.194615  0  3.964083  0  0  -0.089139  -0.1804  0  3.926962  0
C  C38  1  0.56888093  0.83987183  0.67089868  1  0  0.107231  0  3.761151  0  0  0.0796  0  4.012919  0  0  0.086679  0  4.032106  0  0  0.030524  0.075113  0  3.999782  0
C  C39  1  0.43112131  0.16012811  0.17089843  1  0  0.107237  0  3.761122  0  0  0.079619  0  4.01288  0  0  0.086699  0  4.032066  0  0  0.030541  0.075132  0  3.999745  0
C  C40  1  0.23824964  0.71014394  0.90058949  1  0  -0.164079  0  3.70132  0  0  -0.205238  0  3.945377  0  0  -0.207489  0  3.95817  0  0  -0.164895  -0.203557  0  3.936382  0
C  C41  1  0.76175098  0.28985660  0.40058995  1  0  -0.164023  0  3.701211  0  0  -0.205232  0  3.945307  0  0  -0.207479  0  3.958102  0  0  -0.164879  -0.20355  0  3.936312  0
C  C42  1  0.39502680  0.73540914  0.99659037  1  0  -0.089717  0  3.659475  0  0  -0.124307  0  3.909081  0  0  -0.126147  0  3.923589  0  0  -0.166076  -0.122742  0  3.89883  0
C  C43  1  0.60497397  0.26459131  0.49659007  1  0  -0.089742  0  3.659464  0  0  -0.124274  0  3.909011  0  0  -0.126118  0  3.923524  0  0  -0.166056  -0.122716  0  3.89876  0
C  C44  1  0.22846017  0.71283630  0.09090925  1  0  -0.165949  0  3.701939  0  0  -0.206013  0  3.944348  0  0  -0.208241  0  3.956854  0  0  -0.164997  -0.204366  0  3.935548  0
C  C45  1  0.77154195  0.28716373  0.59090927  1  0  -0.165971  0  3.701895  0  0  -0.206056  0  3.944318  0  0  -0.208284  0  3.956821  0  0  -0.165014  -0.204408  0  3.935518  0
C  C46  1  0.57523769  0.84044680  0.31783425  1  0  0.107399  0  3.763722  0  0  0.07935  0  4.014517  0  0  0.086501  0  4.033846  0  0  0.029817  0.074838  0  4.001284  0
C  C47  1  0.42476279  0.15955298  0.81783429  1  0  0.107348  0  3.763684  0  0  0.0793  0  4.014486  0  0  0.086452  0  4.033815  0  0  0.029784  0.074789  0  4.001253  0
C  C48  1  0.40509317  0.82946691  0.23616212  1  0  -0.168662  0  3.700977  0  0  -0.185882  0  3.943727  0  0  -0.194613  0  3.965754  0  0  -0.08926  -0.180293  0  3.928907  0
C  C49  1  0.59490718  0.17053296  0.73616219  1  0  -0.168596  0  3.701027  0  0  -0.185818  0  3.943779  0  0  -0.19455  0  3.965806  0  0  -0.089229  -0.18023  0  3.928959  0
C  C50  1  0.39660428  0.72786096  0.18271038  1  0  0.166271  0  3.703666  0  0  0.184797  0  3.935478  0  0  0.190327  0  3.95776  0  0  0.014935  0.181352  0  3.920195  0
C  C51  1  0.60339399  0.27213896  0.68270962  1  0  0.166252  0  3.70369  0  0  0.184782  0  3.935506  0  0  0.190312  0  3.957787  0  0  0.014928  0.181337  0  3.920222  0
C  C52  1  0.56336776  0.64114859  0.21540957  1  0  -0.174915  0  3.707846  0  0  -0.189542  0  3.947249  0  0  -0.198253  0  3.968945  0  0  -0.091781  -0.183905  0  3.932577  0
C  C53  1  0.43663257  0.35885215  0.71540944  1  0  -0.174836  0  3.707776  0  0  -0.189472  0  3.947181  0  0  -0.19818  0  3.968871  0  0  -0.091751  -0.183835  0  3.93251  0
C  C54  1  0.72563028  0.65809474  0.29816204  1  0  0.120803  0  3.757986  0  0  0.090992  0  4.008047  0  0  0.09872  0  4.026721  0  0  0.032723  0.086078  0  3.995291  0
C  C55  1  0.27436815  0.34190421  0.79816189  1  0  0.120732  0  3.757911  0  0  0.090917  0  4.007985  0  0  0.098645  0  4.026657  0  0  0.032703  0.086003  0  3.995229  0
I  I56  1  0.08362820  0.00503233  0.49072581  1  0  -0.368362  0  1.105078  0  0  -0.324101  0  1.436535  0  0  -0.340315  0  1.417631  0  0  -0.164853  -0.313222  0  1.449784  0
I  I57  1  0.91637256  0.99496812  0.99072601  1  0  -0.368348  0  1.105078  0  0  -0.324084  0  1.436532  0  0  -0.340299  0  1.417628  0  0  -0.164844  -0.313205  0  1.449781  0
I  I58  1  0.24810023  0.56991798  0.49807986  1  0  -0.357448  0  1.164595  0  0  -0.319429  0  1.513363  0  0  -0.335499  0  1.494987  0  0  -0.151043  -0.308785  0  1.526379  0
I  I59  1  0.75189852  0.43008162  0.99807900  1  0  -0.357444  0  1.1646  0  0  -0.319426  0  1.513372  0  0  -0.335496  0  1.494997  0  0  -0.151044  -0.30878  0  1.526387  0
N  N60  1  0.74210065  0.75993806  0.64371623  1  0  -0.304006  0  3.30957  0  0  -0.224306  0  3.568465  0  0  -0.245588  0  3.592081  0  0  -0.321221  -0.209966  0  3.552073  0
N  N61  1  0.25789955  0.24006191  0.14371587  1  0  -0.304031  0  3.309578  0  0  -0.224359  0  3.568494  0  0  -0.245639  0  3.592108  0  0  -0.321256  -0.210018  0  3.552101  0
N  N62  1  0.73220477  0.75612676  0.34833992  1  0  -0.303085  0  3.313878  0  0  -0.222745  0  3.572665  0  0  -0.244236  0  3.596305  0  0  -0.321954  -0.208268  0  3.556215  0
N  N63  1  0.26779576  0.24387299  0.84834060  1  0  -0.303106  0  3.313932  0  0  -0.222756  0  3.572706  0  0  -0.244249  0  3.596348  0  0  -0.321971  -0.20828  0  3.556253  0
