# generated using pymatgen
data_ZnH18C22(NO)4
_symmetry_space_group_name_H-M   'P 1'
_cell_length_a   10.00111338
_cell_length_b   10.17670732
_cell_length_c   11.14610008
_cell_angle_alpha   99.52345658
_cell_angle_beta   102.51850263
_cell_angle_gamma   112.51939227
_symmetry_Int_Tables_number   1
_chemical_formula_structural   ZnH18C22(NO)4
_chemical_formula_sum   'Zn2 H36 C44 N8 O8'
_cell_volume   983.42051019
_cell_formula_units_Z   2
loop_
 _symmetry_equiv_pos_site_id
 _symmetry_equiv_pos_as_xyz
  1  'x, y, z'
loop_
 _atom_site_type_symbol
 _atom_site_label
 _atom_site_symmetry_multiplicity
 _atom_site_fract_x
 _atom_site_fract_y
 _atom_site_fract_z
 _atom_site_occupancy
 _atom_site_hle17_bader_spin_density
 _atom_site_hle17_ddec_charge
 _atom_site_hle17_ddec_spin_density
 _atom_site_hle17_ddec_sum_bond_order
 _atom_site_hle17_magmom
 _atom_site_hse06_10hf_bader_spin_density
 _atom_site_hse06_10hf_ddec_charge
 _atom_site_hse06_10hf_ddec_spin_density
 _atom_site_hse06_10hf_ddec_sum_bond_order
 _atom_site_hse06_10hf_magmom
 _atom_site_hse06_bader_spin_density
 _atom_site_hse06_ddec_charge
 _atom_site_hse06_ddec_spin_density
 _atom_site_hse06_ddec_sum_bond_order
 _atom_site_hse06_magmom
 _atom_site_pbe_bader_spin_density
 _atom_site_pbe_cm5_charge
 _atom_site_pbe_ddec_charge
 _atom_site_pbe_ddec_spin_density
 _atom_site_pbe_ddec_sum_bond_order
 _atom_site_pbe_magmom
Zn  Zn0  1  0.72183928  0.03352543  0.88030032  1  0  1.001261  0  1.885491  0  0  0.812195  0  2.364426  0  0  0.857688  0  2.310543  0  0  0.698658  0.780698  0  2.400977  0
Zn  Zn1  1  0.27816134  0.96647254  0.11969892  1  0  1.00124  0  1.885484  0  0  0.812164  0  2.364409  0  0  0.857659  0  2.310528  0  0  0.698672  0.780673  0  2.400966  0
H  H2  1  0.98360761  0.24003253  0.54450736  1  0  0.096811  0  0.96492  0  0  0.106089  0  1.028545  0  0  0.109506  0  1.026804  0  0  0.100713  0.103228  0  1.030759  0
H  H3  1  0.01639860  0.75996876  0.45549437  1  0  0.096795  0  0.964926  0  0  0.106073  0  1.028556  0  0  0.10949  0  1.026817  0  0  0.10072  0.103214  0  1.030766  0
H  H4  1  0.02761490  0.11934860  0.10786032  1  0  0.121176  0  0.947561  0  0  0.125738  0  1.017015  0  0  0.128974  0  1.012809  0  0  0.140112  0.122934  0  1.020743  0
H  H5  1  0.97238414  0.88065269  0.89213909  1  0  0.121218  0  0.94747  0  0  0.125755  0  1.016949  0  0  0.128988  0  1.012749  0  0  0.140124  0.12295  0  1.020672  0
H  H6  1  0.78143009  0.36334277  0.01062328  1  0  0.097927  0  0.974621  0  0  0.106954  0  1.03716  0  0  0.108641  0  1.037805  0  0  0.114406  0.105713  0  1.036934  0
H  H7  1  0.21856645  0.63665521  0.98937515  1  0  0.097937  0  0.9747  0  0  0.106991  0  1.037202  0  0  0.108678  0  1.037844  0  0  0.114428  0.105753  0  1.036981  0
H  H8  1  0.37219392  0.74199105  0.72971045  1  0  0.098282  0  0.97967  0  0  0.107357  0  1.043172  0  0  0.110707  0  1.04072  0  0  0.101025  0.105014  0  1.044994  0
H  H9  1  0.62780407  0.25801246  0.27028819  1  0  0.098277  0  0.979668  0  0  0.107348  0  1.043176  0  0  0.110697  0  1.040724  0  0  0.101025  0.105005  0  1.044996  0
H  H10  1  0.06185427  0.37810235  0.40084913  1  0  0.086685  0  0.974199  0  0  0.098173  0  1.036652  0  0  0.100459  0  1.036126  0  0  0.101872  0.096542  0  1.037283  0
H  H11  1  0.93814425  0.62190005  0.59914945  1  0  0.086692  0  0.974182  0  0  0.098193  0  1.036619  0  0  0.100482  0  1.036088  0  0  0.101867  0.096562  0  1.037253  0
H  H12  1  0.30403723  0.75363933  0.29572317  1  0  0.103983  0  0.988693  0  0  0.109118  0  1.057946  0  0  0.111822  0  1.055087  0  0  0.132401  0.107433  0  1.0594  0
H  H13  1  0.69596240  0.24635643  0.70427555  1  0  0.103968  0  0.988683  0  0  0.109106  0  1.057941  0  0  0.11181  0  1.055082  0  0  0.132414  0.107422  0  1.059388  0
H  H14  1  0.63212683  0.02633588  0.15268076  1  0  0.111013  0  0.946184  0  0  0.121301  0  1.004224  0  0  0.123815  0  1.003122  0  0  0.121486  0.119583  0  1.005011  0
H  H15  1  0.36787334  0.97365878  0.84731790  1  0  0.110999  0  0.946207  0  0  0.121316  0  1.004207  0  0  0.12383  0  1.003105  0  0  0.121483  0.119582  0  1.00501  0
H  H16  1  0.77770836  0.64253641  0.11564762  1  0  0.112484  0  0.942605  0  0  0.12184  0  1.001734  0  0  0.125675  0  0.999471  0  0  0.105601  0.118741  0  1.004029  0
H  H17  1  0.22229325  0.35746379  0.88435573  1  0  0.112507  0  0.942493  0  0  0.121851  0  1.001646  0  0  0.125697  0  0.999371  0  0  0.105622  0.118748  0  1.003949  0
H  H18  1  0.91956138  0.83194357  0.63474968  1  0  0.087488  0  0.983798  0  0  0.093683  0  1.055899  0  0  0.096779  0  1.054072  0  0  0.097112  0.091371  0  1.057474  0
H  H19  1  0.08044433  0.16805662  0.36525178  1  0  0.087498  0  0.983766  0  0  0.093675  0  1.055874  0  0  0.09679  0  1.054038  0  0  0.097102  0.091362  0  1.057451  0
H  H20  1  0.36934813  0.61168923  0.86416011  1  0  0.089788  0  0.986793  0  0  0.098559  0  1.053098  0  0  0.101443  0  1.051671  0  0  0.09888  0.096319  0  1.054557  0
H  H21  1  0.63065653  0.38831317  0.13584147  1  0  0.089824  0  0.98672  0  0  0.09857  0  1.053055  0  0  0.101453  0  1.051627  0  0  0.098892  0.096328  0  1.054509  0
H  H22  1  0.26730914  0.31050043  0.25801491  1  0  0.104224  0  0.913402  0  0  0.12003  0  0.975699  0  0  0.120997  0  0.975031  0  0  0.122229  0.119295  0  0.976082  0
H  H23  1  0.73268888  0.68950086  0.74198431  1  0  0.104255  0  0.913395  0  0  0.120037  0  0.975704  0  0  0.121002  0  0.975036  0  0  0.122249  0.119299  0  0.976088  0
H  H24  1  0.31789065  0.46777268  0.19915280  1  0  0.07949  0  0.945145  0  0  0.092508  0  1.012007  0  0  0.092732  0  1.012972  0  0  0.110468  0.092324  0  1.011272  0
H  H25  1  0.68210687  0.53222751  0.80084615  1  0  0.07947  0  0.945111  0  0  0.092484  0  1.01198  0  0  0.092704  0  1.012946  0  0  0.110482  0.092296  0  1.011247  0
H  H26  1  0.05834931  0.55574813  0.19038350  1  0  0.135548  0  0.981085  0  0  0.142258  0  1.046793  0  0  0.145911  0  1.044001  0  0  0.122153  0.139356  0  1.049308  0
H  H27  1  0.94164722  0.44424985  0.80961583  1  0  0.135552  0  0.98113  0  0  0.142273  0  1.046808  0  0  0.145925  0  1.044016  0  0  0.122151  0.139368  0  1.049332  0
H  H28  1  0.11755424  0.52462263  0.62137544  1  0  0.085859  0  0.963824  0  0  0.096447  0  1.026027  0  0  0.098741  0  1.025803  0  0  0.098825  0.094649  0  1.026585  0
H  H29  1  0.88244322  0.47538199  0.37862415  1  0  0.085947  0  0.96385  0  0  0.096495  0  1.026084  0  0  0.098814  0  1.025834  0  0  0.098828  0.094693  0  1.026645  0
H  H30  1  0.56544134  0.80459332  0.61744776  1  0  0.100511  0  0.971346  0  0  0.108297  0  1.038885  0  0  0.11175  0  1.036802  0  0  0.099717  0.105884  0  1.040181  0
H  H31  1  0.43455770  0.19540797  0.38255165  1  0  0.100533  0  0.971361  0  0  0.108315  0  1.038901  0  0  0.111769  0  1.036815  0  0  0.099722  0.105903  0  1.040198  0
H  H32  1  0.66027079  0.72977368  0.45514736  1  0  0.089222  0  0.934699  0  0  0.103914  0  0.998578  0  0  0.104067  0  0.999354  0  0  0.113713  0.103631  0  0.998259  0
H  H33  1  0.33973082  0.27022652  0.54485509  1  0  0.089252  0  0.934731  0  0  0.10391  0  0.998653  0  0  0.104065  0  0.999425  0  0  0.113693  0.103609  0  0.998357  0
H  H34  1  0.54694652  0.58124022  0.31614613  1  0  0.083067  0  0.932648  0  0  0.097397  0  0.996058  0  0  0.09738  0  0.997249  0  0  0.110382  0.097078  0  0.995784  0
H  H35  1  0.45305410  0.41875776  0.68385580  1  0  0.083069  0  0.932627  0  0  0.097431  0  0.996028  0  0  0.097409  0  0.997224  0  0  0.110396  0.09712  0  0.995746  0
H  H36  1  0.75652530  0.87132456  0.28548693  1  0  0.119762  0  0.968673  0  0  0.129497  0  1.029106  0  0  0.131012  0  1.030419  0  0  0.123219  0.128734  0  1.027861  0
H  H37  1  0.24347790  0.12867231  0.71451445  1  0  0.119795  0  0.968735  0  0  0.129509  0  1.029174  0  0  0.131005  0  1.030511  0  0  0.123236  0.128744  0  1.027932  0
C  C38  1  0.99181186  0.13541462  0.52421869  1  0  -0.086507  0  3.749804  0  0  -0.10872  0  3.996936  0  0  -0.109772  0  4.01672  0  0  -0.087351  -0.108102  0  3.983993  0
C  C39  1  0.00819078  0.86458557  0.47578127  1  0  -0.08649  0  3.749838  0  0  -0.108723  0  3.996968  0  0  -0.109774  0  4.016748  0  0  -0.087361  -0.108101  0  3.984021  0
C  C40  1  0.88651574  0.08364707  0.70556616  1  0  0.646021  0  3.911947  0  0  0.597412  0  4.20297  0  0  0.631581  0  4.194669  0  0  0.205001  0.574444  0  4.207453  0
C  C41  1  0.11348436  0.91635201  0.29443224  1  0  0.646044  0  3.911883  0  0  0.597407  0  4.202917  0  0  0.631578  0  4.194617  0  0  0.205029  0.574449  0  4.207391  0
C  C42  1  0.94567721  0.03990401  0.59985358  1  0  -0.050738  0  3.739863  0  0  -0.027664  0  3.968703  0  0  -0.033469  0  3.989454  0  0  -0.014844  -0.023689  0  3.954065  0
C  C43  1  0.05432444  0.96009396  0.40014587  1  0  -0.050767  0  3.739938  0  0  -0.027622  0  3.968673  0  0  -0.033428  0  3.989433  0  0  -0.014839  -0.023665  0  3.954061  0
C  C44  1  0.99643103  0.21002732  0.10557962  1  0  0.193684  0  3.605909  0  0  0.128803  0  3.871015  0  0  0.144541  0  3.881138  0  0  0.153733  0.118559  0  3.864289  0
C  C45  1  0.00356702  0.78997176  0.89442017  1  0  0.193623  0  3.605858  0  0  0.128772  0  3.87096  0  0  0.144509  0  3.881086  0  0  0.153738  0.118539  0  3.864219  0
C  C46  1  0.66987438  0.79425119  0.97773259  1  0  0.614168  0  3.969178  0  0  0.564868  0  4.266145  0  0  0.598053  0  4.260102  0  0  0.192334  0.542442  0  4.26913  0
C  C47  1  0.33012879  0.20574789  0.02227000  1  0  0.61422  0  3.969062  0  0  0.564872  0  4.266119  0  0  0.598069  0  4.260078  0  0  0.192307  0.542442  0  4.269102  0
C  C48  1  0.87364454  0.34131500  0.05862199  1  0  0.004445  0  3.760475  0  0  -0.027361  0  4.021343  0  0  -0.025729  0  4.042573  0  0  -0.003669  -0.028672  0  4.007383  0
C  C49  1  0.12635453  0.65868409  0.94137801  1  0  0.00447  0  3.760479  0  0  -0.027357  0  4.02134  0  0  -0.025725  0  4.042567  0  0  -0.003685  -0.028676  0  4.007396  0
C  C50  1  0.28236515  0.50468463  0.38459054  1  0  0.022927  0  3.721677  0  0  0.036489  0  3.963332  0  0  0.035333  0  3.987466  0  0  -0.012936  0.037138  0  3.947063  0
C  C51  1  0.71763185  0.49531667  0.61540668  1  0  0.022886  0  3.721722  0  0  0.036463  0  3.96334  0  0  0.035309  0  3.987475  0  0  -0.012935  0.037118  0  3.94706  0
C  C52  1  0.42531482  0.62638341  0.44618756  1  0  0.009249  0  3.743246  0  0  0.027828  0  3.979012  0  0  0.025912  0  4.003968  0  0  -0.015254  0.029104  0  3.962125  0
C  C53  1  0.57468574  0.37361899  0.55381232  1  0  0.009253  0  3.743231  0  0  0.027844  0  3.978989  0  0  0.025926  0  4.003944  0  0  -0.015285  0.029119  0  3.962097  0
C  C54  1  0.58152570  0.64218383  0.98909024  1  0  -0.06145  0  3.772322  0  0  -0.040145  0  4.005735  0  0  -0.0462  0  4.028025  0  0  -0.021015  -0.036228  0  3.990696  0
C  C55  1  0.41847641  0.35781746  0.01090978  1  0  -0.061445  0  3.77237  0  0  -0.040168  0  4.005857  0  0  -0.046268  0  4.028211  0  0  -0.021023  -0.036249  0  3.990817  0
C  C56  1  0.34482442  0.67543416  0.63307323  1  0  -0.062876  0  3.767442  0  0  -0.079355  0  4.017555  0  0  -0.081171  0  4.038823  0  0  -0.091973  -0.078321  0  4.003435  0
C  C57  1  0.65517258  0.32456714  0.36692399  1  0  -0.062849  0  3.767412  0  0  -0.079319  0  4.017511  0  0  -0.081135  0  4.038787  0  0  -0.091967  -0.078281  0  4.003384  0
C  C58  1  0.17319082  0.47087987  0.44899401  1  0  -0.121757  0  3.77223  0  0  -0.143338  0  4.023522  0  0  -0.146373  0  4.04632  0  0  -0.095168  -0.141652  0  4.008681  0
C  C59  1  0.82680766  0.52912475  0.55100669  1  0  -0.121693  0  3.772196  0  0  -0.143289  0  4.023476  0  0  -0.146327  0  4.046283  0  0  -0.09513  -0.141608  0  4.00864  0
C  C60  1  0.40897160  0.80459308  0.27321101  1  0  0.14563  0  3.66372  0  0  0.08541  0  3.922459  0  0  0.099068  0  3.935231  0  0  0.134818  0.076855  0  3.912632  0
C  C61  1  0.59102906  0.19540267  0.72678611  1  0  0.14582  0  3.663583  0  0  0.085585  0  3.922339  0  0  0.099244  0  3.935106  0  0  0.134901  0.077027  0  3.912508  0
C  C62  1  0.58282327  0.94703833  0.20297439  1  0  0.014011  0  3.72439  0  0  -0.018154  0  3.986732  0  0  -0.016834  0  4.007208  0  0  0.002734  -0.019232  0  3.97328  0
C  C63  1  0.41718040  0.05296185  0.79702488  1  0  0.014068  0  3.724397  0  0  -0.018124  0  3.986714  0  0  -0.016801  0  4.007182  0  0  0.002816  -0.019188  0  3.973262  0
C  C64  1  0.65607067  0.57923079  0.06563719  1  0  -0.085611  0  3.733396  0  0  -0.106215  0  3.98042  0  0  -0.106961  0  3.998743  0  0  -0.088511  -0.105487  0  3.968377  0
C  C65  1  0.34393804  0.42077383  0.93436822  1  0  -0.085641  0  3.733597  0  0  -0.10623  0  3.980649  0  0  -0.106976  0  3.998988  0  0  -0.08855  -0.105498  0  3.968616  0
C  C66  1  0.95435118  0.90430816  0.57447132  1  0  -0.087286  0  3.760702  0  0  -0.109527  0  4.012424  0  0  -0.109752  0  4.03145  0  0  -0.089396  -0.109297  0  3.999489  0
C  C67  1  0.04565351  0.09569202  0.42552994  1  0  -0.087309  0  3.760771  0  0  -0.109535  0  4.012461  0  0  -0.109782  0  4.031472  0  0  -0.089398  -0.109299  0  3.999527  0
C  C68  1  0.42545984  0.56171725  0.92358125  1  0  -0.086466  0  3.753  0  0  -0.108372  0  4.002127  0  0  -0.108633  0  4.021151  0  0  -0.093226  -0.108421  0  3.989746  0
C  C69  1  0.57454335  0.43827962  0.07642192  1  0  -0.08644  0  3.75273  0  0  -0.10832  0  4.001877  0  0  -0.108568  0  4.020912  0  0  -0.093235  -0.108366  0  3.989488  0
C  C70  1  0.24594790  0.40805519  0.25224952  1  0  -0.041744  0  3.645518  0  0  -0.110186  0  3.899083  0  0  -0.105546  0  3.909524  0  0  -0.043674  -0.112971  0  3.891532  0
C  C71  1  0.75405061  0.59194721  0.74774996  1  0  -0.041676  0  3.645448  0  0  -0.110106  0  3.899016  0  0  -0.105459  0  3.909454  0  0  -0.043716  -0.112888  0  3.891461  0
C  C72  1  0.01098634  0.43754423  0.14674102  1  0  -0.077343  0  3.657592  0  0  -0.115355  0  3.909733  0  0  -0.115087  0  3.92952  0  0  -0.00174  -0.115235  0  3.896687  0
C  C73  1  0.98900914  0.56245597  0.85325843  1  0  -0.077373  0  3.657667  0  0  -0.115399  0  3.909817  0  0  -0.115133  0  3.929608  0  0  -0.001727  -0.115277  0  3.896769  0
C  C74  1  0.20363338  0.55453024  0.57242215  1  0  -0.067073  0  3.777239  0  0  -0.078526  0  4.022705  0  0  -0.080719  0  4.04519  0  0  -0.091286  -0.076488  0  4.007828  0
C  C75  1  0.79636663  0.44547547  0.42757452  1  0  -0.067234  0  3.777244  0  0  -0.078654  0  4.0227  0  0  -0.080871  0  4.045182  0  0  -0.091333  -0.076617  0  4.007822  0
C  C76  1  0.45445478  0.71041122  0.56994546  1  0  -0.104671  0  3.723235  0  0  -0.126292  0  3.971315  0  0  -0.128513  0  3.992218  0  0  -0.090386  -0.124321  0  3.956813  0
C  C77  1  0.54554324  0.28959008  0.43005376  1  0  -0.104712  0  3.723248  0  0  -0.126331  0  3.971322  0  0  -0.12855  0  3.992226  0  0  -0.090384  -0.124367  0  3.956825  0
C  C78  1  0.54796825  0.67459308  0.38260759  1  0  -0.031277  0  3.636484  0  0  -0.099266  0  3.88564  0  0  -0.09406  0  3.895803  0  0  -0.045289  -0.102712  0  3.879094  0
C  C79  1  0.45203032  0.32540490  0.61739214  1  0  -0.031253  0  3.636518  0  0  -0.099284  0  3.885726  0  0  -0.094073  0  3.895887  0  0  -0.045264  -0.102722  0  3.879178  0
C  C80  1  0.64571247  0.87109648  0.26836969  1  0  -0.053429  0  3.65808  0  0  -0.095272  0  3.914789  0  0  -0.094593  0  3.936418  0  0  0.004179  -0.095844  0  3.900043  0
C  C81  1  0.35428508  0.12890151  0.73163163  1  0  -0.053447  0  3.658075  0  0  -0.095269  0  3.914784  0  0  -0.094575  0  3.936425  0  0  0.004134  -0.095842  0  3.900041  0
N  N82  1  0.43521421  0.90442500  0.20653128  1  0  -0.383473  0  3.305666  0  0  -0.301581  0  3.601949  0  0  -0.32127  0  3.614306  0  0  -0.360342  -0.288176  0  3.593145  0
N  N83  1  0.56478546  0.09556855  0.79346622  1  0  -0.383581  0  3.305606  0  0  -0.301684  0  3.601916  0  0  -0.321375  0  3.614266  0  0  -0.3604  -0.288277  0  3.593102  0
N  N84  1  0.86577799  0.20026038  0.03395461  1  0  -0.393131  0  3.328582  0  0  -0.310968  0  3.631893  0  0  -0.331152  0  3.641847  0  0  -0.364649  -0.297432  0  3.624918  0
N  N85  1  0.13421956  0.79973760  0.96604492  1  0  -0.393082  0  3.328562  0  0  -0.310931  0  3.631876  0  0  -0.331115  0  3.641831  0  0  -0.364649  -0.297401  0  3.624907  0
N  N86  1  0.08743226  0.35241344  0.17496570  1  0  -0.06187  0  3.560196  0  0  0.034009  0  3.776834  0  0  0.018838  0  3.802836  0  0  -0.243301  0.044115  0  3.758802  0
N  N87  1  0.91256579  0.64758565  0.82503319  1  0  -0.061947  0  3.560331  0  0  0.033944  0  3.776951  0  0  0.018773  0  3.802955  0  0  -0.243312  0.044049  0  3.758913  0
N  N88  1  0.53430329  0.78154311  0.31201272  1  0  -0.060897  0  3.547695  0  0  0.035817  0  3.763381  0  0  0.02119  0  3.788734  0  0  -0.238581  0.04568  0  3.745822  0
N  N89  1  0.46569988  0.21845597  0.68798719  1  0  -0.061061  0  3.54767  0  0  0.035678  0  3.763374  0  0  0.021051  0  3.78872  0  0  -0.238681  0.045541  0  3.745816  0
O  O90  1  0.81675017  0.97759119  0.75245399  1  0  -0.654962  0  2.038893  0  0  -0.580529  0  2.313672  0  0  -0.608713  0  2.297451  0  0  -0.332222  -0.560736  0  2.324211  0
O  O91  1  0.18324890  0.02240789  0.24754510  1  0  -0.654935  0  2.038928  0  0  -0.580494  0  2.313704  0  0  -0.608679  0  2.297491  0  0  -0.332195  -0.5607  0  2.32424  0
O  O92  1  0.90354903  0.21405578  0.73986916  1  0  -0.617519  0  1.926668  0  0  -0.571841  0  2.150674  0  0  -0.59374  0  2.140883  0  0  -0.322568  -0.556532  0  2.157056  0
O  O93  1  0.09645312  0.78594329  0.26012875  1  0  -0.617577  0  1.926608  0  0  -0.57189  0  2.150619  0  0  -0.59379  0  2.140828  0  0  -0.322614  -0.556581  0  2.156995  0
O  O94  1  0.59148750  0.84340745  0.90410397  1  0  -0.657585  0  2.059204  0  0  -0.581667  0  2.334175  0  0  -0.610028  0  2.319607  0  0  -0.33918  -0.561718  0  2.342867  0
O  O95  1  0.40851309  0.15659274  0.09589739  1  0  -0.657559  0  2.059222  0  0  -0.581611  0  2.334198  0  0  -0.609972  0  2.319624  0  0  -0.339157  -0.561667  0  2.342898  0
O  O96  1  0.80920406  0.86399590  0.03554043  1  0  -0.607062  0  1.914586  0  0  -0.561674  0  2.141344  0  0  -0.584309  0  2.133982  0  0  -0.319203  -0.545608  0  2.145834  0
O  O97  1  0.19079749  0.13600872  0.96446266  1  0  -0.607132  0  1.914501  0  0  -0.561707  0  2.141263  0  0  -0.58434  0  2.133894  0  0  -0.319202  -0.545634  0  2.145746  0
