# generated using pymatgen
data_Zn4H32C32N2O13
_symmetry_space_group_name_H-M   'P 1'
_cell_length_a   17.89069266
_cell_length_b   18.52934722
_cell_length_c   20.20421610
_cell_angle_alpha   61.18491730
_cell_angle_beta   63.35932274
_cell_angle_gamma   89.91504213
_symmetry_Int_Tables_number   1
_chemical_formula_structural   Zn4H32C32N2O13
_chemical_formula_sum   'Zn8 H64 C64 N4 O26'
_cell_volume   5044.58301208
_cell_formula_units_Z   2
loop_
 _symmetry_equiv_pos_site_id
 _symmetry_equiv_pos_as_xyz
  1  'x, y, z'
loop_
 _atom_site_type_symbol
 _atom_site_label
 _atom_site_symmetry_multiplicity
 _atom_site_fract_x
 _atom_site_fract_y
 _atom_site_fract_z
 _atom_site_occupancy
 _atom_site_pbe_bader_charge
 _atom_site_pbe_bader_spin_density
 _atom_site_pbe_cm5_charge
 _atom_site_pbe_ddec_charge
 _atom_site_pbe_ddec_spin_density
 _atom_site_pbe_ddec_sum_bond_order
 _atom_site_pbe_magmom
Zn  Zn0  1  0.12851641  0.54285683  0.92480390  1  1.297375  0  0.666164  0.950427  0  2.417771  0
Zn  Zn1  1  0.95950537  0.54759207  0.07080974  1  1.314162  0  0.666384  0.957467  0  2.379763  0
Zn  Zn2  1  0.96810905  0.38048383  0.06265189  1  1.304329  0  0.665777  0.946671  0  2.433095  0
Zn  Zn3  1  0.95538296  0.54488740  0.91138743  1  1.315033  0  0.66781  0.966034  0  2.331635  0
Zn  Zn4  1  0.37748159  0.97042734  0.06155767  1  1.299026  0  0.665834  0.950119  0  2.417246  0
Zn  Zn5  1  0.54280222  0.12773273  0.91976142  1  1.298754  0  0.665552  0.945289  0  2.433881  0
Zn  Zn6  1  0.53948510  0.96057745  0.91337254  1  1.311636  0  0.66754  0.959366  0  2.379125  0
Zn  Zn7  1  0.55342017  0.96112297  0.06978478  1  1.310132  0  0.667852  0.967566  0  2.330697  0
H  H8  1  0.42895929  0.82671838  0.34962183  1  0.052067  0  0.101395  0.104277  0  1.03022  0
H  H9  1  0.20719435  0.84131318  0.31857386  1  0.073827  0  0.102775  0.121858  0  1.007211  0
H  H10  1  0.08481053  0.68735532  0.63401754  1  0.036617  0  0.100765  0.104381  0  1.031706  0
H  H11  1  0.30607512  0.66654990  0.66584788  1  0.083684  0  0.103489  0.121643  0  1.006751  0
H  H12  1  0.67164634  0.08513626  0.63910505  1  0.072935  0  0.10206  0.105466  0  1.030451  0
H  H13  1  0.66373912  0.30489116  0.65884520  1  0.064134  0  0.102936  0.120821  0  1.007809  0
H  H14  1  0.81804475  0.42253318  0.34506625  1  0.052622  0  0.101484  0.106186  0  1.030583  0
H  H15  1  0.83624354  0.20288903  0.32528074  1  0.064572  0  0.10356  0.121617  0  1.006443  0
H  H16  1  0.21517687  0.31638174  0.88448173  1  0.033116  0  0.091672  0.086841  0  0.978869  0
H  H17  1  0.13066502  0.22975234  0.98621809  1  0.062215  0  0.092966  0.09197  0  0.984518  0
H  H18  1  0.22336625  0.14092751  0.97937499  1  0.030837  0  0.092831  0.092731  0  0.985704  0
H  H19  1  0.30833431  0.22899604  0.87953938  1  0.018909  0  0.091676  0.087236  0  0.978381  0
H  H20  1  0.20061587  0.10961380  0.12402322  1  0.023135  0  0.09211  0.092385  0  0.985988  0
H  H21  1  0.27217140  0.17195756  0.12704565  1  0.029249  0  0.091082  0.085627  0  0.978499  0
H  H22  1  0.11145124  0.20211945  0.12870667  1  0.020146  0  0.091821  0.092123  0  0.988932  0
H  H23  1  0.18579701  0.26587340  0.12764523  1  0.002513  0  0.089844  0.084298  0  0.979022  0
H  H24  1  0.32084681  0.40980239  0.88273459  1  0.020436  0  0.08936  0.087943  0  0.986322  0
H  H25  1  0.30753551  0.39113814  0.98175687  1  0.025709  0  0.089353  0.086429  0  0.981319  0
H  H26  1  0.39586363  0.29785948  0.98345389  1  0.013726  0  0.089283  0.086496  0  0.982647  0
H  H27  1  0.41226777  0.31951067  0.88249654  1  0.050163  0  0.089015  0.086879  0  0.985882  0
H  H28  1  0.90657914  0.81539033  0.87770909  1  0.030064  0  0.091336  0.085977  0  0.978158  0
H  H29  1  0.88719198  0.78983735  0.98149777  1  0.016808  0  0.092256  0.089817  0  0.984693  0
H  H30  1  0.79811537  0.88228634  0.98148167  1  0.01802  0  0.092181  0.089737  0  0.984053  0
H  H31  1  0.81703510  0.90641684  0.87824124  1  0.038411  0  0.090643  0.085132  0  0.97933  0
H  H32  1  0.67412659  0.75900082  0.12084215  1  0.035042  0  0.091116  0.091363  0  0.989855  0
H  H33  1  0.60301061  0.69601566  0.11814971  1  0.012164  0  0.089328  0.08348  0  0.980248  0
H  H34  1  0.76227514  0.66551651  0.12043852  1  0.050423  0  0.091824  0.093221  0  0.990339  0
H  H35  1  0.69175786  0.60416286  0.11567348  1  0.034309  0  0.089614  0.084492  0  0.978975  0
H  H36  1  0.80729324  0.72681617  0.86942653  1  0.029753  0  0.089631  0.088801  0  0.987413  0
H  H37  1  0.72008178  0.63974125  0.96595830  1  0.009498  0  0.089207  0.085887  0  0.981821  0
H  H38  1  0.62934414  0.73043887  0.96895563  1  0.039683  0  0.088669  0.084915  0  0.981247  0
H  H39  1  0.71621094  0.81711468  0.87167587  1  0.035528  0  0.088864  0.087376  0  0.988455  0
H  H40  1  0.17502112  0.80757730  0.91824014  1  0.021787  0  0.091533  0.086546  0  0.978191  0
H  H41  1  0.26522148  0.77651158  0.86502445  1  0.008806  0  0.093938  0.094238  0  0.982153  0
H  H42  1  0.35626883  0.87232002  0.85942385  1  0.039317  0  0.094111  0.093539  0  0.981535  0
H  H43  1  0.26534666  0.90199792  0.91381637  1  0.036472  0  0.091775  0.086432  0  0.977801  0
H  H44  1  0.40107644  0.74938471  0.94635321  1  0.042961  0  0.092192  0.093436  0  0.987384  0
H  H45  1  0.34378507  0.69271903  0.06218304  1  0.022427  0  0.088765  0.08199  0  0.981355  0
H  H46  1  0.30859913  0.65240025  0.95405905  1  0.050496  0  0.092665  0.094494  0  0.987471  0
H  H47  1  0.25060717  0.59777011  0.06982183  1  0.011355  0  0.08957  0.083984  0  0.979041  0
H  H48  1  0.08986290  0.72690450  0.08539084  1  0.039427  0  0.089372  0.088762  0  0.987028  0
H  H49  1  0.12063068  0.64093332  0.14695771  1  0.023306  0  0.088413  0.084665  0  0.983181  0
H  H50  1  0.21281945  0.73554096  0.14153598  1  0.005821  0  0.088149  0.085028  0  0.983505  0
H  H51  1  0.18166897  0.82136416  0.08045058  1  0.017236  0  0.089241  0.088769  0  0.988092  0
H  H52  1  0.91426187  0.28210101  0.90454113  1  0.041204  0  0.09168  0.087958  0  0.978115  0
H  H53  1  0.87643398  0.36502713  0.84756328  1  0.045168  0  0.091955  0.09039  0  0.981324  0
H  H54  1  0.79081712  0.26549542  0.85226521  1  0.064003  0  0.09255  0.092267  0  0.987127  0
H  H55  1  0.82559007  0.18234029  0.91317811  1  0.041603  0  0.091121  0.085608  0  0.978229  0
H  H56  1  0.66074184  0.30685392  0.93024761  1  0.038852  0  0.091806  0.092811  0  0.989591  0
H  H57  1  0.60026385  0.24999824  0.04603740  1  0.016945  0  0.090305  0.085411  0  0.978553  0
H  H58  1  0.74706390  0.40289462  0.92924647  1  0.054894  0  0.090991  0.091207  0  0.988978  0
H  H59  1  0.68801990  0.34354629  0.04513196  1  0.023404  0  0.089489  0.083655  0  0.979903  0
H  H60  1  0.83040532  0.19540215  0.07186393  1  0.022223  0  0.089965  0.090222  0  0.989076  0
H  H61  1  0.73993731  0.22174696  0.12996744  1  0.019061  0  0.090203  0.087058  0  0.978805  0
H  H62  1  0.64778599  0.12827128  0.13422991  1  0.023374  0  0.090196  0.087685  0  0.980981  0
H  H63  1  0.73784597  0.09847524  0.08039918  1  0.014524  0  0.089284  0.086854  0  0.98707  0
H  H64  1  0.46513268  0.76195681  0.43690373  1  0.440028  0  0.305394  0.298446  0  0.960758  0
H  H65  1  0.44600068  0.71775232  0.54049124  1  0.424482  0  0.309449  0.302572  0  0.940277  0
H  H66  1  0.04778149  0.70710141  0.54880018  1  0.43884  0  0.302907  0.293747  0  0.963517  0
H  H67  1  0.06704280  0.76700128  0.44482478  1  0.432167  0  0.308602  0.301066  0  0.94136  0
H  H68  1  0.74004639  0.04840145  0.55744590  1  0.435685  0  0.305075  0.297672  0  0.961196  0
H  H69  1  0.78403158  0.06526973  0.45572908  1  0.427386  0  0.309653  0.302861  0  0.939064  0
H  H70  1  0.80384340  0.45926358  0.42718351  1  0.440933  0  0.304773  0.297001  0  0.960845  0
H  H71  1  0.74339523  0.44235356  0.52868946  1  0.431648  0  0.308417  0.301201  0  0.940008  0
C  C72  1  0.13820046  0.63596297  0.00568855  1  1.5388  0  0.234188  0.603558  0  4.100118  0
C  C73  1  0.87817293  0.37406342  0.23027813  1  1.513631  0  0.224757  0.605267  0  4.157565  0
C  C74  1  0.14609885  0.36550076  0.99955744  1  1.527551  0  0.233998  0.600813  0  4.104056  0
C  C75  1  0.86510022  0.36932674  0.98405677  1  1.548931  0  0.233649  0.600795  0  4.099806  0
C  C76  1  0.13246561  0.62523898  0.75492450  1  1.55936  0  0.224219  0.605222  0  4.154455  0
C  C77  1  0.86155222  0.64307162  0.98813572  1  1.530024  0  0.234955  0.604675  0  4.095759  0
C  C78  1  0.36463301  0.14555974  0.99483889  1  1.533258  0  0.233278  0.603161  0  4.096448  0
C  C79  1  0.61386641  0.13364841  0.75377318  1  1.532674  0  0.224831  0.604495  0  4.16017  0
C  C80  1  0.35961634  0.86433374  0.99448086  1  1.539314  0  0.234333  0.603759  0  4.097859  0
C  C81  1  0.64346183  0.86516536  0.99029810  1  1.550116  0  0.236013  0.607486  0  4.090028  0
C  C82  1  0.38002199  0.88628647  0.22897573  1  1.560071  0  0.225212  0.608208  0  4.150512  0
C  C83  1  0.64889112  0.13905891  0.99181557  1  1.55858  0  0.234597  0.605189  0  4.091485  0
C  C84  1  0.35841869  0.81002545  0.38072530  1  -0.007265  0  -0.101528  -0.172703  0  3.987927  0
C  C85  1  0.23236361  0.81901970  0.36311184  1  0.016066  0  -0.112379  -0.244051  0  3.975721  0
C  C86  1  0.17588297  0.77353215  0.45332327  1  0.425329  0  0.097683  0.262099  0  4.089536  0
C  C87  1  0.21032209  0.74511043  0.51112205  1  0.01317  0  -0.011827  -0.003453  0  3.967547  0
C  C88  1  0.15520175  0.70033572  0.60318544  1  -0.081248  0  -0.102749  -0.174708  0  3.993056  0
C  C89  1  0.28094470  0.68937475  0.62125557  1  0.002084  0  -0.113164  -0.245045  0  3.971404  0
C  C90  1  0.33756079  0.73374408  0.53102895  1  0.396023  0  0.09895  0.266018  0  4.083729  0
C  C91  1  0.30332610  0.76360150  0.47295163  1  0.020758  0  -0.011054  -0.005183  0  3.961928  0
C  C92  1  0.32320436  0.83741260  0.32671314  1  -0.047353  0  -0.024411  -0.017885  0  4.046289  0
C  C93  1  0.19019211  0.67294546  0.65737160  1  -0.01856  0  -0.025337  -0.018892  0  4.048231  0
C  C94  1  0.69047369  0.15462927  0.60526922  1  -0.029276  0  -0.101176  -0.171155  0  3.992079  0
C  C95  1  0.68498493  0.27959862  0.61656288  1  0.066466  0  -0.110728  -0.240939  0  3.975344  0
C  C96  1  0.73222272  0.33450818  0.52583866  1  0.342532  0  0.096632  0.260581  0  4.090243  0
C  C97  1  0.75911127  0.29968730  0.47125901  1  0.067414  0  -0.011709  -0.004048  0  3.974103  0
C  C98  1  0.80419466  0.35311174  0.37885846  1  0.021155  0  -0.10215  -0.174013  0  3.996566  0
C  C99  1  0.81348480  0.22817077  0.36755826  1  -0.027905  0  -0.110044  -0.239443  0  3.970422  0
C  C100  1  0.76855709  0.17322143  0.45830621  1  0.398158  0  0.097349  0.262099  0  4.087066  0
C  C101  1  0.73875665  0.20805177  0.51286715  1  -0.046035  0  -0.011388  -0.004625  0  3.970629  0
C  C102  1  0.66378244  0.19008241  0.65610961  1  -0.034057  0  -0.025872  -0.020547  0  4.055551  0
C  C103  1  0.83050220  0.31761427  0.32802072  1  -0.034815  0  -0.026125  -0.021706  0  4.054885  0
C  C104  1  0.19877344  0.26588944  0.95123705  1  -0.060754  0  -0.156291  -0.170928  0  3.852841  0
C  C105  1  0.25992660  0.20686131  0.94798187  1  -0.01659  0  -0.156565  -0.171167  0  3.85556  0
C  C106  1  0.30773942  0.20655779  0.99564973  1  0.059247  0  -0.01675  0.019861  0  3.813852  0
C  C107  1  0.23888013  0.17512765  0.09165817  1  -0.034069  0  -0.15748  -0.171395  0  3.8596  0
C  C108  1  0.18018330  0.23652474  0.09338276  1  0.011576  0  -0.157507  -0.170169  0  3.860965  0
C  C109  1  0.20697254  0.30810862  0.99865438  1  0.076354  0  -0.01763  0.020582  0  3.814142  0
C  C110  1  0.30204972  0.35880380  0.94998166  1  0.000592  0  -0.164924  -0.176599  0  3.889168  0
C  C111  1  0.36156841  0.29821814  0.94983152  1  -0.047742  0  -0.16447  -0.175482  0  3.88894  0
C  C112  1  0.85507369  0.79255352  0.94534131  1  -0.029373  0  -0.155011  -0.167702  0  3.846865  0
C  C113  1  0.79560417  0.85357237  0.94570598  1  -0.020947  0  -0.154689  -0.16705  0  3.850228  0
C  C114  1  0.70038852  0.80364830  0.98996030  1  0.045437  0  -0.016174  0.019606  0  3.810222  0
C  C115  1  0.67137831  0.73081458  0.08480121  1  -0.023614  0  -0.160626  -0.17266  0  3.871009  0
C  C116  1  0.73029114  0.66954062  0.08389783  1  -0.051843  0  -0.160139  -0.174632  0  3.866504  0
C  C117  1  0.80082111  0.70100287  0.98850309  1  0.070821  0  -0.016958  0.021048  0  3.809085  0
C  C118  1  0.75698438  0.70478993  0.93709474  1  -0.008845  0  -0.164448  -0.177509  0  3.888274  0
C  C119  1  0.69699185  0.76498867  0.93860147  1  -0.037437  0  -0.164601  -0.174508  0  3.882362  0
C  C120  1  0.23056032  0.78383833  0.92114236  1  -0.008393  0  -0.154957  -0.169705  0  3.84999  0
C  C121  1  0.29098172  0.84697052  0.91769772  1  -0.03535  0  -0.154926  -0.168052  0  3.84959  0
C  C122  1  0.29854440  0.80085442  0.00096355  1  0.05546  0  -0.016818  0.020848  0  3.808929  0
C  C123  1  0.33588892  0.72471769  0.00450939  1  -0.035118  0  -0.159135  -0.172338  0  3.865252  0
C  C124  1  0.27455445  0.66127288  0.00913317  1  -0.026072  0  -0.159913  -0.173781  0  3.861171  0
C  C125  1  0.19601968  0.69477241  0.00712811  1  0.041854  0  -0.016675  0.019174  0  3.813092  0
C  C126  1  0.14647369  0.70433764  0.08591847  1  -0.019393  0  -0.165755  -0.178137  0  3.891566  0
C  C127  1  0.20737909  0.76698687  0.08243092  1  -0.000815  0  -0.164424  -0.177457  0  3.88861  0
C  C128  1  0.85529760  0.30113845  0.90689072  1  -0.057752  0  -0.155069  -0.171488  0  3.851498  0
C  C129  1  0.79708982  0.23559307  0.91081077  1  -0.084825  0  -0.156085  -0.169291  0  3.852649  0
C  C130  1  0.70521725  0.19921689  0.99331524  1  0.046911  0  -0.016636  0.02007  0  3.81133  0
C  C131  1  0.66658293  0.27506737  0.98901595  1  -0.028116  0  -0.159327  -0.174561  0  3.858176  0
C  C132  1  0.72467571  0.33824745  0.98778867  1  -0.037453  0  -0.160019  -0.171644  0  3.869015  0
C  C133  1  0.80430428  0.30707493  0.98872299  1  0.029655  0  -0.017054  0.019504  0  3.808195  0
C  C134  1  0.77338699  0.21724020  0.07183160  1  0.010187  0  -0.164457  -0.176413  0  3.881494  0
C  C135  1  0.71296505  0.15393889  0.07566471  1  -0.012325  0  -0.164771  -0.175734  0  3.89308  0
N  N136  1  0.42652165  0.75206376  0.49720192  1  -1.209523  0  -0.597562  -0.6206  0  3.321128  0
N  N137  1  0.08688301  0.75865863  0.48719603  1  -1.236925  0  -0.598577  -0.618378  0  3.319481  0
N  N138  1  0.74953787  0.08539083  0.49615710  1  -1.202362  0  -0.596659  -0.618995  0  3.321641  0
N  N139  1  0.75057323  0.42242996  0.48794950  1  -1.229173  0  -0.599563  -0.621269  0  3.318239  0
O  O140  1  0.00127525  0.50571222  0.99146515  1  -1.217006  0  -0.572752  -1.023678  0  2.545022  0
O  O141  1  0.17673190  0.61574312  0.94904576  1  -1.176107  0  -0.318152  -0.552938  0  2.357664  0
O  O142  1  0.89328226  0.45509848  0.19590518  1  -1.167649  0  -0.31935  -0.549733  0  2.328443  0
O  O143  1  0.06474761  0.32796855  0.04696657  1  -1.174063  0  -0.317357  -0.549408  0  2.352343  0
O  O144  1  0.05650813  0.61309016  0.05882967  1  -1.174844  0  -0.313644  -0.547084  0  2.349142  0
O  O145  1  0.18024000  0.44618063  0.95211641  1  -1.185016  0  -0.314455  -0.547763  0  2.36178  0
O  O146  1  0.90046610  0.33641315  0.18826270  1  -1.168006  0  -0.31855  -0.54681  0  2.355789  0
O  O147  1  0.89839487  0.33570290  0.03216133  1  -1.176565  0  -0.315886  -0.548711  0  2.38869  0
O  O148  1  0.05008758  0.60879491  0.78697634  1  -1.186906  0  -0.319758  -0.552674  0  2.318732  0
O  O149  1  0.87982696  0.44952864  0.93163060  1  -1.175715  0  -0.316183  -0.550591  0  2.316318  0
O  O150  1  0.17098426  0.60429397  0.79898256  1  -1.177691  0  -0.319782  -0.548744  0  2.35934  0
O  O151  1  0.88850386  0.62432496  0.04176997  1  -1.184731  0  -0.319126  -0.55548  0  2.355473  0
O  O152  1  0.88152431  0.61893456  0.93442908  1  -1.172211  0  -0.313054  -0.547393  0  2.34268  0
O  O153  1  0.50452426  0.00255950  0.99236004  1  -1.206819  0  -0.573741  -1.024072  0  2.548034  0
O  O154  1  0.32603907  0.06699431  0.03309384  1  -1.175761  0  -0.317873  -0.552849  0  2.338426  0
O  O155  1  0.58826343  0.17118291  0.79582515  1  -1.165455  0  -0.319775  -0.548192  0  2.355933  0
O  O156  1  0.43997617  0.88734868  0.93651581  1  -1.188589  0  -0.316981  -0.553644  0  2.340515  0
O  O157  1  0.44627179  0.17686345  0.95635735  1  -1.176255  0  -0.314126  -0.546558  0  2.361199  0
O  O158  1  0.32578203  0.89051555  0.04646094  1  -1.164443  0  -0.3142  -0.54636  0  2.364556  0
O  O159  1  0.60075206  0.05269691  0.78822236  1  -1.161847  0  -0.319271  -0.549233  0  2.327986  0
O  O160  1  0.61700577  0.88922752  0.93592927  1  -1.19115  0  -0.315221  -0.549272  0  2.363565  0
O  O161  1  0.46210531  0.89631780  0.19581136  1  -1.159845  0  -0.318711  -0.550255  0  2.306251  0
O  O162  1  0.62781751  0.88854909  0.04424464  1  -1.170316  0  -0.318803  -0.557927  0  2.329006  0
O  O163  1  0.34073460  0.91429110  0.18586413  1  -1.19395  0  -0.320955  -0.553222  0  2.360706  0
O  O164  1  0.63239819  0.17426540  0.92964613  1  -1.180777  0  -0.320475  -0.554559  0  2.356297  0
O  O165  1  0.62327286  0.05939225  0.05076748  1  -1.183115  0  -0.312778  -0.548837  0  2.334469  0
