# generated using pymatgen
data_Mo2H10C7(NO)6
_symmetry_space_group_name_H-M   'P 1'
_cell_length_a   9.34659344
_cell_length_b   11.71689847
_cell_length_c   11.93944913
_cell_angle_alpha   90.00000774
_cell_angle_beta   90.00000793
_cell_angle_gamma   89.99999729
_symmetry_Int_Tables_number   1
_chemical_formula_structural   Mo2H10C7(NO)6
_chemical_formula_sum   'Mo8 H40 C28 N24 O24'
_cell_volume   1307.52592437
_cell_formula_units_Z   4
loop_
 _symmetry_equiv_pos_site_id
 _symmetry_equiv_pos_as_xyz
  1  'x, y, z'
loop_
 _atom_site_type_symbol
 _atom_site_label
 _atom_site_symmetry_multiplicity
 _atom_site_fract_x
 _atom_site_fract_y
 _atom_site_fract_z
 _atom_site_occupancy
 _atom_site_hle17_bader_spin_density
 _atom_site_hle17_ddec_charge
 _atom_site_hle17_ddec_spin_density
 _atom_site_hle17_ddec_sum_bond_order
 _atom_site_hle17_magmom
 _atom_site_hse06_10hf_bader_spin_density
 _atom_site_hse06_10hf_ddec_charge
 _atom_site_hse06_10hf_ddec_spin_density
 _atom_site_hse06_10hf_ddec_sum_bond_order
 _atom_site_hse06_10hf_magmom
 _atom_site_hse06_bader_spin_density
 _atom_site_hse06_ddec_charge
 _atom_site_hse06_ddec_spin_density
 _atom_site_hse06_ddec_sum_bond_order
 _atom_site_hse06_magmom
 _atom_site_pbe_bader_spin_density
 _atom_site_pbe_cm5_charge
 _atom_site_pbe_ddec_charge
 _atom_site_pbe_ddec_spin_density
 _atom_site_pbe_ddec_sum_bond_order
 _atom_site_pbe_magmom
Mo  Mo0  1  0.37314779  0.07443187  0.86402146  1  0  2.10341  0  4.238526  0  0  2.094084  0  4.804278  0  0  2.195356  0  4.772302  0  0  1.543454  2.01889  0  4.833869  0
Mo  Mo1  1  0.12685264  0.92556834  0.36402189  1  0  2.103426  0  4.238585  0  0  2.094097  0  4.804346  0  0  2.195372  0  4.772366  0  0  1.543441  2.018906  0  4.833932  0
Mo  Mo2  1  0.62685302  0.57443106  0.63597832  1  0  2.103506  0  4.238575  0  0  2.094194  0  4.804302  0  0  2.195461  0  4.772333  0  0  1.543494  2.018999  0  4.833896  0
Mo  Mo3  1  0.87314807  0.42556910  0.13597787  1  0  2.103487  0  4.238498  0  0  2.094188  0  4.804218  0  0  2.195448  0  4.772251  0  0  1.54351  2.018989  0  4.83381  0
Mo  Mo4  1  0.37293375  0.09530594  0.16875823  1  0  2.099939  0  4.254309  0  0  2.091073  0  4.81831  0  0  2.19198  0  4.787555  0  0  1.545594  2.01578  0  4.847473  0
Mo  Mo5  1  0.12706665  0.90469509  0.66875873  1  0  2.099914  0  4.254392  0  0  2.091036  0  4.81841  0  0  2.191944  0  4.78765  0  0  1.54558  2.015741  0  4.847572  0
Mo  Mo6  1  0.62706698  0.59530516  0.33124149  1  0  2.099875  0  4.254368  0  0  2.090991  0  4.818386  0  0  2.191904  0  4.787618  0  0  1.545565  2.015696  0  4.847546  0
Mo  Mo7  1  0.87293308  0.40469417  0.83124194  1  0  2.099833  0  4.254389  0  0  2.090941  0  4.818413  0  0  2.191859  0  4.787643  0  0  1.545551  2.015652  0  4.847576  0
H  H8  1  0.28351083  0.76492347  0.86227854  1  0  0.133474  0  0.952154  0  0  0.14257  0  1.014268  0  0  0.146477  0  1.009176  0  0  0.146238  0.139663  0  1.018019  0
H  H9  1  0.21648960  0.23507674  0.36227889  1  0  0.133467  0  0.952138  0  0  0.142557  0  1.014258  0  0  0.146464  0  1.009165  0  0  0.14623  0.139651  0  1.018008  0
H  H10  1  0.71648997  0.26492338  0.63772043  1  0  0.133442  0  0.952199  0  0  0.142574  0  1.014267  0  0  0.146482  0  1.009172  0  0  0.146222  0.139669  0  1.018018  0
H  H11  1  0.78351112  0.73507677  0.13772085  1  0  0.133472  0  0.952157  0  0  0.142566  0  1.014269  0  0  0.146472  0  1.009178  0  0  0.14624  0.139662  0  1.018017  0
H  H12  1  0.36072286  0.78032767  0.21167064  1  0  0.127557  0  0.92389  0  0  0.13797  0  0.982648  0  0  0.140898  0  0.978743  0  0  0.152819  0.135792  0  0.985528  0
H  H13  1  0.13927754  0.21967251  0.71166937  1  0  0.12755  0  0.923915  0  0  0.137962  0  0.982679  0  0  0.140892  0  0.978772  0  0  0.152822  0.135784  0  0.98556  0
H  H14  1  0.63927678  0.28032846  0.28832994  1  0  0.127544  0  0.923917  0  0  0.137953  0  0.982692  0  0  0.140884  0  0.978783  0  0  0.152822  0.135777  0  0.985573  0
H  H15  1  0.86072327  0.71967172  0.78833043  1  0  0.12756  0  0.923894  0  0  0.13797  0  0.982647  0  0  0.1409  0  0.978741  0  0  0.152818  0.135794  0  0.985525  0
H  H16  1  0.48484623  0.39850397  0.80583539  1  0  0.133501  0  0.941677  0  0  0.143932  0  0.998351  0  0  0.147649  0  0.993301  0  0  0.147461  0.14115  0  1.002148  0
H  H17  1  0.01515526  0.60149623  0.30583492  1  0  0.133511  0  0.941654  0  0  0.143942  0  0.998327  0  0  0.147658  0  0.993276  0  0  0.14746  0.141157  0  1.002124  0
H  H18  1  0.51515457  0.89850403  0.69416528  1  0  0.133507  0  0.941661  0  0  0.143938  0  0.998334  0  0  0.147655  0  0.993282  0  0  0.147455  0.141151  0  1.002131  0
H  H19  1  0.98484546  0.10149614  0.19416480  1  0  0.133496  0  0.941674  0  0  0.143927  0  0.998348  0  0  0.147642  0  0.993297  0  0  0.147456  0.141143  0  1.002145  0
H  H20  1  0.47453225  0.39557397  0.15970843  1  0  0.133407  0  0.932814  0  0  0.14352  0  0.990595  0  0  0.146968  0  0.985932  0  0  0.148799  0.140902  0  0.994259  0
H  H21  1  0.02546814  0.60442621  0.65970887  1  0  0.133421  0  0.93281  0  0  0.143523  0  0.99059  0  0  0.146974  0  0.985927  0  0  0.14879  0.140905  0  0.994257  0
H  H22  1  0.52546739  0.89557404  0.34029217  1  0  0.133411  0  0.932848  0  0  0.143511  0  0.990636  0  0  0.146963  0  0.985973  0  0  0.148795  0.140895  0  0.994303  0
H  H23  1  0.97453160  0.10442529  0.84029176  1  0  0.133394  0  0.932872  0  0  0.143524  0  0.990621  0  0  0.146975  0  0.985957  0  0  0.148801  0.140906  0  0.994286  0
H  H24  1  0.23321009  0.59520188  0.12971123  1  0  0.106841  0  0.913013  0  0  0.126292  0  0.966799  0  0  0.12773  0  0.965553  0  0  0.118382  0.125037  0  0.968159  0
H  H25  1  0.26679029  0.40479829  0.62971084  1  0  0.106834  0  0.913019  0  0  0.126283  0  0.966795  0  0  0.127719  0  0.965551  0  0  0.118395  0.125026  0  0.968156  0
H  H26  1  0.76679063  0.09520268  0.37028849  1  0  0.106786  0  0.913031  0  0  0.126274  0  0.966775  0  0  0.12771  0  0.965534  0  0  0.1184  0.125018  0  0.968135  0
H  H27  1  0.73320943  0.90479836  0.87028900  1  0  0.106833  0  0.913005  0  0  0.126285  0  0.966786  0  0  0.127722  0  0.965543  0  0  0.118394  0.125028  0  0.968148  0
H  H28  1  0.41071006  0.58015097  0.08273001  1  0  0.074654  0  0.957018  0  0  0.089667  0  1.019918  0  0  0.090001  0  1.020017  0  0  0.111004  0.08926  0  1.020025  0
H  H29  1  0.08929033  0.41984835  0.58273044  1  0  0.074658  0  0.956993  0  0  0.089656  0  1.019903  0  0  0.089989  0  1.020001  0  0  0.111001  0.089249  0  1.020012  0
H  H30  1  0.58929067  0.08015177  0.41726887  1  0  0.074642  0  0.956981  0  0  0.089658  0  1.019881  0  0  0.089993  0  1.019976  0  0  0.111013  0.089252  0  1.019989  0
H  H31  1  0.91070940  0.91984927  0.91726940  1  0  0.074647  0  0.956983  0  0  0.089667  0  1.019876  0  0  0.09  0  1.019973  0  0  0.111011  0.08926  0  1.019984  0
H  H32  1  0.30348282  0.56683948  0.87908919  1  0  0.088657  0  0.926189  0  0  0.108316  0  0.982982  0  0  0.109246  0  0.982926  0  0  0.101506  0.107514  0  0.983253  0
H  H33  1  0.19651761  0.43316073  0.37908872  1  0  0.088643  0  0.926237  0  0  0.108296  0  0.983032  0  0  0.109225  0  0.982975  0  0  0.101494  0.107493  0  0.983303  0
H  H34  1  0.69651799  0.06683939  0.62091060  1  0  0.088653  0  0.926212  0  0  0.108308  0  0.983006  0  0  0.109237  0  0.98295  0  0  0.101501  0.107504  0  0.98328  0
H  H35  1  0.80348310  0.93316076  0.12091104  1  0  0.088669  0  0.926195  0  0  0.108323  0  0.982985  0  0  0.109252  0  0.98293  0  0  0.101512  0.10752  0  0.983259  0
H  H36  1  0.13430354  0.55575976  0.94450509  1  0  0.100764  0  0.950617  0  0  0.113599  0  1.015372  0  0  0.114746  0  1.016137  0  0  0.101396  0.112413  0  1.015464  0
H  H37  1  0.36569690  0.44424045  0.44450464  1  0  0.100744  0  0.950622  0  0  0.113586  0  1.015357  0  0  0.114732  0  1.016124  0  0  0.101401  0.1124  0  1.015447  0
H  H38  1  0.86569727  0.05575966  0.55549469  1  0  0.100737  0  0.950628  0  0  0.113583  0  1.015363  0  0  0.114729  0  1.016127  0  0  0.101398  0.112398  0  1.015451  0
H  H39  1  0.63430274  0.94424049  0.05549512  1  0  0.100742  0  0.950626  0  0  0.113588  0  1.015356  0  0  0.114734  0  1.016121  0  0  0.101397  0.112402  0  1.015447  0
H  H40  1  0.22866619  0.38626775  0.05721876  1  0  0.107234  0  0.911586  0  0  0.121869  0  0.968403  0  0  0.123697  0  0.967249  0  0  0.120971  0.120809  0  0.9686  0
H  H41  1  0.27133418  0.61373156  0.55721923  1  0  0.107262  0  0.911573  0  0  0.121887  0  0.968405  0  0  0.123714  0  0.967252  0  0  0.120983  0.120826  0  0.968603  0
H  H42  1  0.77133345  0.88626783  0.44278100  1  0  0.107245  0  0.911597  0  0  0.12187  0  0.968431  0  0  0.123699  0  0.967276  0  0  0.120977  0.120808  0  0.968624  0
H  H43  1  0.72866556  0.11373237  0.94278140  1  0  0.107232  0  0.911583  0  0  0.121868  0  0.968401  0  0  0.123697  0  0.967246  0  0  0.120973  0.120804  0  0.968597  0
H  H44  1  0.23019303  0.36364578  0.90951520  1  0  0.107669  0  0.921716  0  0  0.118932  0  0.984922  0  0  0.120818  0  0.98347  0  0  0.118034  0.117803  0  0.985309  0
H  H45  1  0.26980741  0.63635358  0.40951560  1  0  0.107676  0  0.921708  0  0  0.118946  0  0.984906  0  0  0.120833  0  0.983453  0  0  0.118038  0.117815  0  0.985293  0
H  H46  1  0.76980777  0.86364667  0.59048463  1  0  0.107689  0  0.921683  0  0  0.11896  0  0.984883  0  0  0.120845  0  0.983431  0  0  0.118047  0.117825  0  0.985269  0
H  H47  1  0.73019331  0.13635348  0.09048496  1  0  0.107667  0  0.921713  0  0  0.118934  0  0.984916  0  0  0.12082  0  0.983463  0  0  0.118039  0.117799  0  0.985302  0
C  C48  1  0.31031954  0.79650777  0.94537534  1  0  0.179726  0  3.56649  0  0  0.121808  0  3.823083  0  0  0.137393  0  3.831452  0  0  0.168508  0.111413  0  3.81766  0
C  C49  1  0.18967984  0.20349244  0.44537484  1  0  0.179679  0  3.566434  0  0  0.121783  0  3.823013  0  0  0.137367  0  3.831385  0  0  0.168515  0.111387  0  3.817588  0
C  C50  1  0.68968019  0.29650853  0.55462447  1  0  0.179705  0  3.566525  0  0  0.121777  0  3.823082  0  0  0.137361  0  3.831455  0  0  0.168528  0.111381  0  3.817659  0
C  C51  1  0.81031981  0.70349247  0.05462489  1  0  0.179716  0  3.566466  0  0  0.12181  0  3.823052  0  0  0.137397  0  3.831422  0  0  0.168508  0.111415  0  3.817627  0
C  C52  1  0.34927056  0.80616129  0.12511388  1  0  0.204383  0  3.580539  0  0  0.143838  0  3.846439  0  0  0.160563  0  3.853175  0  0  0.174794  0.132828  0  3.841816  0
C  C53  1  0.15072983  0.19383973  0.62511513  1  0  0.204401  0  3.580473  0  0  0.143848  0  3.846393  0  0  0.160575  0  3.853124  0  0  0.174808  0.132841  0  3.841768  0
C  C54  1  0.65073016  0.30616039  0.37488502  1  0  0.204421  0  3.580492  0  0  0.143869  0  3.846402  0  0  0.160597  0  3.853136  0  0  0.174837  0.132862  0  3.841779  0
C  C55  1  0.84926991  0.69383895  0.87488551  1  0  0.204367  0  3.580526  0  0  0.143832  0  3.846411  0  0  0.160559  0  3.853146  0  0  0.174789  0.132827  0  3.841787  0
C  C56  1  0.51941070  0.39461643  0.89238545  1  0  0.209382  0  3.571561  0  0  0.151176  0  3.833607  0  0  0.16821  0  3.839869  0  0  0.176236  0.1399  0  3.829339  0
C  C57  1  0.98058937  0.60538291  0.39238587  1  0  0.209364  0  3.571585  0  0  0.151158  0  3.83363  0  0  0.168196  0  3.839888  0  0  0.176244  0.139884  0  3.829359  0
C  C58  1  0.48058903  0.89461733  0.60761438  1  0  0.209366  0  3.571593  0  0  0.151157  0  3.833645  0  0  0.168194  0  3.839901  0  0  0.176242  0.139883  0  3.829375  0
C  C59  1  0.01941029  0.10538370  0.10761553  1  0  0.209452  0  3.571537  0  0  0.151239  0  3.83358  0  0  0.168277  0  3.839837  0  0  0.176271  0.139963  0  3.829314  0
C  C60  1  0.51479290  0.39409490  0.07460986  1  0  0.189752  0  3.589614  0  0  0.130624  0  3.859771  0  0  0.14741  0  3.86614  0  0  0.170242  0.119384  0  3.855717  0
C  C61  1  0.98520818  0.60590439  0.57460952  1  0  0.189735  0  3.589564  0  0  0.130661  0  3.859652  0  0  0.147437  0  3.866028  0  0  0.170258  0.119421  0  3.855602  0
C  C62  1  0.48520888  0.89409499  0.42538906  1  0  0.189747  0  3.589568  0  0  0.130657  0  3.859673  0  0  0.147433  0  3.866051  0  0  0.170258  0.119416  0  3.855625  0
C  C63  1  0.01479156  0.10590522  0.92538944  1  0  0.189763  0  3.589602  0  0  0.13064  0  3.859722  0  0  0.147418  0  3.866096  0  0  0.170233  0.119404  0  3.855668  0
C  C64  1  0.30378874  0.60892565  0.05747004  1  0  0.00331  0  3.607955  0  0  -0.060769  0  3.866188  0  0  -0.056018  0  3.876716  0  0  -0.054048  -0.064173  0  3.859385  0
C  C65  1  0.19621163  0.39107366  0.55747048  1  0  0.003285  0  3.607924  0  0  -0.06076  0  3.866107  0  0  -0.05601  0  3.876641  0  0  -0.054082  -0.06417  0  3.859316  0
C  C66  1  0.69621198  0.10892645  0.44252884  1  0  0.003365  0  3.607801  0  0  -0.060732  0  3.866011  0  0  -0.055982  0  3.876542  0  0  -0.054075  -0.064139  0  3.859214  0
C  C67  1  0.80378809  0.89107374  0.94252935  1  0  0.003329  0  3.607891  0  0  -0.060752  0  3.866106  0  0  -0.056001  0  3.876638  0  0  -0.054094  -0.06416  0  3.859311  0
C  C68  1  0.24916144  0.54233044  0.95730971  1  0  -0.148435  0  3.656985  0  0  -0.193986  0  3.920484  0  0  -0.195831  0  3.933002  0  0  -0.159514  -0.192473  0  3.91205  0
C  C69  1  0.25083901  0.45766978  0.45730925  1  0  -0.148377  0  3.656974  0  0  -0.193925  0  3.920447  0  0  -0.195769  0  3.932966  0  0  -0.159469  -0.192406  0  3.912005  0
C  C70  1  0.75083938  0.04233034  0.54269007  1  0  -0.148393  0  3.656945  0  0  -0.193941  0  3.920431  0  0  -0.195786  0  3.932949  0  0  -0.159471  -0.19243  0  3.911997  0
C  C71  1  0.74916062  0.95766980  0.04269052  1  0  -0.148427  0  3.656952  0  0  -0.19397  0  3.920429  0  0  -0.195816  0  3.932948  0  0  -0.159493  -0.192456  0  3.911983  0
C  C72  1  0.27507356  0.41474463  0.97765821  1  0  0.006751  0  3.554266  0  0  -0.048469  0  3.800809  0  0  -0.044094  0  3.810207  0  0  -0.044294  -0.05053  0  3.792844  0
C  C73  1  0.22492582  0.58525644  0.47765860  1  0  0.00672  0  3.55428  0  0  -0.048508  0  3.800834  0  0  -0.044132  0  3.810232  0  0  -0.044311  -0.050567  0  3.792868  0
C  C74  1  0.72492617  0.91474380  0.52234078  1  0  0.006748  0  3.554309  0  0  -0.048485  0  3.800873  0  0  -0.04411  0  3.81027  0  0  -0.044294  -0.050528  0  3.79288  0
C  C75  1  0.77507383  0.08525548  0.02234195  1  0  0.006796  0  3.554302  0  0  -0.048433  0  3.800849  0  0  -0.044058  0  3.810247  0  0  -0.044279  -0.050477  0  3.792862  0
N  N76  1  0.33733794  0.90432299  0.97131792  1  0  -0.275139  0  3.219066  0  0  -0.244126  0  3.51325  0  0  -0.258985  0  3.533564  0  0  -0.251094  -0.233904  0  3.499978  0
N  N77  1  0.16266251  0.09567637  0.47131740  1  0  -0.275075  0  3.219053  0  0  -0.244064  0  3.513227  0  0  -0.258925  0  3.533543  0  0  -0.251093  -0.233844  0  3.499957  0
N  N78  1  0.66266286  0.40432375  0.52868275  1  0  -0.275101  0  3.219113  0  0  -0.244093  0  3.513297  0  0  -0.258953  0  3.533613  0  0  -0.251105  -0.233877  0  3.500031  0
N  N79  1  0.83733821  0.59567639  0.02868231  1  0  -0.275125  0  3.219106  0  0  -0.244125  0  3.513293  0  0  -0.258985  0  3.533608  0  0  -0.251103  -0.233903  0  3.500023  0
N  N80  1  0.36108234  0.91020760  0.08414969  1  0  -0.278934  0  3.228997  0  0  -0.245155  0  3.521409  0  0  -0.25971  0  3.540919  0  0  -0.251173  -0.23508  0  3.508571  0
N  N81  1  0.13891697  0.08979257  0.58415008  1  0  -0.279053  0  3.229039  0  0  -0.245273  0  3.521455  0  0  -0.259827  0  3.540965  0  0  -0.251209  -0.235196  0  3.508617  0
N  N82  1  0.63891730  0.41020840  0.41585007  1  0  -0.279053  0  3.229022  0  0  -0.245271  0  3.521435  0  0  -0.25983  0  3.540949  0  0  -0.251225  -0.235199  0  3.508601  0
N  N83  1  0.86108277  0.58979265  0.91584971  1  0  -0.278956  0  3.229089  0  0  -0.24517  0  3.521492  0  0  -0.259729  0  3.541004  0  0  -0.25117  -0.235099  0  3.508659  0
N  N84  1  0.31684055  0.73254966  0.04065437  1  0  -0.072828  0  3.491969  0  0  0.022956  0  3.713756  0  0  0.006698  0  3.734851  0  0  -0.221481  0.033752  0  3.69935  0
N  N85  1  0.18315982  0.26745050  0.54065395  1  0  -0.072716  0  3.4918  0  0  0.023048  0  3.713568  0  0  0.006789  0  3.734665  0  0  -0.221466  0.033846  0  3.699163  0
N  N86  1  0.68316123  0.23255047  0.45934537  1  0  -0.072738  0  3.491784  0  0  0.02303  0  3.713581  0  0  0.00677  0  3.73468  0  0  -0.221499  0.03383  0  3.699176  0
N  N87  1  0.81683884  0.76744973  0.95934586  1  0  -0.072801  0  3.491872  0  0  0.022969  0  3.713652  0  0  0.00671  0  3.734747  0  0  -0.221461  0.033768  0  3.699246  0
N  N88  1  0.65272986  0.39450718  0.92826399  1  0  -0.280144  0  3.218385  0  0  -0.247578  0  3.511426  0  0  -0.262931  0  3.531087  0  0  -0.257566  -0.23661  0  3.497389  0
N  N89  1  0.84727128  0.60549301  0.42826440  1  0  -0.280125  0  3.218377  0  0  -0.247547  0  3.511412  0  0  -0.262899  0  3.531071  0  0  -0.257568  -0.236584  0  3.497375  0
N  N90  1  0.34727093  0.89450723  0.57173584  1  0  -0.28014  0  3.218409  0  0  -0.247574  0  3.511457  0  0  -0.262921  0  3.531114  0  0  -0.257568  -0.236605  0  3.497416  0
N  N91  1  0.15272945  0.10549294  0.07173532  1  0  -0.28024  0  3.218453  0  0  -0.247659  0  3.511492  0  0  -0.263009  0  3.531147  0  0  -0.257594  -0.236693  0  3.497454  0
N  N92  1  0.65022192  0.39403515  0.04312517  1  0  -0.28143  0  3.202068  0  0  -0.251274  0  3.499022  0  0  -0.266229  0  3.518418  0  0  -0.255009  -0.240735  0  3.485321  0
N  N93  1  0.84977916  0.60596499  0.54312565  1  0  -0.28145  0  3.202062  0  0  -0.251323  0  3.499015  0  0  -0.266274  0  3.518409  0  0  -0.25501  -0.240786  0  3.485315  0
N  N94  1  0.34977772  0.89403525  0.45687459  1  0  -0.281443  0  3.202044  0  0  -0.251303  0  3.499002  0  0  -0.266255  0  3.518398  0  0  -0.255015  -0.240763  0  3.485299  0
N  N95  1  0.15022059  0.10596497  0.95687498  1  0  -0.281417  0  3.202077  0  0  -0.251275  0  3.499031  0  0  -0.266223  0  3.518423  0  0  -0.254999  -0.240738  0  3.485328  0
N  N96  1  0.42961221  0.39383892  0.98199259  1  0  -0.07661  0  3.501121  0  0  0.016884  0  3.71924  0  0  0.000212  0  3.740862  0  0  -0.226595  0.027154  0  3.705457  0
N  N97  1  0.07038824  0.60616130  0.48199213  1  0  -0.076629  0  3.501132  0  0  0.016845  0  3.719253  0  0  0.000176  0  3.740877  0  0  -0.226621  0.027114  0  3.705472  0
N  N98  1  0.57038858  0.89383896  0.51800724  1  0  -0.07664  0  3.501166  0  0  0.016846  0  3.719286  0  0  0.000176  0  3.74091  0  0  -0.226628  0.027107  0  3.705504  0
N  N99  1  0.92961142  0.10616118  0.01800759  1  0  -0.076674  0  3.501175  0  0  0.016803  0  3.71932  0  0  0.000133  0  3.740943  0  0  -0.226635  0.027065  0  3.705536  0
O  O100  1  0.42391701  0.12025366  0.01467156  1  0  -0.892536  0  1.794059  0  0  -0.903642  0  2.114946  0  0  -0.94786  0  2.112635  0  0  -0.589982  -0.868763  0  2.113051  0
O  O101  1  0.07608335  0.87974650  0.51467205  1  0  -0.892548  0  1.794061  0  0  -0.903657  0  2.114948  0  0  -0.947869  0  2.112631  0  0  -0.589999  -0.868778  0  2.11305  0
O  O102  1  0.57608264  0.62025375  0.48532900  1  0  -0.892558  0  1.794049  0  0  -0.903673  0  2.114931  0  0  -0.947888  0  2.112617  0  0  -0.589989  -0.868778  0  2.11303  0
O  O103  1  0.92391744  0.37974645  0.98532862  1  0  -0.892526  0  1.794069  0  0  -0.903636  0  2.114948  0  0  -0.947852  0  2.112637  0  0  -0.589974  -0.868739  0  2.113047  0
O  O104  1  0.53792975  0.02271254  0.82131766  1  0  -0.704324  0  1.456641  0  0  -0.705559  0  1.703236  0  0  -0.733129  0  1.693481  0  0  -0.528878  -0.685702  0  1.710994  0
O  O105  1  0.96207030  0.97728764  0.32131812  1  0  -0.704331  0  1.456663  0  0  -0.70556  0  1.70324  0  0  -0.733138  0  1.69349  0  0  -0.528882  -0.685716  0  1.711  0
O  O106  1  0.46207000  0.52271260  0.67868213  1  0  -0.704359  0  1.456659  0  0  -0.705589  0  1.703245  0  0  -0.733161  0  1.693493  0  0  -0.528898  -0.685737  0  1.711006  0
O  O107  1  0.03792933  0.47728758  0.17868248  1  0  -0.704328  0  1.456647  0  0  -0.705564  0  1.703224  0  0  -0.733135  0  1.693472  0  0  -0.52888  -0.685712  0  1.710985  0
O  O108  1  0.35818190  0.20652996  0.80064669  1  0  -0.710486  0  1.46379  0  0  -0.718165  0  1.72041  0  0  -0.746468  0  1.711102  0  0  -0.53114  -0.697996  0  1.728075  0
O  O109  1  0.14181852  0.79347024  0.30064626  1  0  -0.710518  0  1.463822  0  0  -0.718196  0  1.720447  0  0  -0.746502  0  1.711139  0  0  -0.53114  -0.698026  0  1.728109  0
O  O110  1  0.64181891  0.70653001  0.69935396  1  0  -0.710525  0  1.46378  0  0  -0.718208  0  1.720398  0  0  -0.746512  0  1.711092  0  0  -0.531134  -0.69803  0  1.72806  0
O  O111  1  0.85818220  0.29346930  0.19935181  1  0  -0.710541  0  1.463739  0  0  -0.718229  0  1.720363  0  0  -0.746531  0  1.711055  0  0  -0.531159  -0.698052  0  1.728025  0
O  O112  1  0.24910042  0.98642662  0.77002555  1  0  -0.957398  0  1.912562  0  0  -0.960344  0  2.240331  0  0  -1.008157  0  2.240845  0  0  -0.607249  -0.924264  0  2.239183  0
O  O113  1  0.25089999  0.01357357  0.27002671  1  0  -0.957391  0  1.912482  0  0  -0.960372  0  2.24032  0  0  -1.008158  0  2.240769  0  0  -0.607247  -0.924282  0  2.239152  0
O  O114  1  0.75089930  0.48642654  0.72997345  1  0  -0.957394  0  1.912554  0  0  -0.96038  0  2.240403  0  0  -1.00816  0  2.240837  0  0  -0.607261  -0.924291  0  2.239235  0
O  O115  1  0.74910074  0.51357277  0.22997383  1  0  -0.957416  0  1.912572  0  0  -0.960386  0  2.240381  0  0  -1.008177  0  2.240847  0  0  -0.607271  -0.924299  0  2.239213  0
O  O116  1  0.53868826  0.05834650  0.22211832  1  0  -0.709129  0  1.469337  0  0  -0.710608  0  1.728319  0  0  -0.738973  0  1.720485  0  0  -0.5285  -0.690127  0  1.734702  0
O  O117  1  0.96131178  0.94165366  0.72211802  1  0  -0.70912  0  1.469335  0  0  -0.710596  0  1.728301  0  0  -0.738958  0  1.720466  0  0  -0.528504  -0.690118  0  1.734688  0
O  O118  1  0.46131247  0.55834572  0.27788223  1  0  -0.709114  0  1.469343  0  0  -0.710574  0  1.728303  0  0  -0.738938  0  1.720467  0  0  -0.528489  -0.690091  0  1.734686  0
O  O119  1  0.03868795  0.44165362  0.77788182  1  0  -0.709125  0  1.469358  0  0  -0.710581  0  1.728314  0  0  -0.738947  0  1.72048  0  0  -0.528494  -0.690098  0  1.734699  0
O  O120  1  0.34538681  0.23370264  0.21575119  1  0  -0.722957  0  1.451171  0  0  -0.729356  0  1.706125  0  0  -0.757609  0  1.696201  0  0  -0.538904  -0.709023  0  1.714123  0
O  O121  1  0.15461359  0.76629755  0.71575084  1  0  -0.722953  0  1.451178  0  0  -0.729353  0  1.706141  0  0  -0.757607  0  1.696215  0  0  -0.538896  -0.709019  0  1.71414  0
O  O122  1  0.65461391  0.73370185  0.28424938  1  0  -0.722934  0  1.451187  0  0  -0.72933  0  1.706151  0  0  -0.757585  0  1.696225  0  0  -0.538883  -0.708991  0  1.714145  0
O  O123  1  0.84538614  0.26629747  0.78424898  1  0  -0.722938  0  1.451186  0  0  -0.729346  0  1.706163  0  0  -0.757606  0  1.696244  0  0  -0.538896  -0.709008  0  1.71416  0
