# generated using pymatgen
data_Zn2H23C27N2O13F3
_symmetry_space_group_name_H-M   'P 1'
_cell_length_a   9.71360505
_cell_length_b   11.16380852
_cell_length_c   11.05918171
_cell_angle_alpha   83.61725521
_cell_angle_beta   81.65692395
_cell_angle_gamma   85.35094453
_symmetry_Int_Tables_number   1
_chemical_formula_structural   Zn2H23C27N2O13F3
_chemical_formula_sum   'Zn2 H23 C27 N2 O13 F3'
_cell_volume   1176.64677735
_cell_formula_units_Z   1
loop_
 _symmetry_equiv_pos_site_id
 _symmetry_equiv_pos_as_xyz
  1  'x, y, z'
loop_
 _atom_site_type_symbol
 _atom_site_label
 _atom_site_symmetry_multiplicity
 _atom_site_fract_x
 _atom_site_fract_y
 _atom_site_fract_z
 _atom_site_occupancy
 _atom_site_pbe_bader_charge
 _atom_site_pbe_bader_spin_density
 _atom_site_pbe_cm5_charge
 _atom_site_pbe_ddec_charge
 _atom_site_pbe_ddec_spin_density
 _atom_site_pbe_ddec_sum_bond_order
 _atom_site_pbe_magmom
Zn  Zn0  1  0.37151549  0.50653346  0.51343056  1  1.276688  0  0.670379  0.813098  0  2.421515  0
Zn  Zn1  1  0.65760877  0.51712751  0.46518075  1  1.289318  0  0.667399  0.836895  0  2.404653  0
H  H2  1  0.68809999  0.89251624  0.38027703  1  0.100974  0  0.108451  0.142475  0  0.996615  0
H  H3  1  0.22423538  0.35332149  0.93668574  1  0.075521  0  0.098631  0.065988  0  1.040155  0
H  H4  1  0.17257478  0.65344703  0.36736043  1  0.177469  0  0.145449  0.149678  0  0.959919  0
H  H5  1  0.11909298  0.25722555  0.66607312  1  0.090551  0  0.117581  0.079502  0  0.967341  0
H  H6  1  0.86296766  0.25840177  0.62968649  1  0.101489  0  0.115812  0.149705  0  0.975127  0
H  H7  1  0.82108766  0.36844224  0.73849901  1  0.162457  0  0.11974  0.164658  0  0.966123  0
H  H8  1  0.66945177  0.62115529  0.83704048  1  0.083235  0  0.103386  0.106722  0  0.993142  0
H  H9  1  0.67419211  0.63219306  0.05954718  1  0.086704  0  0.106317  0.11142  0  0.992198  0
H  H10  1  0.18941090  0.97679767  0.62587988  1  0.052502  0  0.102587  0.106245  0  0.980584  0
H  H11  1  0.33415054  0.89959307  0.69127573  1  0.052401  0  0.098778  0.100198  0  0.997858  0
H  H12  1  0.22983407  0.81846590  0.60986203  1  0.079968  0  0.092577  0.100055  0  1.019975  0
H  H13  1  0.59364809  0.20796922  0.72499455  1  0.073168  0  0.096671  0.102614  0  1.004025  0
H  H14  1  0.70863076  0.07879173  0.68475411  1  0.034968  0  0.089838  0.08157  0  1.003115  0
H  H15  1  0.55971419  0.06184604  0.80094486  1  0.081984  0  0.108809  0.119875  0  0.986666  0
H  H16  1  0.26139182  0.10863881  0.13539394  1  0.011373  0  0.089763  0.084641  0  1.027499  0
H  H17  1  0.19321932  0.16353029  0.28042169  1  0.06079  0  0.090799  0.089449  0  1.002824  0
H  H18  1  0.35271328  0.07030176  0.26568916  1  0.07289  0  0.099749  0.111811  0  1.001135  0
H  H19  1  0.11400234  0.48625244  0.03117667  1  0.017701  0  0.093008  0.091489  0  1.011194  0
H  H20  1  0.17555697  0.56498672  0.14322495  1  0.045846  0  0.085308  0.079414  0  1.016881  0
H  H21  1  0.01316518  0.49269616  0.17796626  1  0.0872  0  0.096484  0.104995  0  0.995988  0
H  H22  1  0.18130898  0.15159381  0.93741020  1  0.041277  0  0.090967  0.082515  0  1.007852  0
H  H23  1  0.32874285  0.05536184  0.88432816  1  0.06385  0  0.100276  0.099491  0  0.99515  0
H  H24  1  0.27768065  0.18462567  0.78681445  1  0.026337  0  0.08877  0.086244  0  1.026808  0
C  C25  1  0.50421544  0.49456177  0.72903828  1  1.551872  0  0.219226  0.603156  0  4.170312  0
C  C26  1  0.51081928  0.49302176  0.86332989  1  0.00132  0  -0.008296  -0.043194  0  3.95154  0
C  C27  1  0.60069255  0.56727424  0.90492382  1  -0.022738  0  -0.085985  -0.106613  0  3.984238  0
C  C28  1  0.60216346  0.57487479  0.03014775  1  -0.02841  0  -0.082064  -0.09912  0  3.97272  0
C  C29  1  0.51181507  0.51076085  0.12087415  1  -0.037651  0  -0.00282  -0.023777  0  3.93234  0
C  C30  1  0.42505380  0.43547252  0.07859064  1  -0.024048  0  -0.007768  -0.054885  0  3.874538  0
C  C31  1  0.31802433  0.34016120  0.11930843  1  1.055571  0  0.164043  0.328923  0  3.888804  0
C  C32  1  0.32311335  0.32749237  0.97268714  1  0.504073  0  -0.000245  -0.00344  0  3.821855  0
C  C33  1  0.92880424  0.44158356  0.56014272  1  0.506177  0  0.156862  0.252859  0  3.860307  0
C  C34  1  0.96279063  0.59033749  0.40944535  1  1.106293  0  0.263504  0.402735  0  4.01772  0
C  C35  1  0.10348378  0.59184748  0.42522352  1  0.570963  0  0.073762  -0.051673  0  3.82283  0
C  C36  1  0.54782220  0.27767321  0.49783254  1  1.638486  0  0.21386  0.582486  0  4.196082  0
C  C37  1  0.06681697  0.44250941  0.57856913  1  0.608741  0  0.131809  0.081797  0  3.866834  0
C  C38  1  0.05275485  0.34009387  0.68136247  1  0.548408  0  0.051784  0.174988  0  3.813698  0
C  C39  1  0.89509262  0.34074972  0.66024219  1  -0.055013  0  -0.140265  -0.31301  0  3.796895  0
C  C40  1  0.51460667  0.52023664  0.25397686  1  1.589129  0  0.21993  0.60418  0  4.159682  0
C  C41  1  0.49443317  0.74695016  0.48159149  1  1.622875  0  0.209064  0.547241  0  4.19292  0
C  C42  1  0.59618791  0.94422044  0.42071948  1  0.073129  0  -0.110305  -0.277859  0  4.027164  0
C  C43  1  0.48355724  0.88270515  0.47161677  1  0.405676  0  0.080397  0.124409  0  4.011837  0
C  C44  1  0.59954051  0.07386751  0.41556874  1  0.483089  0  0.0813  0.20749  0  4.091105  0
C  C45  1  0.55853176  0.14185671  0.50968337  1  0.555399  0  0.056006  -0.034741  0  3.996298  0
C  C46  1  0.42625147  0.42525878  0.95417996  1  -0.037193  0  -0.010261  0.008735  0  3.923585  0
C  C47  1  0.27321302  0.90539082  0.61423918  1  0.369784  0  -0.140594  -0.172501  0  3.911609  0
C  C48  1  0.59959684  0.11088701  0.71338200  1  0.349781  0  -0.140984  -0.176285  0  3.897204  0
C  C49  1  0.28884040  0.14095292  0.21873485  1  0.399193  0  -0.14775  -0.160753  0  3.924523  0
C  C50  1  0.12009662  0.48595998  0.12996424  1  0.386424  0  -0.149306  -0.167801  0  3.983833  0
C  C51  1  0.28580635  0.14946717  0.88288645  1  0.401077  0  -0.146792  -0.179703  0  3.973657  0
N  N52  1  0.87247559  0.51497352  0.47370765  1  -1.203559  0  -0.281588  -0.271965  0  3.401681  0
N  N53  1  0.15742026  0.51508867  0.51190005  1  -1.187704  0  -0.271704  -0.112813  0  3.471705  0
O  O54  1  0.38300853  0.50561554  0.69627698  1  -1.138752  0  -0.316976  -0.530208  0  2.272914  0
O  O55  1  0.61952010  0.48793021  0.65799785  1  -1.184672  0  -0.314305  -0.565957  0  2.346598  0
O  O56  1  0.42659998  0.32446984  0.53223870  1  -1.152469  0  -0.310502  -0.52592  0  2.300632  0
O  O57  1  0.65734902  0.33348900  0.45965581  1  -1.156782  0  -0.316165  -0.540898  0  2.3072  0
O  O58  1  0.40108882  0.50400131  0.32542906  1  -1.158283  0  -0.310356  -0.542046  0  2.33526  0
O  O59  1  0.63004183  0.54349130  0.28544241  1  -1.156298  0  -0.320716  -0.545358  0  2.302744  0
O  O60  1  0.38256876  0.69328466  0.48609956  1  -1.165989  0  -0.315087  -0.543224  0  2.344645  0
O  O61  1  0.61650677  0.69647425  0.48416046  1  -1.15782  0  -0.321252  -0.540963  0  2.351234  0
O  O62  1  0.35806160  0.94327045  0.50087206  1  -1.066374  0  -0.189113  -0.149881  0  2.607671  0
O  O63  1  0.51326909  0.08613081  0.62458014  1  -1.046287  0  -0.196303  -0.152857  0  2.584014  0
O  O64  1  0.37347758  0.24256843  0.18904911  1  -1.051198  0  -0.213306  -0.223686  0  2.52924  0
O  O65  1  0.18479072  0.37664183  0.18110899  1  -1.04046  0  -0.231756  -0.258555  0  2.503868  0
O  O66  1  0.38028451  0.21496251  0.93352811  1  -1.048306  0  -0.23051  -0.185802  0  2.519758  0
F  F67  1  0.91361986  0.66894177  0.32325115  1  -0.611246  0  -0.050336  -0.108955  0  1.34955  0
F  F68  1  0.06706840  0.37377634  0.79671521  1  -0.623518  0  -0.122654  -0.175834  0  1.302036  0
F  F69  1  0.65013387  0.13009805  0.30314084  1  -0.619351  0  -0.113011  -0.139467  0  1.320675  0
