# generated using pymatgen
data_ZnH20C18(NO)6
_symmetry_space_group_name_H-M   'P 1'
_cell_length_a   9.21827518
_cell_length_b   8.83946212
_cell_length_c   12.53021186
_cell_angle_alpha   90.00026814
_cell_angle_beta   89.99927581
_cell_angle_gamma   108.91654568
_symmetry_Int_Tables_number   1
_chemical_formula_structural   ZnH20C18(NO)6
_chemical_formula_sum   'Zn2 H40 C36 N12 O12'
_cell_volume   965.87579808
_cell_formula_units_Z   2
loop_
 _symmetry_equiv_pos_site_id
 _symmetry_equiv_pos_as_xyz
  1  'x, y, z'
loop_
 _atom_site_type_symbol
 _atom_site_label
 _atom_site_symmetry_multiplicity
 _atom_site_fract_x
 _atom_site_fract_y
 _atom_site_fract_z
 _atom_site_occupancy
 _atom_site_hle17_bader_spin_density
 _atom_site_hle17_ddec_charge
 _atom_site_hle17_ddec_spin_density
 _atom_site_hle17_ddec_sum_bond_order
 _atom_site_hle17_magmom
 _atom_site_hse06_10hf_bader_spin_density
 _atom_site_hse06_10hf_ddec_charge
 _atom_site_hse06_10hf_ddec_spin_density
 _atom_site_hse06_10hf_ddec_sum_bond_order
 _atom_site_hse06_10hf_magmom
 _atom_site_hse06_bader_spin_density
 _atom_site_hse06_ddec_charge
 _atom_site_hse06_ddec_spin_density
 _atom_site_hse06_ddec_sum_bond_order
 _atom_site_hse06_magmom
 _atom_site_pbe_bader_spin_density
 _atom_site_pbe_cm5_charge
 _atom_site_pbe_ddec_charge
 _atom_site_pbe_ddec_spin_density
 _atom_site_pbe_ddec_sum_bond_order
 _atom_site_pbe_magmom
Zn  Zn0  1  0.99999709  0.50000257  0.99999917  1  0  1.061196  0  1.814522  0  0  0.892517  0  2.257213  0  0  0.935028  0  2.206507  0  0  0.687134  0.861291  0  2.294838  0
Zn  Zn1  1  0.00000241  0.99999634  0.50000028  1  0  1.061239  0  1.814405  0  0  0.892527  0  2.257098  0  0  0.935053  0  2.206386  0  0  0.687161  0.86131  0  2.294717  0
H  H2  1  0.54486850  0.14050864  0.84074484  1  0  0.114531  0  0.949443  0  0  0.123893  0  1.010333  0  0  0.126796  0  1.009638  0  0  0.10946  0.122296  0  1.010208  0
H  H3  1  0.45514482  0.35949870  0.34073649  1  0  0.114634  0  0.949312  0  0  0.123959  0  1.010256  0  0  0.126861  0  1.00956  0  0  0.109506  0.12236  0  1.010136  0
H  H4  1  0.45513713  0.85949309  0.15926388  1  0  0.114549  0  0.949379  0  0  0.123893  0  1.010293  0  0  0.126794  0  1.009598  0  0  0.109464  0.122294  0  1.010173  0
H  H5  1  0.54486196  0.64050661  0.65925148  1  0  0.114523  0  0.949511  0  0  0.123895  0  1.010379  0  0  0.126797  0  1.009683  0  0  0.109467  0.122295  0  1.010256  0
H  H6  1  0.71891542  0.98172831  0.81355425  1  0  0.095765  0  0.972994  0  0  0.105405  0  1.037911  0  0  0.108117  0  1.036538  0  0  0.101889  0.103381  0  1.039149  0
H  H7  1  0.28109597  0.51827747  0.31355126  1  0  0.095809  0  0.972842  0  0  0.105492  0  1.037705  0  0  0.108207  0  1.036329  0  0  0.101899  0.103465  0  1.038945  0
H  H8  1  0.28108686  0.01826625  0.18645686  1  0  0.095701  0  0.973026  0  0  0.105364  0  1.037924  0  0  0.108079  0  1.036552  0  0  0.101882  0.103342  0  1.039159  0
H  H9  1  0.71890940  0.48173025  0.68644469  1  0  0.095813  0  0.972995  0  0  0.10549  0  1.037871  0  0  0.108205  0  1.036492  0  0  0.101909  0.103463  0  1.039101  0
H  H10  1  0.63740658  0.69150076  0.85346652  1  0  0.105039  0  0.944534  0  0  0.118973  0  0.997886  0  0  0.121606  0  0.99731  0  0  0.106229  0.116912  0  0.998893  0
H  H11  1  0.36260204  0.80850869  0.35346765  1  0  0.104982  0  0.944588  0  0  0.118893  0  0.997974  0  0  0.121525  0  0.9974  0  0  0.106197  0.116832  0  0.998981  0
H  H12  1  0.36258449  0.30849270  0.14654540  1  0  0.105026  0  0.94451  0  0  0.118981  0  0.99783  0  0  0.121613  0  0.997255  0  0  0.106265  0.116921  0  0.998838  0
H  H13  1  0.63740518  0.19150141  0.64653628  1  0  0.104973  0  0.944606  0  0  0.118918  0  0.997946  0  0  0.121552  0  0.997369  0  0  0.106193  0.116858  0  0.998955  0
H  H14  1  0.37252047  0.54769813  0.92319340  1  0  0.126874  0  0.942349  0  0  0.137127  0  0.999008  0  0  0.140652  0  0.996892  0  0  0.111585  0.134787  0  1.000263  0
H  H15  1  0.62748908  0.95230780  0.42319412  1  0  0.126861  0  0.942336  0  0  0.137119  0  0.998971  0  0  0.140647  0  0.996852  0  0  0.111583  0.134778  0  1.000231  0
H  H16  1  0.62746639  0.45230255  0.07681532  1  0  0.126822  0  0.942412  0  0  0.137153  0  0.998974  0  0  0.140677  0  0.996862  0  0  0.111655  0.134816  0  1.000224  0
H  H17  1  0.37252088  0.04769389  0.57680982  1  0  0.126876  0  0.942281  0  0  0.13714  0  0.998932  0  0  0.140667  0  0.996815  0  0  0.111624  0.134805  0  1.000182  0
H  H18  1  0.17401247  0.16125655  0.99050304  1  0  0.088809  0  0.928748  0  0  0.098381  0  1.002724  0  0  0.09944  0  1.000595  0  0  0.117326  0.096678  0  1.005308  0
H  H19  1  0.82599401  0.33875104  0.49049597  1  0  0.088795  0  0.92875  0  0  0.09836  0  1.002691  0  0  0.099411  0  1.000583  0  0  0.117299  0.096658  0  1.005266  0
H  H20  1  0.82598208  0.83875127  0.00949530  1  0  0.088831  0  0.928762  0  0  0.098464  0  1.002688  0  0  0.099521  0  1.000556  0  0  0.117369  0.096758  0  1.005272  0
H  H21  1  0.17400253  0.66124597  0.50950238  1  0  0.088809  0  0.928785  0  0  0.098411  0  1.002721  0  0  0.099465  0  1.000606  0  0  0.117307  0.096709  0  1.00529  0
H  H22  1  0.32665243  0.22110138  0.89724383  1  0  0.084618  0  0.909742  0  0  0.104564  0  0.965769  0  0  0.105465  0  0.964474  0  0  0.118389  0.10415  0  0.965191  0
H  H23  1  0.67335334  0.27889890  0.39724118  1  0  0.084658  0  0.909738  0  0  0.104574  0  0.965763  0  0  0.105476  0  0.964466  0  0  0.118391  0.10416  0  0.965184  0
H  H24  1  0.67334391  0.77890522  0.10275452  1  0  0.08466  0  0.909731  0  0  0.104609  0  0.965779  0  0  0.105508  0  0.964477  0  0  0.118398  0.104194  0  0.9652  0
H  H25  1  0.32664607  0.72109688  0.60275238  1  0  0.084656  0  0.909769  0  0  0.104577  0  0.965823  0  0  0.105474  0  0.964529  0  0  0.118414  0.104158  0  0.965246  0
H  H26  1  0.99879522  0.01775705  0.83651116  1  0  0.112356  0  0.946485  0  0  0.12125  0  1.018056  0  0  0.123848  0  1.016415  0  0  0.105334  0.11944  0  1.019548  0
H  H27  1  0.00121502  0.48223353  0.33651062  1  0  0.112384  0  0.946486  0  0  0.121306  0  1.018034  0  0  0.123892  0  1.016417  0  0  0.105353  0.119506  0  1.019492  0
H  H28  1  0.00120317  0.98224234  0.16348479  1  0  0.112365  0  0.946462  0  0  0.121277  0  1.01802  0  0  0.123874  0  1.016378  0  0  0.10535  0.119458  0  1.019532  0
H  H29  1  0.99878942  0.51776101  0.66348933  1  0  0.112366  0  0.946503  0  0  0.12128  0  1.018067  0  0  0.123877  0  1.016426  0  0  0.105325  0.119476  0  1.019536  0
H  H30  1  0.14339632  0.11935104  0.74702440  1  0  0.113234  0  0.952847  0  0  0.124762  0  1.018217  0  0  0.126925  0  1.018507  0  0  0.10126  0.122518  0  1.019235  0
H  H31  1  0.85662029  0.38065136  0.24701797  1  0  0.113187  0  0.952875  0  0  0.124729  0  1.018245  0  0  0.126892  0  1.018533  0  0  0.101198  0.122483  0  1.019263  0
H  H32  1  0.85660250  0.88065314  0.25297475  1  0  0.113181  0  0.95284  0  0  0.124697  0  1.018255  0  0  0.126857  0  1.018546  0  0  0.101238  0.122458  0  1.019259  0
H  H33  1  0.14338695  0.61933836  0.75297878  1  0  0.113177  0  0.952869  0  0  0.124711  0  1.018264  0  0  0.126873  0  1.018553  0  0  0.101219  0.122467  0  1.019282  0
H  H34  1  0.87756393  0.60612940  0.82227745  1  0  0.411777  0  0.886742  0  0  0.380018  0  0.959143  0  0  0.390883  0  0.943382  0  0  0.282847  0.371938  0  0.970993  0
H  H35  1  0.12243231  0.89386332  0.32227071  1  0  0.411858  0  0.886573  0  0  0.380118  0  0.958978  0  0  0.39098  0  0.943222  0  0  0.282906  0.37204  0  0.970825  0
H  H36  1  0.12243667  0.39387356  0.17772010  1  0  0.411742  0  0.886793  0  0  0.379984  0  0.959197  0  0  0.390849  0  0.943437  0  0  0.28283  0.371903  0  0.971048  0
H  H37  1  0.87756151  0.10612171  0.67772445  1  0  0.411742  0  0.886712  0  0  0.379997  0  0.959145  0  0  0.39086  0  0.943387  0  0  0.282839  0.371914  0  0.971001  0
H  H38  1  0.86251805  0.42144767  0.82605370  1  0  0.403134  0  0.90154  0  0  0.369814  0  0.97921  0  0  0.381074  0  0.962807  0  0  0.281343  0.361948  0  0.990544  0
H  H39  1  0.13748262  0.07854297  0.32605303  1  0  0.403219  0  0.901497  0  0  0.369916  0  0.979076  0  0  0.381175  0  0.962674  0  0  0.281402  0.362047  0  0.990416  0
H  H40  1  0.13747600  0.57855175  0.17394544  1  0  0.403136  0  0.901504  0  0  0.369803  0  0.979222  0  0  0.381067  0  0.962812  0  0  0.281337  0.361942  0  0.990547  0
H  H41  1  0.86251808  0.92144321  0.67394771  1  0  0.40305  0  0.901579  0  0  0.369722  0  0.979324  0  0  0.380983  0  0.962918  0  0  0.2813  0.361858  0  0.990656  0
C  C42  1  0.36021289  0.93072868  0.89633976  1  0  0.089535  0  3.801031  0  0  0.063289  0  4.046415  0  0  0.076703  0  4.072016  0  0  0.106018  0.061212  0  4.030912  0
C  C43  1  0.63979425  0.56927844  0.39633678  1  0  0.089478  0  3.801083  0  0  0.063333  0  4.046327  0  0  0.07674  0  4.07193  0  0  0.106043  0.061258  0  4.030821  0
C  C44  1  0.63978345  0.06927792  0.10366497  1  0  0.089582  0  3.801136  0  0  0.063349  0  4.046437  0  0  0.076812  0  4.072046  0  0  0.106066  0.06127  0  4.030937  0
C  C45  1  0.36020527  0.43072454  0.60365439  1  0  0.089687  0  3.801094  0  0  0.063428  0  4.046468  0  0  0.076858  0  4.072072  0  0  0.106083  0.061347  0  4.030972  0
C  C46  1  0.50719107  0.01284166  0.85749633  1  0  -0.141906  0  3.75316  0  0  -0.160316  0  4.014949  0  0  -0.164115  0  4.034081  0  0  -0.090397  -0.157652  0  4.000558  0
C  C47  1  0.49281440  0.48716577  0.35748723  1  0  -0.141942  0  3.753161  0  0  -0.160363  0  4.014953  0  0  -0.16416  0  4.034083  0  0  -0.090436  -0.157703  0  4.00057  0
C  C48  1  0.49281062  0.98716129  0.14251239  1  0  -0.141995  0  3.753184  0  0  -0.160409  0  4.014981  0  0  -0.164208  0  4.034107  0  0  -0.090418  -0.157746  0  4.000598  0
C  C49  1  0.50718849  0.51284438  0.64249755  1  0  -0.141909  0  3.753098  0  0  -0.160332  0  4.014894  0  0  -0.164129  0  4.034022  0  0  -0.090406  -0.157664  0  4.000503  0
C  C50  1  0.60348192  0.92222997  0.84307455  1  0  -0.048094  0  3.738582  0  0  -0.071809  0  4.001004  0  0  -0.07185  0  4.021512  0  0  -0.089627  -0.071531  0  3.986638  0
C  C51  1  0.39653088  0.57778183  0.34307386  1  0  -0.048179  0  3.738798  0  0  -0.071918  0  4.001225  0  0  -0.07196  0  4.021734  0  0  -0.089653  -0.071639  0  3.986857  0
C  C52  1  0.39651533  0.07776583  0.15693337  1  0  -0.047908  0  3.738543  0  0  -0.071611  0  4.000905  0  0  -0.071658  0  4.021418  0  0  -0.08962  -0.071334  0  3.986545  0
C  C53  1  0.60348034  0.42223064  0.65692050  1  0  -0.048175  0  3.738462  0  0  -0.071914  0  4.000872  0  0  -0.071956  0  4.02138  0  0  -0.089659  -0.071631  0  3.986504  0
C  C54  1  0.55644254  0.75630521  0.86631434  1  0  -0.083036  0  3.76226  0  0  -0.09875  0  4.019765  0  0  -0.102136  0  4.042409  0  0  -0.092377  -0.096418  0  4.004678  0
C  C55  1  0.44356791  0.74369704  0.36631532  1  0  -0.083017  0  3.762509  0  0  -0.098714  0  4.020004  0  0  -0.1021  0  4.04265  0  0  -0.092365  -0.096385  0  4.004922  0
C  C56  1  0.44355286  0.24368820  0.13369677  1  0  -0.083241  0  3.762527  0  0  -0.09898  0  4.020074  0  0  -0.102366  0  4.042721  0  0  -0.092507  -0.096651  0  4.004992  0
C  C57  1  0.55643735  0.25630349  0.63368223  1  0  -0.082975  0  3.762188  0  0  -0.098694  0  4.019698  0  0  -0.10208  0  4.042346  0  0  -0.092333  -0.096366  0  4.004623  0
C  C58  1  0.41115975  0.67508377  0.90542437  1  0  -0.119443  0  3.706675  0  0  -0.139271  0  3.955908  0  0  -0.140477  0  3.974959  0  0  -0.08248  -0.138071  0  3.942961  0
C  C59  1  0.58884291  0.82492339  0.40542105  1  0  -0.119321  0  3.706325  0  0  -0.139146  0  3.955504  0  0  -0.140351  0  3.974551  0  0  -0.082475  -0.137956  0  3.94257  0
C  C60  1  0.58882457  0.32491573  0.09458435  1  0  -0.119369  0  3.706853  0  0  -0.139258  0  3.956121  0  0  -0.140464  0  3.975172  0  0  -0.082553  -0.138063  0  3.943175  0
C  C61  1  0.41116030  0.17508435  0.59457410  1  0  -0.119414  0  3.706716  0  0  -0.139265  0  3.955987  0  0  -0.140474  0  3.975038  0  0  -0.082538  -0.13807  0  3.943046  0
C  C62  1  0.31229268  0.76543589  0.92042392  1  0  0.119192  0  3.81503  0  0  0.11527  0  4.069115  0  0  0.116651  0  4.089071  0  0  0.095902  0.114692  0  4.053638  0
C  C63  1  0.68772049  0.73456761  0.42041940  1  0  0.11915  0  3.814989  0  0  0.11523  0  4.069033  0  0  0.116614  0  4.088986  0  0  0.095925  0.114649  0  4.053559  0
C  C64  1  0.68770041  0.23457073  0.07958002  1  0  0.119325  0  3.814923  0  0  0.115332  0  4.069052  0  0  0.116719  0  4.088987  0  0  0.095973  0.114756  0  4.053574  0
C  C65  1  0.31229482  0.26543044  0.57957256  1  0  0.119185  0  3.81505  0  0  0.115254  0  4.069148  0  0  0.116641  0  4.089096  0  0  0.095934  0.114673  0  4.053681  0
C  C66  1  0.21449438  0.13230976  0.91335088  1  0  0.020433  0  3.636118  0  0  -0.061179  0  3.904916  0  0  -0.046098  0  3.915634  0  0  -0.047604  -0.065209  0  3.899887  0
C  C67  1  0.78550901  0.36769416  0.41334587  1  0  0.020421  0  3.635988  0  0  -0.061076  0  3.904709  0  0  -0.046001  0  3.915414  0  0  -0.047585  -0.065106  0  3.899686  0
C  C68  1  0.78550195  0.86769684  0.08664667  1  0  0.020334  0  3.636135  0  0  -0.061396  0  3.905003  0  0  -0.046262  0  3.915715  0  0  -0.047655  -0.065427  0  3.899978  0
C  C69  1  0.21449040  0.63230163  0.58664769  1  0  0.020449  0  3.636009  0  0  -0.061164  0  3.904845  0  0  -0.046069  0  3.915547  0  0  -0.047623  -0.06519  0  3.899811  0
C  C70  1  0.09712276  0.12747737  0.82684929  1  0  -0.30549  0  3.68034  0  0  -0.346874  0  3.94063  0  0  -0.352961  0  3.944978  0  0  -0.172441  -0.342307  0  3.935746  0
C  C71  1  0.90288381  0.37252162  0.32684560  1  0  -0.305497  0  3.68029  0  0  -0.346971  0  3.940651  0  0  -0.353052  0  3.94498  0  0  -0.172403  -0.342403  0  3.935763  0
C  C72  1  0.90287352  0.87252564  0.17314905  1  0  -0.305382  0  3.680329  0  0  -0.346796  0  3.940583  0  0  -0.352872  0  3.944902  0  0  -0.172441  -0.34223  0  3.935691  0
C  C73  1  0.09712458  0.62747169  0.67315355  1  0  -0.305464  0  3.68016  0  0  -0.346905  0  3.940464  0  0  -0.352982  0  3.944793  0  0  -0.172416  -0.342335  0  3.935583  0
C  C74  1  0.03802743  0.26874256  0.83257914  1  0  0.709074  0  3.844955  0  0  0.654618  0  4.153953  0  0  0.688204  0  4.147033  0  0  0.208991  0.632292  0  4.156702  0
C  C75  1  0.96197135  0.23124930  0.33258244  1  0  0.709156  0  3.844944  0  0  0.654727  0  4.153947  0  0  0.688312  0  4.147024  0  0  0.209078  0.6324  0  4.156698  0
C  C76  1  0.96196592  0.73125807  0.16741921  1  0  0.709055  0  3.84508  0  0  0.654757  0  4.153883  0  0  0.688343  0  4.14696  0  0  0.209061  0.632428  0  4.156631  0
C  C77  1  0.03803347  0.76874644  0.66742309  1  0  0.709171  0  3.845156  0  0  0.654735  0  4.15413  0  0  0.688322  0  4.147209  0  0  0.209047  0.632394  0  4.156898  0
N  N78  1  0.23677530  0.97688688  0.92271825  1  0  0.008615  0  3.517759  0  0  0.122278  0  3.708676  0  0  0.080315  0  3.770979  0  0  -0.120833  0.130141  0  3.692241  0
N  N79  1  0.76323286  0.52312146  0.42270919  1  0  0.008654  0  3.517609  0  0  0.122229  0  3.708548  0  0  0.08028  0  3.770844  0  0  -0.12078  0.130092  0  3.692112  0
N  N80  1  0.76321893  0.02312334  0.07728568  1  0  0.008597  0  3.517939  0  0  0.122387  0  3.708749  0  0  0.080282  0  3.771206  0  0  -0.120804  0.130253  0  3.692309  0
N  N81  1  0.23677743  0.47687783  0.57728038  1  0  0.008412  0  3.518051  0  0  0.122088  0  3.708993  0  0  0.080079  0  3.77133  0  0  -0.120873  0.129951  0  3.692553  0
N  N82  1  0.12112649  0.85253935  0.95950728  1  0  -0.037342  0  2.874024  0  0  -0.048414  0  3.143591  0  0  -0.032961  0  3.160836  0  0  -0.062041  -0.05181  0  3.136315  0
N  N83  1  0.87888278  0.64746423  0.45950072  1  0  -0.037273  0  2.873746  0  0  -0.048325  0  3.143329  0  0  -0.032874  0  3.160567  0  0  -0.062044  -0.051725  0  3.13605  0
N  N84  1  0.87886876  0.14746726  0.04049585  1  0  -0.037245  0  2.873971  0  0  -0.048437  0  3.143552  0  0  -0.032937  0  3.160819  0  0  -0.062043  -0.051829  0  3.136269  0
N  N85  1  0.12112496  0.35253388  0.54049444  1  0  -0.037232  0  2.873969  0  0  -0.048324  0  3.143509  0  0  -0.032852  0  3.16076  0  0  -0.062054  -0.051723  0  3.136234  0
N  N86  1  0.16432941  0.72505507  0.95847019  1  0  -0.260471  0  3.17159  0  0  -0.206541  0  3.465468  0  0  -0.217504  0  3.473922  0  0  -0.200645  -0.198904  0  3.458174  0
N  N87  1  0.83567587  0.77494615  0.45847001  1  0  -0.260567  0  3.171595  0  0  -0.206668  0  3.465522  0  0  -0.217634  0  3.473976  0  0  -0.200713  -0.199034  0  3.45823  0
N  N88  1  0.83566400  0.27494916  0.04153295  1  0  -0.260657  0  3.171654  0  0  -0.206619  0  3.465477  0  0  -0.217581  0  3.473913  0  0  -0.200706  -0.198987  0  3.458181  0
N  N89  1  0.16433079  0.22505197  0.54152914  1  0  -0.260622  0  3.171629  0  0  -0.206643  0  3.465471  0  0  -0.217612  0  3.473925  0  0  -0.200682  -0.19901  0  3.458182  0
O  O90  1  0.10788286  0.38235114  0.89537681  1  0  -0.656722  0  2.049987  0  0  -0.587371  0  2.312934  0  0  -0.614542  0  2.301654  0  0  -0.323753  -0.568633  0  2.32135  0
O  O91  1  0.89211975  0.11765277  0.39537961  1  0  -0.656714  0  2.050181  0  0  -0.587345  0  2.313113  0  0  -0.61451  0  2.301831  0  0  -0.323743  -0.568612  0  2.321538  0
O  O92  1  0.89210941  0.61764950  0.10461834  1  0  -0.656704  0  2.050018  0  0  -0.58741  0  2.312905  0  0  -0.614581  0  2.301626  0  0  -0.323781  -0.568674  0  2.321325  0
O  O93  1  0.10788761  0.88234415  0.60462991  1  0  -0.656683  0  2.050294  0  0  -0.587301  0  2.313162  0  0  -0.614468  0  2.301882  0  0  -0.323704  -0.56856  0  2.32158  0
O  O94  1  0.92139873  0.26336959  0.77586808  1  0  -0.65648  0  1.945067  0  0  -0.592474  0  2.163587  0  0  -0.618724  0  2.154675  0  0  -0.321876  -0.573381  0  2.16872  0
O  O95  1  0.07860343  0.23661618  0.27587004  1  0  -0.656587  0  1.944931  0  0  -0.592644  0  2.163475  0  0  -0.618902  0  2.154572  0  0  -0.322024  -0.573549  0  2.168607  0
O  O96  1  0.07859749  0.73662982  0.22412787  1  0  -0.656506  0  1.945156  0  0  -0.592549  0  2.163597  0  0  -0.618805  0  2.154692  0  0  -0.321888  -0.573456  0  2.168723  0
O  O97  1  0.92140273  0.76337355  0.72413709  1  0  -0.656624  0  1.945086  0  0  -0.592599  0  2.163581  0  0  -0.618865  0  2.154676  0  0  -0.321943  -0.5735  0  2.168715  0
O  O98  1  0.84591744  0.50970494  0.86921121  1  0  -0.824552  0  1.895627  0  0  -0.772887  0  2.105699  0  0  -0.79281  0  2.071706  0  0  -0.586046  -0.759092  0  2.13044  0
O  O99  1  0.15408197  0.99028662  0.36920687  1  0  -0.824722  0  1.895475  0  0  -0.773061  0  2.105516  0  0  -0.792985  0  2.071524  0  0  -0.586181  -0.759267  0  2.13025  0
O  O100  1  0.15408132  0.49029564  0.13078794  1  0  -0.824537  0  1.895661  0  0  -0.772862  0  2.105737  0  0  -0.792787  0  2.071739  0  0  -0.586027  -0.759067  0  2.130465  0
O  O101  1  0.84591218  0.00969602  0.63079228  1  0  -0.824469  0  1.895621  0  0  -0.772783  0  2.105755  0  0  -0.792708  0  2.071764  0  0  -0.586004  -0.758976  0  2.130471  0
