# generated using pymatgen
data_MnH16C21(NO)4
_symmetry_space_group_name_H-M   'P 1'
_cell_length_a   10.13656468
_cell_length_b   12.57227033
_cell_length_c   16.09563916
_cell_angle_alpha   89.99981887
_cell_angle_beta   90.00016724
_cell_angle_gamma   105.87408018
_symmetry_Int_Tables_number   1
_chemical_formula_structural   MnH16C21(NO)4
_chemical_formula_sum   'Mn4 H64 C84 N16 O16'
_cell_volume   1972.99925831
_cell_formula_units_Z   4
loop_
 _symmetry_equiv_pos_site_id
 _symmetry_equiv_pos_as_xyz
  1  'x, y, z'
loop_
 _atom_site_type_symbol
 _atom_site_label
 _atom_site_symmetry_multiplicity
 _atom_site_fract_x
 _atom_site_fract_y
 _atom_site_fract_z
 _atom_site_occupancy
 _atom_site_pbe_bader_charge
 _atom_site_pbe_bader_spin_density
 _atom_site_pbe_cm5_charge
 _atom_site_pbe_ddec_charge
 _atom_site_pbe_ddec_spin_density
 _atom_site_pbe_ddec_sum_bond_order
 _atom_site_pbe_magmom
Mn  Mn0  1  0.34755958  0.57100617  0.94326201  1  1.502107  4.521147  0.602966  0.902893  4.645103  2.400383  4.442
Mn  Mn1  1  0.65244407  0.92899565  0.44326125  1  1.502237  4.521116  0.602969  0.902935  4.645077  2.400368  4.442
Mn  Mn2  1  0.65246369  0.42899560  0.05674408  1  1.502026  -4.521169  0.602891  0.902675  -4.645111  2.400621  -4.442
Mn  Mn3  1  0.34753315  0.07100126  0.55673988  1  1.502021  -4.521202  0.602913  0.902782  -4.645126  2.400403  -4.442
H  H4  1  0.54541513  0.96899762  0.10096590  1  0.128138  0.000659  0.128231  0.132245  0.000421  0.991946  0.0
H  H5  1  0.45458550  0.53101703  0.60097690  1  0.127909  0.000659  0.128186  0.132253  0.00042  0.991935  0.0
H  H6  1  0.45458860  0.03101908  0.89902590  1  0.127923  -0.000659  0.128181  0.132218  -0.00042  0.992  0.0
H  H7  1  0.54541383  0.46898396  0.39902609  1  0.127977  -0.000659  0.128212  0.132258  -0.00042  0.991983  0.0
H  H8  1  0.12615980  0.48096282  0.07951676  1  0.140256  -2.7e-05  0.113439  0.124467  5.2e-05  1.026057  0.0
H  H9  1  0.87383582  0.01902734  0.57951618  1  0.140184  -2.7e-05  0.113405  0.12442  5.2e-05  1.025976  0.0
H  H10  1  0.87386459  0.51903646  0.92048809  1  0.139758  2.7e-05  0.113427  0.124412  -5.1e-05  1.02599  0.0
H  H11  1  0.12613363  0.98096131  0.42048494  1  0.139826  2.7e-05  0.11345  0.124486  -5.2e-05  1.026009  0.0
H  H12  1  0.05165945  0.36401384  0.97340366  1  0.178128  -0.000327  0.134097  0.10468  -0.000165  1.05357  0.0
H  H13  1  0.94835151  0.13598726  0.47340663  1  0.178027  -0.000327  0.134043  0.104654  -0.000165  1.053554  0.0
H  H14  1  0.94835933  0.63599787  0.02659249  1  0.1778  0.000327  0.134041  0.10463  0.000165  1.053542  0.0
H  H15  1  0.05164948  0.86400131  0.52658828  1  0.179093  0.000327  0.134048  0.1046  0.000165  1.053648  0.0
H  H16  1  0.99172725  0.18793795  0.06141428  1  0.106256  -1.4e-05  0.105022  0.10976  1.2e-05  1.052283  0.0
H  H17  1  0.00827482  0.31206549  0.56141631  1  0.095953  -1.4e-05  0.104992  0.109753  1.2e-05  1.052103  0.0
H  H18  1  0.00828112  0.81207791  0.93858001  1  0.095892  1.4e-05  0.105033  0.109848  -1.2e-05  1.052154  0.0
H  H19  1  0.99172138  0.68792061  0.43857984  1  0.095939  1.4e-05  0.105036  0.109918  -1.2e-05  1.052119  0.0
H  H20  1  0.77903585  0.04620063  0.09897534  1  0.083202  4.5e-05  0.112743  0.120195  3.9e-05  0.988841  0.0
H  H21  1  0.22096267  0.45380351  0.59898305  1  0.083214  4.5e-05  0.112699  0.120157  3.9e-05  0.988871  0.0
H  H22  1  0.22097208  0.95381110  0.90102019  1  0.083041  -4.5e-05  0.112742  0.120157  -3.9e-05  0.989097  0.0
H  H23  1  0.77903114  0.54618425  0.40101807  1  0.083301  -4.5e-05  0.112724  0.120128  -3.9e-05  0.988999  0.0
H  H24  1  0.33293089  0.77591437  0.08757844  1  0.10361  0.000475  0.121984  0.11818  0.000169  0.99991  0.0
H  H25  1  0.66706377  0.72409455  0.58758630  1  0.103591  0.000476  0.12194  0.118134  0.000169  0.999996  0.0
H  H26  1  0.66707901  0.22409156  0.91242020  1  0.103458  -0.000475  0.121994  0.118133  -0.000169  1.000033  0.0
H  H27  1  0.33292417  0.27591640  0.41241668  1  0.103379  -0.000475  0.12203  0.118185  -0.000169  1.000071  0.0
H  H28  1  0.95153732  0.07446038  0.80800665  1  0.134444  -5e-06  0.108552  0.11755  2e-06  1.034039  0.0
H  H29  1  0.04847355  0.42554545  0.30801342  1  0.134651  -5e-06  0.108565  0.117572  2e-06  1.034085  0.0
H  H30  1  0.04846526  0.92554722  0.19198515  1  0.134648  5e-06  0.108532  0.117507  -2e-06  1.034078  0.0
H  H31  1  0.95152409  0.57445637  0.69198646  1  0.134688  5e-06  0.108571  0.117561  -2e-06  1.034112  0.0
H  H32  1  0.88357557  0.21290361  0.22701117  1  0.070885  -0.000145  0.101573  0.107887  -7.7e-05  1.019477  0.0
H  H33  1  0.11641884  0.28709263  0.72700415  1  0.070876  -0.000145  0.101568  0.107938  -7.7e-05  1.019421  0.0
H  H34  1  0.11643643  0.78709983  0.77299306  1  0.07059  0.000145  0.101615  0.107925  7.7e-05  1.01963  0.0
H  H35  1  0.88356076  0.71289682  0.27299013  1  0.07054  0.000145  0.10164  0.107944  7.7e-05  1.019553  0.0
H  H36  1  0.22161876  0.14523504  0.83565372  1  0.106786  0.000374  0.123697  0.129438  0.000363  1.013749  0.0
H  H37  1  0.77839021  0.35476490  0.33565462  1  0.106869  0.000374  0.123714  0.129512  0.000363  1.013711  0.0
H  H38  1  0.77838198  0.85477008  0.16433808  1  0.106898  -0.000374  0.123701  0.129552  -0.000363  1.013699  0.0
H  H39  1  0.22160515  0.64522451  0.66434402  1  0.106822  -0.000374  0.123702  0.129492  -0.000363  1.013789  0.0
H  H40  1  0.40920944  0.35249450  0.84332221  1  0.119965  0.000335  0.122383  0.121884  0.000224  1.002705  0.0
H  H41  1  0.59080154  0.14750542  0.34332508  1  0.119747  0.000335  0.122325  0.121825  0.000225  1.002667  0.0
H  H42  1  0.59080074  0.64750647  0.15666773  1  0.119572  -0.000335  0.122298  0.121783  -0.000225  1.002625  0.0
H  H43  1  0.40919495  0.85248151  0.65667480  1  0.11954  -0.000335  0.122296  0.121817  -0.000224  1.00277  0.0
H  H44  1  0.32517173  0.28348363  0.22505847  1  0.086407  -0.000175  0.103529  0.111888  0.000171  1.005533  0.0
H  H45  1  0.67482069  0.21650683  0.72505767  1  0.086451  -0.000175  0.103544  0.111949  0.000171  1.005479  0.0
H  H46  1  0.67483856  0.71650906  0.77494887  1  0.08658  0.000175  0.1034  0.111697  -0.000171  1.005486  0.0
H  H47  1  0.32516245  0.78349585  0.27494346  1  0.086583  0.000175  0.103432  0.111761  -0.000171  1.005568  0.0
H  H48  1  0.61920150  0.77618276  0.89873072  1  0.159276  9.2e-05  0.132868  0.094554  -0.000262  1.054209  0.0
H  H49  1  0.38080131  0.72382005  0.39873736  1  0.15905  9.2e-05  0.132899  0.094597  -0.000262  1.054056  0.0
H  H50  1  0.38081713  0.22381984  0.10127040  1  0.159544  -9.1e-05  0.132903  0.094568  0.000262  1.054178  0.0
H  H51  1  0.61917520  0.27617769  0.60127122  1  0.159369  -9.1e-05  0.132881  0.094552  0.000262  1.054144  0.0
H  H52  1  0.73707876  0.93379527  0.84441905  1  0.087836  6.3e-05  0.108327  0.111805  3.6e-05  1.018392  0.0
H  H53  1  0.26291966  0.56621271  0.34442892  1  0.087961  6.3e-05  0.108329  0.111832  3.6e-05  1.018498  0.0
H  H54  1  0.26292031  0.06621648  0.15557586  1  0.088202  -6.3e-05  0.10833  0.111863  -3.6e-05  1.018467  0.0
H  H55  1  0.73706882  0.43378830  0.65557655  1  0.087753  -6.3e-05  0.108325  0.111819  -3.6e-05  1.018477  0.0
H  H56  1  0.11753260  0.17181217  0.35610507  1  0.03478  -0.0  0.094521  0.134123  8.8e-05  1.009668  0.0
H  H57  1  0.88246911  0.32818359  0.85610069  1  0.034845  -0.0  0.094553  0.13418  8.8e-05  1.009671  0.0
H  H58  1  0.88247784  0.82818383  0.64389854  1  0.034894  0.0  0.094472  0.13406  -8.8e-05  1.00966  0.0
H  H59  1  0.11752443  0.67180914  0.14389981  1  0.034907  0.0  0.094489  0.134062  -8.8e-05  1.009735  0.0
H  H60  1  0.17069474  0.09681809  0.27684523  1  0.043876  -9e-06  0.088482  0.125845  1e-05  1.02428  0.0
H  H61  1  0.82930193  0.40317548  0.77684554  1  0.044032  -9e-06  0.088499  0.125906  1e-05  1.02425  0.0
H  H62  1  0.82931725  0.90317956  0.72315776  1  0.043944  9e-06  0.088504  0.125897  -1e-05  1.02423  0.0
H  H63  1  0.17068739  0.59682222  0.22315931  1  0.043948  9e-06  0.08849  0.125867  -1e-05  1.024262  0.0
H  H64  1  0.99283297  0.08309468  0.29218374  1  0.065251  9.1e-05  0.093554  0.137125  -0.00014  1.00237  0.0
H  H65  1  0.00716136  0.41690049  0.79217932  1  0.065057  9.1e-05  0.093571  0.137158  -0.00014  1.002448  0.0
H  H66  1  0.00717747  0.91690132  0.70781925  1  0.06501  -9.1e-05  0.093587  0.137141  0.00014  1.00235  0.0
H  H67  1  0.99283162  0.58309637  0.20782056  1  0.064941  -9.1e-05  0.093569  0.137171  0.00014  1.002397  0.0
C  C68  1  0.74345006  0.98021600  0.97401373  1  0.257766  0.001286  0.095344  0.158403  0.001128  4.040241  0.001
C  C69  1  0.25655144  0.51979067  0.47402122  1  0.257252  0.001286  0.095324  0.158292  0.001128  4.040659  0.001
C  C70  1  0.25655633  0.01979408  0.02597993  1  0.257025  -0.001286  0.095264  0.158151  -0.001127  4.040569  -0.001
C  C71  1  0.74344069  0.48020371  0.52597929  1  0.257014  -0.001286  0.095365  0.158337  -0.001127  4.040508  -0.001
C  C72  1  0.23978641  0.38887245  0.14938932  1  -0.04609  -0.000616  -0.024518  -0.044986  -0.00038  4.021748  0.0
C  C73  1  0.76020987  0.11112159  0.64938893  1  -0.046441  -0.000616  -0.024518  -0.045072  -0.00038  4.021693  0.0
C  C74  1  0.76023827  0.61112766  0.85061988  1  -0.045058  0.000617  -0.024487  -0.044846  0.00038  4.021957  0.0
C  C75  1  0.23976734  0.88887532  0.35061530  1  -0.045207  0.000617  -0.024501  -0.044895  0.00038  4.021952  0.0
C  C76  1  0.86502034  0.37447657  0.11834862  1  1.543834  -0.008281  0.195209  0.550256  -0.009981  4.232882  -0.006
C  C77  1  0.13497444  0.12552503  0.61834138  1  1.544659  -0.008281  0.195272  0.550251  -0.009982  4.233037  -0.006
C  C78  1  0.13500422  0.62553760  0.88166245  1  1.545031  0.00828  0.195457  0.55071  0.00998  4.232384  0.006
C  C79  1  0.86499811  0.87446112  0.38165912  1  1.544982  0.008281  0.19545  0.550793  0.00998  4.232204  0.006
C  C80  1  0.99201758  0.34978862  0.15084018  1  -0.056075  0.000398  -0.019591  -0.029732  0.000851  4.006637  0.001
C  C81  1  0.00797955  0.15020789  0.65083202  1  -0.056426  0.000399  -0.019711  -0.029729  0.000851  4.006766  0.001
C  C82  1  0.00800161  0.65021564  0.84916529  1  -0.056989  -0.000398  -0.019496  -0.029752  -0.000851  4.006525  -0.001
C  C83  1  0.99200061  0.84978321  0.34916413  1  -0.057051  -0.000397  -0.019556  -0.029825  -0.000851  4.006707  -0.001
C  C84  1  0.52910246  0.90050636  0.05788970  1  0.242747  0.001326  -0.001043  -0.117267  0.000948  3.941738  0.001
C  C85  1  0.47089055  0.59950102  0.55789747  1  0.243103  0.001326  -0.001055  -0.117373  0.000948  3.94187  0.001
C  C86  1  0.47090026  0.09950456  0.94210459  1  0.243436  -0.001325  -0.001071  -0.117458  -0.000948  3.941643  -0.001
C  C87  1  0.52910216  0.40050081  0.44210366  1  0.24273  -0.001326  -0.001114  -0.117503  -0.000948  3.941767  -0.001
C  C88  1  0.10314154  0.23578823  0.23286912  1  -0.040209  0.000168  -0.015128  0.161099  0.000114  4.006075  0.0
C  C89  1  0.89685598  0.26420550  0.73286988  1  -0.039926  0.000168  -0.015105  0.161228  0.000115  4.005876  0.0
C  C90  1  0.89687595  0.76421106  0.76713511  1  -0.040243  -0.000167  -0.015292  0.160782  -0.000114  4.006114  0.0
C  C91  1  0.10312587  0.73579056  0.26713124  1  -0.040171  -0.000167  -0.015212  0.160869  -0.000114  4.005847  0.0
C  C92  1  0.11991098  0.41323213  0.12289629  1  -0.020747  -0.002562  -0.082809  -0.138962  -0.001869  3.975512  -0.002
C  C93  1  0.88008210  0.08675870  0.62289618  1  -0.020255  -0.002562  -0.082728  -0.13884  -0.001869  3.975265  -0.002
C  C94  1  0.88011369  0.58676797  0.87710857  1  -0.020812  0.002563  -0.082868  -0.13907  0.001869  3.976099  0.002
C  C95  1  0.11988960  0.91323077  0.37710618  1  -0.020834  0.002563  -0.082865  -0.139165  0.001869  3.976219  0.002
C  C96  1  0.12758433  0.33440763  0.93961139  1  0.945493  0.008571  0.146347  0.099113  0.007003  3.889283  0.006
C  C97  1  0.87242510  0.16558945  0.43961290  1  0.945424  0.008572  0.146348  0.09913  0.007004  3.889194  0.006
C  C98  1  0.87243148  0.66559828  0.06038601  1  0.945644  -0.008572  0.146302  0.098947  -0.007004  3.889163  -0.006
C  C99  1  0.12757899  0.83440242  0.56038325  1  0.944375  -0.00857  0.146326  0.099143  -0.007002  3.889416  -0.006
C  C100  1  0.37564027  0.45280815  0.11452031  1  1.542254  0.008554  0.217065  0.576198  0.007136  4.189489  0.007
C  C101  1  0.62435252  0.04718767  0.61451669  1  1.542334  0.00856  0.217156  0.576388  0.00714  4.189306  0.007
C  C102  1  0.62438750  0.54718946  0.88548889  1  1.543782  -0.008551  0.217287  0.57646  -0.007134  4.189489  -0.007
C  C103  1  0.37561724  0.95281338  0.38548567  1  1.543763  -0.008551  0.217312  0.576544  -0.007133  4.189318  -0.007
C  C104  1  0.98398278  0.14121150  0.93240304  1  0.308563  0.000798  0.095366  0.159992  0.000776  4.010973  0.001
C  C105  1  0.01602242  0.35879059  0.43240679  1  0.309118  0.000797  0.095473  0.160148  0.000776  4.011024  0.001
C  C106  1  0.01602291  0.85879941  0.06759187  1  0.308981  -0.000797  0.095509  0.160321  -0.000776  4.010868  -0.001
C  C107  1  0.98397167  0.64119800  0.56759309  1  0.309001  -0.000797  0.095486  0.160272  -0.000776  4.011162  -0.001
C  C108  1  0.93483655  0.13259857  0.01388713  1  0.042083  0.000795  -0.083255  -0.13529  0.0007  3.970717  0.001
C  C109  1  0.06516861  0.36740587  0.51388915  1  0.052408  0.000795  -0.083313  -0.135381  0.0007  3.970825  0.001
C  C110  1  0.06516295  0.86741731  0.98610654  1  0.052731  -0.000795  -0.083459  -0.135715  -0.000699  3.971131  -0.001
C  C111  1  0.93483773  0.63258104  0.48610514  1  0.05226  -0.000795  -0.083405  -0.135728  -0.000699  3.97111  -0.001
C  C112  1  0.81505568  0.05253390  0.03491827  1  -0.084456  2e-06  -0.085274  -0.149356  8.8e-05  3.979156  0.0
C  C113  1  0.18494322  0.44747214  0.53492033  1  -0.084792  2e-06  -0.085148  -0.149187  8.8e-05  3.979422  0.0
C  C114  1  0.18494902  0.94747701  0.96507540  1  -0.084493  -2e-06  -0.085069  -0.148967  -8.8e-05  3.97944  0.0
C  C115  1  0.81504736  0.55252060  0.46507706  1  -0.084598  -2e-06  -0.08509  -0.148974  -8.8e-05  3.97938  0.0
C  C116  1  0.42442500  0.80505646  0.05001490  1  0.465187  0.003993  0.008669  -0.014403  0.002515  3.986196  0.003
C  C117  1  0.57556756  0.69494681  0.55002576  1  0.465306  0.003992  0.008748  -0.014366  0.002514  3.98644  0.003
C  C118  1  0.57558490  0.19494947  0.94998125  1  0.464883  -0.003994  0.008689  -0.014343  -0.002515  3.986042  -0.003
C  C119  1  0.42441233  0.30505505  0.44997660  1  0.464962  -0.003994  0.00863  -0.014337  -0.002514  3.98626  -0.003
C  C120  1  0.91435349  0.06755709  0.87173134  1  0.001705  0.000496  -0.084021  -0.137893  0.000398  3.968805  0.0
C  C121  1  0.08564913  0.43244688  0.37173754  1  0.001505  0.000497  -0.084122  -0.137996  0.000398  3.968728  0.0
C  C122  1  0.08564966  0.93245216  0.12826295  1  0.001664  -0.000496  -0.083971  -0.13781  -0.000398  3.96852  0.0
C  C123  1  0.91434455  0.56754916  0.62826172  1  0.001787  -0.000496  -0.083982  -0.137803  -0.000397  3.968744  0.0
C  C124  1  0.98419315  0.26159794  0.20571166  1  -0.049128  -0.001706  -0.088626  -0.168467  -0.001212  3.927593  -0.001
C  C125  1  0.01580104  0.23839507  0.70570518  1  -0.049356  -0.001705  -0.088589  -0.168614  -0.001212  3.927579  -0.001
C  C126  1  0.01582702  0.73840632  0.79429319  1  -0.048352  0.001705  -0.088685  -0.168481  0.001212  3.927899  0.001
C  C127  1  0.98417390  0.76159522  0.29429222  1  -0.048477  0.001706  -0.088741  -0.168506  0.001213  3.927821  0.001
C  C128  1  0.21697150  0.22036835  0.86691862  1  0.302822  0.000514  0.000743  -0.103528  0.0003  3.924295  0.0
C  C129  1  0.78303589  0.27963231  0.36692157  1  0.303238  0.000514  0.000643  -0.103774  0.0003  3.924562  0.0
C  C130  1  0.78303249  0.77963759  0.13307256  1  0.303139  -0.000514  0.000697  -0.103954  -0.0003  3.924532  0.0
C  C131  1  0.21695453  0.72035132  0.63307645  1  0.303267  -0.000515  0.000708  -0.103775  -0.000301  3.924318  0.0
C  C132  1  0.30705093  0.32396601  0.86926954  1  0.428409  0.004424  0.004147  -0.022403  0.00332  3.983689  0.003
C  C133  1  0.69295703  0.17603630  0.36927503  1  0.428355  0.004425  0.004252  -0.022199  0.00332  3.983735  0.003
C  C134  1  0.69295827  0.67604075  0.13071916  1  0.428639  -0.004424  0.004328  -0.022014  -0.00332  3.983601  -0.003
C  C135  1  0.30704495  0.82395227  0.63072547  1  0.428556  -0.004424  0.004363  -0.022005  -0.003319  3.983289  -0.003
C  C136  1  0.23039301  0.30065473  0.20445277  1  -0.090837  -0.001716  -0.093261  -0.174743  -0.001214  3.946718  -0.001
C  C137  1  0.76960231  0.19934159  0.70445158  1  -0.09089  -0.001716  -0.093324  -0.174907  -0.001213  3.946652  -0.001
C  C138  1  0.76962039  0.69934126  0.79555270  1  -0.091545  0.001717  -0.093183  -0.174472  0.001214  3.946173  0.001
C  C139  1  0.23038279  0.80066109  0.29554768  1  -0.091329  0.001717  -0.093194  -0.174493  0.001215  3.946217  0.001
C  C140  1  0.56760963  0.80273338  0.95038687  1  0.974481  0.007834  0.146601  0.099982  0.006572  3.900284  0.006
C  C141  1  0.43239829  0.69728081  0.45039304  1  0.97455  0.007833  0.146531  0.099952  0.006572  3.900426  0.006
C  C142  1  0.43240858  0.19727087  0.04961425  1  0.974547  -0.007834  0.146514  0.099788  -0.006572  3.900442  -0.006
C  C143  1  0.56758204  0.30272519  0.54961429  1  0.974237  -0.007832  0.146564  0.099892  -0.006571  3.900474  -0.006
C  C144  1  0.79388992  0.98811028  0.89258178  1  0.01771  0.000232  -0.088846  -0.155726  0.000152  3.979796  0.0
C  C145  1  0.20611724  0.51189667  0.39258980  1  0.017771  0.000232  -0.088845  -0.155803  0.000152  3.979844  0.0
C  C146  1  0.20611436  0.01190228  0.10740940  1  0.017356  -0.000232  -0.088869  -0.155925  -0.000152  3.979899  0.0
C  C147  1  0.79387701  0.48810102  0.60741070  1  0.017865  -0.000232  -0.088983  -0.156049  -0.000152  3.979888  0.0
C  C148  1  0.09521677  0.14193546  0.29196473  1  -0.064794  0.0001  -0.242311  -0.419976  8.6e-05  3.952701  0.0
C  C149  1  0.90478122  0.35805887  0.79196156  1  -0.064658  0.0001  -0.24233  -0.420093  8.5e-05  3.952853  0.0
C  C150  1  0.90479508  0.85805888  0.70804012  1  -0.064811  -0.0001  -0.242198  -0.419865  -8.5e-05  3.952715  0.0
C  C151  1  0.09520937  0.64193965  0.20804018  1  -0.064753  -0.0001  -0.242211  -0.41991  -8.5e-05  3.95282  0.0
N  N152  1  0.10343148  0.22745922  0.91274396  1  -1.267836  0.004378  -0.230417  -0.003765  0.002751  3.793361  0.003
N  N153  1  0.89657732  0.27254211  0.41274652  1  -1.26847  0.00438  -0.230449  -0.003836  0.002752  3.793296  0.003
N  N154  1  0.89657646  0.77255251  0.08724846  1  -1.268606  -0.004379  -0.230628  -0.003762  -0.002751  3.79311  -0.003
N  N155  1  0.10341945  0.72744565  0.58724715  1  -1.268567  -0.004379  -0.230607  -0.003886  -0.002751  3.79331  -0.003
N  N156  1  0.62011654  0.89877407  0.99357863  1  -1.268962  0.003089  -0.229184  -0.008034  0.00181  3.835119  0.002
N  N157  1  0.37988192  0.60123502  0.49358306  1  -1.26869  0.003089  -0.229066  -0.007727  0.00181  3.834888  0.002
N  N158  1  0.37988984  0.10123601  0.00641690  1  -1.26881  -0.003089  -0.22902  -0.007546  -0.00181  3.834938  -0.002
N  N159  1  0.62010768  0.39876351  0.50641930  1  -1.268415  -0.003089  -0.229003  -0.007617  -0.001809  3.834976  -0.002
N  N160  1  0.44983541  0.74495166  0.98289997  1  -1.230361  0.04452  -0.330079  -0.269696  0.030119  3.487122  0.013
N  N161  1  0.55017315  0.75505247  0.48290749  1  -1.230156  0.044532  -0.330092  -0.269784  0.030121  3.487695  0.013
N  N162  1  0.55018419  0.25505094  0.01710115  1  -1.230477  -0.044533  -0.330084  -0.269568  -0.030117  3.487166  -0.013
N  N163  1  0.44980830  0.24495104  0.51709736  1  -1.229846  -0.044535  -0.330129  -0.269743  -0.030123  3.487476  -0.013
N  N164  1  0.25014240  0.39436737  0.91432509  1  -1.234243  0.046792  -0.338771  -0.294964  0.031484  3.501923  0.011
N  N165  1  0.74986711  0.10563312  0.41432712  1  -1.234191  0.0468  -0.338706  -0.294939  0.031483  3.502164  0.011
N  N166  1  0.74987173  0.60563938  0.08566920  1  -1.233911  -0.046791  -0.338649  -0.294837  -0.031482  3.502031  -0.011
N  N167  1  0.25013233  0.89435380  0.58566966  1  -1.233845  -0.046797  -0.338709  -0.295064  -0.031483  3.502075  -0.011
O  O168  1  0.86353171  0.40072350  0.04136314  1  -1.185184  -0.051281  -0.31699  -0.551035  -0.036281  2.181132  -0.027
O  O169  1  0.13645676  0.09926929  0.54135597  1  -1.185478  -0.051277  -0.316998  -0.551028  -0.036277  2.181199  -0.027
O  O170  1  0.13649200  0.59928819  0.95864793  1  -1.185362  0.051284  -0.317142  -0.551242  0.036281  2.181045  0.027
O  O171  1  0.86350647  0.90070695  0.45864516  1  -1.185226  0.051288  -0.317066  -0.551202  0.036281  2.180951  0.027
O  O172  1  0.76455000  0.36979836  0.16679208  1  -1.178074  -0.048263  -0.320722  -0.554096  -0.034018  2.135567  -0.026
O  O173  1  0.23545255  0.13020801  0.66678131  1  -1.178292  -0.048256  -0.320749  -0.55409  -0.034018  2.135479  -0.026
O  O174  1  0.23547977  0.63021663  0.83322022  1  -1.178737  0.048266  -0.320809  -0.554271  0.034021  2.135273  0.026
O  O175  1  0.76452001  0.86978394  0.33321671  1  -1.17881  0.048268  -0.320847  -0.554359  0.034021  2.135201  0.026
O  O176  1  0.47995701  0.41902064  0.13305590  1  -1.193891  -0.044177  -0.314398  -0.547699  -0.029217  2.308151  -0.01
O  O177  1  0.52004387  0.08097841  0.63305138  1  -1.193944  -0.04417  -0.314411  -0.547747  -0.029217  2.30811  -0.01
O  O178  1  0.52006610  0.58097202  0.86695392  1  -1.195168  0.044199  -0.314573  -0.547948  0.029223  2.308147  0.01
O  O179  1  0.47993674  0.91902841  0.36695222  1  -1.195215  0.044201  -0.314611  -0.54801  0.029225  2.308058  0.01
O  O180  1  0.37975057  0.53571658  0.06817599  1  -1.213282  0.05069  -0.31617  -0.567417  0.035588  2.374886  0.015
O  O181  1  0.62023682  0.96428001  0.56817265  1  -1.213441  0.0507  -0.316259  -0.567533  0.035595  2.374913  0.015
O  O182  1  0.62027788  0.46427441  0.93182514  1  -1.213349  -0.050687  -0.316192  -0.567509  -0.035585  2.375163  -0.015
O  O183  1  0.37972478  0.03572603  0.43182226  1  -1.213352  -0.050692  -0.316213  -0.567539  -0.035588  2.375093  -0.015
