# generated using pymatgen
data_ZnH10C22N6O5
_symmetry_space_group_name_H-M   'P 1'
_cell_length_a   6.10980456
_cell_length_b   10.82853783
_cell_length_c   14.24169286
_cell_angle_alpha   90.12943340
_cell_angle_beta   78.81808891
_cell_angle_gamma   83.78898799
_symmetry_Int_Tables_number   1
_chemical_formula_structural   ZnH10C22N6O5
_chemical_formula_sum   'Zn2 H20 C44 N12 O10'
_cell_volume   918.66031149
_cell_formula_units_Z   2
loop_
 _symmetry_equiv_pos_site_id
 _symmetry_equiv_pos_as_xyz
  1  'x, y, z'
loop_
 _atom_site_type_symbol
 _atom_site_label
 _atom_site_symmetry_multiplicity
 _atom_site_fract_x
 _atom_site_fract_y
 _atom_site_fract_z
 _atom_site_occupancy
 _atom_site_hle17_bader_spin_density
 _atom_site_hle17_ddec_charge
 _atom_site_hle17_ddec_spin_density
 _atom_site_hle17_ddec_sum_bond_order
 _atom_site_hle17_magmom
 _atom_site_hse06_10hf_bader_spin_density
 _atom_site_hse06_10hf_ddec_charge
 _atom_site_hse06_10hf_ddec_spin_density
 _atom_site_hse06_10hf_ddec_sum_bond_order
 _atom_site_hse06_10hf_magmom
 _atom_site_hse06_bader_spin_density
 _atom_site_hse06_ddec_charge
 _atom_site_hse06_ddec_spin_density
 _atom_site_hse06_ddec_sum_bond_order
 _atom_site_hse06_magmom
 _atom_site_pbe_bader_spin_density
 _atom_site_pbe_cm5_charge
 _atom_site_pbe_ddec_charge
 _atom_site_pbe_ddec_spin_density
 _atom_site_pbe_ddec_sum_bond_order
 _atom_site_pbe_magmom
Zn  Zn0  1  0.33262147  0.17301409  0.47003020  1  0  1.067107  0  1.793968  0  0  0.883374  0  2.25953  0  0  0.932405  0  2.201538  0  0  0.701231  0.849093  0  2.298981  0
Zn  Zn1  1  0.66739349  0.82697171  0.52996433  1  0  1.067091  0  1.794101  0  0  0.883331  0  2.259674  0  0  0.932359  0  2.20168  0  0  0.701276  0.849051  0  2.299137  0
H  H2  1  0.89779765  0.50659079  0.44723245  1  0  0.12069  0  0.954951  0  0  0.127272  0  1.018662  0  0  0.131379  0  1.01623  0  0  0.11115  0.124348  0  1.020311  0
H  H3  1  0.10219399  0.49341388  0.55277303  1  0  0.120724  0  0.954752  0  0  0.12731  0  1.018447  0  0  0.131416  0  1.016014  0  0  0.111125  0.12438  0  1.0201  0
H  H4  1  0.09597669  0.19536732  0.78258789  1  0  0.102765  0  0.943934  0  0  0.111792  0  1.007566  0  0  0.114989  0  1.006121  0  0  0.101954  0.109629  0  1.008702  0
H  H5  1  0.90403164  0.80462043  0.21739871  1  0  0.102725  0  0.94384  0  0  0.111731  0  1.007516  0  0  0.114927  0  1.006075  0  0  0.101923  0.109569  0  1.008647  0
H  H6  1  0.70465422  0.32373179  0.51728787  1  0  0.103057  0  0.977267  0  0  0.105927  0  1.045293  0  0  0.109151  0  1.042425  0  0  0.120815  0.103267  0  1.04757  0
H  H7  1  0.29533771  0.67627103  0.48271758  1  0  0.103019  0  0.977233  0  0  0.105854  0  1.045308  0  0  0.109075  0  1.042453  0  0  0.120813  0.103192  0  1.047587  0
H  H8  1  0.78043315  0.61001376  0.30763261  1  0  0.121383  0  0.944254  0  0  0.124657  0  1.013701  0  0  0.128381  0  1.009958  0  0  0.116337  0.121753  0  1.016563  0
H  H9  1  0.21956409  0.38998805  0.69236892  1  0  0.121334  0  0.944307  0  0  0.124642  0  1.013728  0  0  0.128368  0  1.009979  0  0  0.116322  0.121734  0  1.016595  0
H  H10  1  0.96592712  0.07716440  0.92816037  1  0  0.0882  0  0.942354  0  0  0.101379  0  0.998724  0  0  0.104435  0  0.99684  0  0  0.099768  0.09947  0  0.99959  0
H  H11  1  0.03407191  0.92284850  0.07183684  1  0  0.088223  0  0.94239  0  0  0.101381  0  0.998753  0  0  0.104429  0  0.996877  0  0  0.099763  0.099469  0  0.999621  0
H  H12  1  0.63310209  0.95928903  0.93719064  1  0  0.088595  0  0.980723  0  0  0.092872  0  1.053405  0  0  0.096528  0  1.050554  0  0  0.095702  0.090532  0  1.05525  0
H  H13  1  0.36688789  0.04072586  0.06281709  1  0  0.08851  0  0.980802  0  0  0.092813  0  1.053463  0  0  0.096474  0  1.050597  0  0  0.095692  0.090489  0  1.055293  0
H  H14  1  0.43543217  0.96021396  0.79990709  1  0  0.088549  0  0.957902  0  0  0.098539  0  1.022007  0  0  0.101851  0  1.019825  0  0  0.097732  0.096377  0  1.023407  0
H  H15  1  0.56454725  0.03979366  0.20010142  1  0  0.088496  0  0.957911  0  0  0.0985  0  1.022005  0  0  0.101812  0  1.019825  0  0  0.097713  0.096338  0  1.023406  0
H  H16  1  0.80224362  0.17764594  0.21048689  1  0  0.109176  0  0.940799  0  0  0.117752  0  1.000491  0  0  0.121277  0  0.999113  0  0  0.109431  0.115261  0  1.00154  0
H  H17  1  0.19775486  0.82236883  0.78951668  1  0  0.10921  0  0.940651  0  0  0.117731  0  1.000422  0  0  0.121257  0  0.999044  0  0  0.109437  0.115242  0  1.00147  0
H  H18  1  0.93509385  0.10577855  0.35964072  1  0  0.109525  0  0.913387  0  0  0.113793  0  0.977704  0  0  0.117073  0  0.974946  0  0  0.127059  0.110956  0  0.980434  0
H  H19  1  0.06491717  0.89422121  0.64035695  1  0  0.109445  0  0.913492  0  0  0.113737  0  0.977771  0  0  0.117021  0  0.975003  0  0  0.127022  0.11089  0  0.980519  0
H  H20  1  0.96354732  0.35779378  0.12329341  1  0  0.108572  0  0.970119  0  0  0.105708  0  1.054189  0  0  0.109962  0  1.049248  0  0  0.108312  0.102838  0  1.057352  0
H  H21  1  0.03645283  0.64222097  0.87671003  1  0  0.108577  0  0.970065  0  0  0.105704  0  1.054142  0  0  0.109962  0  1.049195  0  0  0.108304  0.102837  0  1.057303  0
C  C22  1  0.76569755  0.47225376  0.41668158  1  0  -0.107186  0  3.69425  0  0  -0.122844  0  3.954982  0  0  -0.130798  0  3.975067  0  0  -0.078568  -0.118236  0  3.942134  0
C  C23  1  0.23430614  0.52774888  0.58332156  1  0  -0.107283  0  3.694146  0  0  -0.122929  0  3.954876  0  0  -0.130881  0  3.974961  0  0  -0.078629  -0.118313  0  3.94201  0
C  C24  1  0.18370603  0.38101371  0.22269204  1  0  -0.047731  0  3.737433  0  0  -0.035858  0  3.973842  0  0  -0.04407  0  3.997703  0  0  0.001573  -0.030635  0  3.957908  0
C  C25  1  0.81628446  0.61899747  0.77731704  1  0  -0.047594  0  3.737112  0  0  -0.03586  0  3.973643  0  0  -0.044074  0  3.997505  0  0  0.001593  -0.030636  0  3.957708  0
C  C26  1  0.28468765  0.48665409  0.17567299  1  0  0.183091  0  3.672603  0  0  0.169562  0  3.933214  0  0  0.180671  0  3.944003  0  0  0.152277  0.16215  0  3.926681  0
C  C27  1  0.71530976  0.51335606  0.82433346  1  0  0.183058  0  3.672637  0  0  0.169559  0  3.933263  0  0  0.180663  0  3.94406  0  0  0.152264  0.162154  0  3.926718  0
C  C28  1  0.94991801  0.14416498  0.78714958  1  0  -0.099783  0  3.733407  0  0  -0.118555  0  3.981397  0  0  -0.121919  0  4.003431  0  0  -0.094807  -0.116263  0  3.965848  0
C  C29  1  0.05008635  0.85582560  0.21284225  1  0  -0.099819  0  3.73296  0  0  -0.118529  0  3.980982  0  0  -0.121896  0  4.003014  0  0  -0.094792  -0.116235  0  3.965425  0
C  C30  1  0.65334647  0.07720819  0.71379235  1  0  -0.091389  0  3.729572  0  0  -0.07464  0  3.962145  0  0  -0.081383  0  3.983537  0  0  -0.015133  -0.068731  0  3.946495  0
C  C31  1  0.34664586  0.92278257  0.28620812  1  0  -0.091663  0  3.729928  0  0  -0.074844  0  3.962479  0  0  -0.081593  0  3.983876  0  0  -0.015135  -0.068937  0  3.946824  0
C  C32  1  0.83972581  0.14428714  0.70943627  1  0  -0.04082  0  3.704745  0  0  -0.026606  0  3.937302  0  0  -0.029343  0  3.956941  0  0  -0.005987  -0.024414  0  3.923648  0
C  C33  1  0.16027828  0.85569417  0.29055626  1  0  -0.040361  0  3.704265  0  0  -0.026324  0  3.937112  0  0  -0.029055  0  3.956741  0  0  -0.005914  -0.02413  0  3.923447  0
C  C34  1  0.65920846  0.37094334  0.45536969  1  0  0.153321  0  3.654047  0  0  0.118164  0  3.90986  0  0  0.127572  0  3.925427  0  0  0.058978  0.111993  0  3.899896  0
C  C35  1  0.34079563  0.62905652  0.54463412  1  0  0.153304  0  3.65414  0  0  0.118172  0  3.909946  0  0  0.127572  0  3.925518  0  0  0.058993  0.112  0  3.899981  0
C  C36  1  0.46524413  0.53760627  0.21337224  1  0  0.189105  0  3.673499  0  0  0.172156  0  3.936141  0  0  0.182766  0  3.947039  0  0  0.156364  0.16459  0  3.930089  0
C  C37  1  0.53476129  0.46239635  0.78662938  1  0  0.189019  0  3.67359  0  0  0.172083  0  3.936197  0  0  0.182693  0  3.947097  0  0  0.15638  0.164529  0  3.930149  0
C  C38  1  0.53069703  0.48513217  0.29923992  1  0  -0.044854  0  3.739932  0  0  -0.030369  0  3.972564  0  0  -0.039005  0  3.996521  0  0  0.005293  -0.024834  0  3.956565  0
C  C39  1  0.46930704  0.51486861  0.70076108  1  0  -0.044794  0  3.739991  0  0  -0.030273  0  3.972593  0  0  -0.038908  0  3.99655  0  0  0.005307  -0.024754  0  3.956605  0
C  C40  1  0.25480027  0.33092218  0.30429822  1  0  0.15808  0  3.761775  0  0  0.146208  0  4.005862  0  0  0.153056  0  4.025879  0  0  0.128495  0.140491  0  3.993241  0
C  C41  1  0.74519323  0.66909173  0.69570854  1  0  0.158089  0  3.76163  0  0  0.146384  0  4.005623  0  0  0.153232  0  4.025642  0  0  0.128503  0.14066  0  3.993006  0
C  C42  1  0.70048842  0.53060771  0.33859503  1  0  0.012229  0  3.627959  0  0  -0.01877  0  3.881984  0  0  -0.012552  0  3.896627  0  0  -0.045982  -0.022448  0  3.871816  0
C  C43  1  0.29951259  0.46939034  0.66140972  1  0  0.012317  0  3.627775  0  0  -0.01872  0  3.881765  0  0  -0.012499  0  3.896395  0  0  -0.045903  -0.022387  0  3.871594  0
C  C44  1  0.43021559  0.38329428  0.34260910  1  0  0.154375  0  3.756437  0  0  0.140907  0  3.99849  0  0  0.14803  0  4.01915  0  0  0.12739  0.136351  0  3.984358  0
C  C45  1  0.56977939  0.61671034  0.65739612  1  0  0.15427  0  3.756665  0  0  0.140742  0  3.998705  0  0  0.147861  0  4.019369  0  0  0.127397  0.136195  0  3.984572  0
C  C46  1  0.87707143  0.07729224  0.86866704  1  0  -0.069485  0  3.790091  0  0  -0.088251  0  4.048498  0  0  -0.088611  0  4.069166  0  0  -0.097138  -0.086583  0  4.032497  0
C  C47  1  0.12293007  0.92270488  0.13132924  1  0  -0.06952  0  3.790182  0  0  -0.08823  0  4.048532  0  0  -0.088582  0  4.0692  0  0  -0.097121  -0.086565  0  4.032537  0
C  C48  1  0.53577386  0.07157465  0.63051774  1  0  0.687221  0  3.844923  0  0  0.633322  0  4.136718  0  0  0.668721  0  4.127809  0  0  0.223119  0.608589  0  4.14291  0
C  C49  1  0.46423291  0.92841034  0.36947670  1  0  0.687455  0  3.845163  0  0  0.633583  0  4.136859  0  0  0.66898  0  4.127957  0  0  0.223264  0.608862  0  4.143036  0
C  C50  1  0.69051048  0.01161023  0.87374415  1  0  -0.083298  0  3.790642  0  0  -0.10212  0  4.05483  0  0  -0.104286  0  4.075066  0  0  -0.100624  -0.099919  0  4.039686  0
C  C51  1  0.30948344  0.98839162  0.12625693  1  0  -0.083325  0  3.790696  0  0  -0.102185  0  4.054871  0  0  -0.104349  0  4.075106  0  0  -0.100685  -0.099998  0  4.039729  0
C  C52  1  0.58020582  0.01176030  0.79676208  1  0  -0.072897  0  3.750497  0  0  -0.097725  0  4.004573  0  0  -0.097998  0  4.024801  0  0  -0.09119  -0.097352  0  3.989781  0
C  C53  1  0.41978556  0.98823603  0.20324058  1  0  -0.072767  0  3.75055  0  0  -0.097598  0  4.004585  0  0  -0.097874  0  4.02482  0  0  -0.091151  -0.097229  0  3.989795  0
C  C54  1  0.93003334  0.22385750  0.23584944  1  0  -0.102241  0  3.690466  0  0  -0.116917  0  3.95117  0  0  -0.125321  0  3.97328  0  0  -0.073365  -0.111604  0  3.936622  0
C  C55  1  0.06996777  0.77615167  0.76415181  1  0  -0.102277  0  3.690358  0  0  -0.116925  0  3.951067  0  0  -0.125329  0  3.973181  0  0  -0.073375  -0.111617  0  3.936528  0
C  C56  1  0.51328615  0.66607717  0.08956630  1  0  0.22164  0  3.887099  0  0  0.201617  0  4.165488  0  0  0.20616  0  4.184788  0  0  0.224716  0.19842  0  4.153132  0
C  C57  1  0.48671561  0.33392736  0.91043630  1  0  0.221539  0  3.886953  0  0  0.201566  0  4.165382  0  0  0.206109  0  4.184683  0  0  0.224682  0.198375  0  4.153023  0
C  C58  1  0.94387259  0.20847917  0.62102786  1  0  0.662951  0  3.924937  0  0  0.607216  0  4.233545  0  0  0.642394  0  4.223659  0  0  0.20469  0.582472  0  4.239058  0
C  C59  1  0.05613580  0.79149745  0.37895871  1  0  0.662709  0  3.925212  0  0  0.606851  0  4.234085  0  0  0.642031  0  4.224208  0  0  0.204461  0.582108  0  4.239588  0
C  C60  1  0.33056792  0.62022044  0.05501194  1  0  0.218636  0  3.897576  0  0  0.197777  0  4.177185  0  0  0.203607  0  4.196161  0  0  0.219571  0.194172  0  4.164798  0
C  C61  1  0.66942479  0.37978792  0.94499416  1  0  0.218772  0  3.897454  0  0  0.197772  0  4.177253  0  0  0.2036  0  4.196225  0  0  0.219599  0.194171  0  4.164866  0
C  C62  1  0.00507302  0.18229870  0.31851217  1  0  0.174573  0  3.632612  0  0  0.141097  0  3.892206  0  0  0.150177  0  3.907958  0  0  0.073192  0.133626  0  3.883592  0
C  C63  1  0.99493341  0.81770854  0.68148797  1  0  0.174775  0  3.632671  0  0  0.141326  0  3.892186  0  0  0.150406  0  3.907939  0  0  0.073356  0.133856  0  3.88357  0
C  C64  1  0.01924553  0.32356451  0.18753949  1  0  -0.010752  0  3.660034  0  0  -0.044697  0  3.921444  0  0  -0.03981  0  3.938148  0  0  -0.055339  -0.046498  0  3.909078  0
C  C65  1  0.98074450  0.67645038  0.81246683  1  0  -0.010819  0  3.659933  0  0  -0.044705  0  3.921352  0  0  -0.039819  0  3.938056  0  0  -0.05534  -0.046503  0  3.908984  0
N  N66  1  0.49354431  0.32849935  0.41954758  1  0  -0.350862  0  3.275642  0  0  -0.276146  0  3.548705  0  0  -0.295545  0  3.562475  0  0  -0.316186  -0.263297  0  3.539297  0
N  N67  1  0.50645843  0.67149867  0.58045563  1  0  -0.3507  0  3.27569  0  0  -0.276003  0  3.548782  0  0  -0.295397  0  3.562557  0  0  -0.316217  -0.263158  0  3.539376  0
N  N68  1  0.16648470  0.23404598  0.35062242  1  0  -0.353172  0  3.24852  0  0  -0.288486  0  3.519715  0  0  -0.306243  0  3.533889  0  0  -0.309378  -0.276485  0  3.511431  0
N  N69  1  0.83352050  0.76595850  0.64937781  1  0  -0.353244  0  3.248483  0  0  -0.288633  0  3.519669  0  0  -0.306394  0  3.533852  0  0  -0.30945  -0.276629  0  3.511382  0
N  N70  1  0.57959789  0.62587800  0.17022224  1  0  -0.28985  0  2.950837  0  0  -0.264538  0  3.215555  0  0  -0.273526  0  3.226405  0  0  -0.270019  -0.259764  0  3.209792  0
N  N71  1  0.42040687  0.37411906  0.82977589  1  0  -0.289697  0  2.950669  0  0  -0.264403  0  3.21539  0  0  -0.273393  0  3.226241  0  0  -0.269962  -0.259644  0  3.209641  0
N  N72  1  0.21513190  0.52942130  0.09798905  1  0  -0.303136  0  2.957546  0  0  -0.279792  0  3.223224  0  0  -0.289032  0  3.233469  0  0  -0.280412  -0.274894  0  3.217309  0
N  N73  1  0.78484861  0.47059002  0.90201939  1  0  -0.303242  0  2.957594  0  0  -0.279872  0  3.223324  0  0  -0.289109  0  3.233568  0  0  -0.280459  -0.274975  0  3.217409  0
N  N74  1  0.30570495  0.67612356  0.97405843  1  0  -0.173033  0  2.638824  0  0  -0.168516  0  2.909777  0  0  -0.168768  0  2.917583  0  0  -0.175177  -0.168775  0  2.905494  0
N  N75  1  0.69428069  0.32388675  0.02595032  1  0  -0.172999  0  2.638832  0  0  -0.168435  0  2.909804  0  0  -0.168681  0  2.917608  0  0  -0.175179  -0.168685  0  2.905517  0
N  N76  1  0.60260138  0.74928662  0.02941043  1  0  -0.151386  0  2.616734  0  0  -0.152509  0  2.885932  0  0  -0.151108  0  2.894021  0  0  -0.169138  -0.154302  0  2.881945  0
N  N77  1  0.39739551  0.25071704  0.97059253  1  0  -0.151309  0  2.616832  0  0  -0.152436  0  2.885997  0  0  -0.151036  0  2.894093  0  0  -0.169102  -0.154233  0  2.882016  0
O  O78  1  0.47352969  0.96732870  0.61022309  1  0  -0.657591  0  2.053517  0  0  -0.590616  0  2.330455  0  0  -0.61729  0  2.313975  0  0  -0.329724  -0.571618  0  2.340992  0
O  O79  1  0.52648492  0.03266080  0.38976586  1  0  -0.657726  0  2.053375  0  0  -0.590758  0  2.330311  0  0  -0.617432  0  2.31382  0  0  -0.329819  -0.571802  0  2.340918  0
O  O80  1  0.50007034  0.17137318  0.58652758  1  0  -0.612748  0  2.036611  0  0  -0.539798  0  2.290674  0  0  -0.56879  0  2.27942  0  0  -0.296983  -0.519766  0  2.298118  0
O  O81  1  0.49993206  0.82861744  0.41347142  1  0  -0.612836  0  2.036926  0  0  -0.539841  0  2.29091  0  0  -0.56883  0  2.279663  0  0  -0.297022  -0.519813  0  2.298352  0
O  O82  1  0.47388401  0.75455219  0.95934228  1  0  0.002105  0  2.315322  0  0  0.070945  0  2.56546  0  0  0.055245  0  2.576427  0  0  0.081856  0.079638  0  2.559517  0
O  O83  1  0.52610862  0.24545710  0.04066243  1  0  0.001974  0  2.315532  0  0  0.070832  0  2.565647  0  0  0.055129  0  2.57661  0  0  0.08183  0.079531  0  2.559702  0
O  O84  1  0.04828740  0.13326218  0.55254284  1  0  -0.643479  0  2.031374  0  0  -0.572572  0  2.304358  0  0  -0.602756  0  2.289015  0  0  -0.327293  -0.549695  0  2.3134  0
O  O85  1  0.95173663  0.86669662  0.44745374  1  0  -0.64342  0  2.031638  0  0  -0.572453  0  2.304758  0  0  -0.602604  0  2.289349  0  0  -0.327198  -0.549579  0  2.313805  0
O  O86  1  0.93413291  0.32459750  0.62191510  1  0  -0.619284  0  1.920225  0  0  -0.571779  0  2.15409  0  0  -0.597755  0  2.146807  0  0  -0.314622  -0.549956  0  2.157012  0
O  O87  1  0.06588672  0.67537340  0.37806218  1  0  -0.619206  0  1.9203  0  0  -0.57158  0  2.15413  0  0  -0.597563  0  2.146856  0  0  -0.314508  -0.549753  0  2.157043  0
