# generated using pymatgen
data_CdH19C29(NO)4
_symmetry_space_group_name_H-M   'P 1'
_cell_length_a   8.63711747
_cell_length_b   10.23738812
_cell_length_c   14.42877464
_cell_angle_alpha   84.96314971
_cell_angle_beta   77.15207852
_cell_angle_gamma   71.33972936
_symmetry_Int_Tables_number   1
_chemical_formula_structural   CdH19C29(NO)4
_chemical_formula_sum   'Cd2 H38 C58 N8 O8'
_cell_volume   1178.29369274
_cell_formula_units_Z   2
loop_
 _symmetry_equiv_pos_site_id
 _symmetry_equiv_pos_as_xyz
  1  'x, y, z'
loop_
 _atom_site_type_symbol
 _atom_site_label
 _atom_site_symmetry_multiplicity
 _atom_site_fract_x
 _atom_site_fract_y
 _atom_site_fract_z
 _atom_site_occupancy
 _atom_site_hle17_bader_spin_density
 _atom_site_hle17_ddec_charge
 _atom_site_hle17_ddec_spin_density
 _atom_site_hle17_ddec_sum_bond_order
 _atom_site_hle17_magmom
 _atom_site_hse06_10hf_bader_spin_density
 _atom_site_hse06_10hf_ddec_charge
 _atom_site_hse06_10hf_ddec_spin_density
 _atom_site_hse06_10hf_ddec_sum_bond_order
 _atom_site_hse06_10hf_magmom
 _atom_site_hse06_bader_spin_density
 _atom_site_hse06_ddec_charge
 _atom_site_hse06_ddec_spin_density
 _atom_site_hse06_ddec_sum_bond_order
 _atom_site_hse06_magmom
 _atom_site_pbe_bader_spin_density
 _atom_site_pbe_cm5_charge
 _atom_site_pbe_ddec_charge
 _atom_site_pbe_ddec_spin_density
 _atom_site_pbe_ddec_sum_bond_order
 _atom_site_pbe_magmom
Cd  Cd0  1  0.15553446  0.83379169  0.44557628  1  0  1.135723  0  1.694123  0  0  0.942214  0  2.140518  0  0  0.999756  0  2.088169  0  0  0.778772  0.898748  0  2.177726  0
Cd  Cd1  1  0.84446398  0.16620954  0.55442338  1  0  1.135752  0  1.694074  0  0  0.942242  0  2.14047  0  0  0.999783  0  2.088119  0  0  0.778766  0.898778  0  2.177672  0
H  H2  1  0.16157186  0.30376042  0.44246055  1  0  0.114068  0  0.944745  0  0  0.120816  0  1.011803  0  0  0.12493  0  1.008598  0  0  0.107244  0.117803  0  1.014176  0
H  H3  1  0.83842889  0.69623771  0.55753901  1  0  0.114072  0  0.944733  0  0  0.120797  0  1.011822  0  0  0.124911  0  1.008617  0  0  0.107231  0.117785  0  1.014195  0
H  H4  1  0.08587482  0.61083523  0.22072673  1  0  0.094028  0  0.973338  0  0  0.102189  0  1.041952  0  0  0.10542  0  1.039714  0  0  0.100586  0.099804  0  1.043692  0
H  H5  1  0.91412399  0.38916498  0.77927364  1  0  0.093995  0  0.973369  0  0  0.102193  0  1.041943  0  0  0.105425  0  1.039706  0  0  0.100589  0.099813  0  1.043687  0
H  H6  1  0.40841147  0.89154186  0.23081564  1  0  0.097709  0  0.956655  0  0  0.105039  0  1.022931  0  0  0.10846  0  1.018487  0  0  0.129977  0.102534  0  1.025995  0
H  H7  1  0.59159047  0.10845626  0.76918446  1  0  0.097744  0  0.956584  0  0  0.105039  0  1.022913  0  0  0.10846  0  1.018468  0  0  0.129973  0.102536  0  1.025972  0
H  H8  1  0.15720132  0.61549836  0.07033044  1  0  0.084483  0  0.972229  0  0  0.095222  0  1.036455  0  0  0.097188  0  1.036669  0  0  0.094861  0.093749  0  1.036587  0
H  H9  1  0.84280225  0.38450179  0.92966862  1  0  0.084486  0  0.972217  0  0  0.095198  0  1.036473  0  0  0.097163  0  1.036688  0  0  0.09486  0.093725  0  1.036605  0
H  H10  1  0.84031013  0.68439531  0.34344108  1  0  0.130384  0  1.005378  0  0  0.136326  0  1.068867  0  0  0.139802  0  1.06694  0  0  0.12139  0.133804  0  1.070245  0
H  H11  1  0.15968910  0.31560697  0.65656118  1  0  0.130303  0  1.005458  0  0  0.136251  0  1.068955  0  0  0.139721  0  1.067024  0  0  0.121348  0.133734  0  1.07033  0
H  H12  1  0.26199984  0.63025918  0.64800804  1  0  0.10428  0  0.932307  0  0  0.113011  0  0.996849  0  0  0.114943  0  0.995066  0  0  0.141135  0.111615  0  0.998026  0
H  H13  1  0.73799897  0.36974102  0.35199164  1  0  0.104303  0  0.932277  0  0  0.113036  0  0.99681  0  0  0.11497  0  0.995022  0  0  0.14113  0.111638  0  0.997993  0
H  H14  1  0.06768319  0.20305777  0.18157301  1  0  0.09198  0  0.975531  0  0  0.099265  0  1.047381  0  0  0.102841  0  1.044277  0  0  0.097359  0.096536  0  1.049953  0
H  H15  1  0.93231920  0.79694239  0.81842620  1  0  0.091972  0  0.975541  0  0  0.099257  0  1.047397  0  0  0.10283  0  1.044294  0  0  0.097362  0.096533  0  1.04996  0
H  H16  1  0.56267111  0.63787825  0.46123365  1  0  0.122802  0  0.952931  0  0  0.129086  0  1.015438  0  0  0.132464  0  1.013176  0  0  0.119192  0.126584  0  1.017195  0
H  H17  1  0.43732774  0.36212507  0.53876929  1  0  0.122819  0  0.952966  0  0  0.129117  0  1.015452  0  0  0.132475  0  1.013215  0  0  0.1192  0.126618  0  1.017208  0
H  H18  1  0.92367265  0.86753004  0.27217639  1  0  0.128951  0  0.952804  0  0  0.136275  0  1.016831  0  0  0.14015  0  1.014039  0  0  0.112876  0.133552  0  1.018864  0
H  H19  1  0.07632853  0.13247014  0.72782367  1  0  0.128946  0  0.952843  0  0  0.13626  0  1.016872  0  0  0.140136  0  1.014079  0  0  0.112868  0.133536  0  1.018907  0
H  H20  1  0.08847298  0.96799120  0.14777129  1  0  0.09831  0  0.98222  0  0  0.107764  0  1.045403  0  0  0.111407  0  1.042183  0  0  0.099367  0.105038  0  1.047996  0
H  H21  1  0.91152814  0.03200588  0.85222760  1  0  0.098373  0  0.982111  0  0  0.107773  0  1.045359  0  0  0.111415  0  1.042142  0  0  0.099366  0.105048  0  1.047951  0
H  H22  1  0.77893251  0.94938681  0.95342186  1  0  0.087196  0  0.962289  0  0  0.101666  0  1.018135  0  0  0.10436  0  1.016384  0  0  0.101242  0.099761  0  1.019461  0
H  H23  1  0.22106778  0.05060927  0.04657859  1  0  0.087191  0  0.962264  0  0  0.101635  0  1.018149  0  0  0.104332  0  1.016395  0  0  0.101214  0.09973  0  1.019477  0
H  H24  1  0.51804567  0.35297560  0.87712462  1  0  0.080262  0  0.972045  0  0  0.091388  0  1.034915  0  0  0.093818  0  1.03348  0  0  0.098065  0.089592  0  1.036084  0
H  H25  1  0.48195748  0.64702248  0.12287324  1  0  0.080268  0  0.972057  0  0  0.091388  0  1.034929  0  0  0.093818  0  1.033494  0  0  0.098048  0.089591  0  1.036097  0
H  H26  1  0.61517390  0.84450230  0.08007097  1  0  0.096012  0  0.955342  0  0  0.107964  0  1.015483  0  0  0.110795  0  1.013976  0  0  0.102752  0.105933  0  1.016665  0
H  H27  1  0.38482802  0.15549583  0.91992983  1  0  0.096001  0  0.955366  0  0  0.107954  0  1.015505  0  0  0.110785  0  1.013999  0  0  0.102762  0.105924  0  1.016687  0
H  H28  1  0.90148259  0.31221067  0.08697115  1  0  0.084958  0  0.967235  0  0  0.09549  0  1.031362  0  0  0.097508  0  1.03177  0  0  0.09424  0.094003  0  1.031344  0
H  H29  1  0.09851823  0.68779055  0.91302889  1  0  0.084953  0  0.967246  0  0  0.09549  0  1.03136  0  0  0.097508  0  1.031769  0  0  0.094251  0.094  0  1.031341  0
H  H30  1  0.40596492  0.85895693  0.85239702  1  0  0.093243  0  0.989913  0  0  0.101261  0  1.057184  0  0  0.103034  0  1.058255  0  0  0.098893  0.099831  0  1.056702  0
H  H31  1  0.59403545  0.14104224  0.14760322  1  0  0.093284  0  0.98989  0  0  0.101304  0  1.05715  0  0  0.103076  0  1.058224  0  0  0.098919  0.099877  0  1.056667  0
H  H32  1  0.35021739  0.00259187  0.54100618  1  0  0.112878  0  0.949655  0  0  0.121063  0  1.011369  0  0  0.123457  0  1.010919  0  0  0.120017  0.119254  0  1.011935  0
H  H33  1  0.64977747  0.99740939  0.45899325  1  0  0.112816  0  0.949734  0  0  0.121014  0  1.011435  0  0  0.123412  0  1.010972  0  0  0.119982  0.119203  0  1.012005  0
H  H34  1  0.45618432  0.73985607  0.00181220  1  0  0.080311  0  0.968427  0  0  0.094011  0  1.026419  0  0  0.096451  0  1.025063  0  0  0.098365  0.092234  0  1.027535  0
H  H35  1  0.54381486  0.26014310  0.99818680  1  0  0.08031  0  0.968389  0  0  0.094015  0  1.026374  0  0  0.096455  0  1.025017  0  0  0.098375  0.092228  0  1.027505  0
H  H36  1  0.47666277  0.47205885  0.72647410  1  0  0.11141  0  0.966522  0  0  0.118185  0  1.033  0  0  0.120683  0  1.033018  0  0  0.107568  0.116308  0  1.033221  0
H  H37  1  0.52333844  0.52794131  0.27352388  1  0  0.111427  0  0.966535  0  0  0.118155  0  1.033066  0  0  0.120652  0  1.033084  0  0  0.107569  0.116281  0  1.03328  0
H  H38  1  0.50883112  0.90942445  0.69364688  1  0  0.111909  0  0.963035  0  0  0.120846  0  1.02647  0  0  0.123072  0  1.02571  0  0  0.121947  0.119388  0  1.026834  0
H  H39  1  0.49116613  0.09057679  0.30635224  1  0  0.111857  0  0.963071  0  0  0.120821  0  1.026483  0  0  0.12306  0  1.025687  0  0  0.121954  0.119359  0  1.026852  0
C  C40  1  0.13802285  0.33369595  0.37138475  1  0  -0.067552  0  3.687986  0  0  -0.107057  0  3.941721  0  0  -0.104049  0  3.959151  0  0  -0.079145  -0.108336  0  3.929942  0
C  C41  1  0.86197872  0.66630320  0.62861463  1  0  -0.067554  0  3.687967  0  0  -0.107061  0  3.941717  0  0  -0.104047  0  3.95915  0  0  -0.079177  -0.108337  0  3.929934  0
C  C42  1  0.09576500  0.50534031  0.24527996  1  0  -0.101629  0  3.692542  0  0  -0.134803  0  3.940386  0  0  -0.133379  0  3.958593  0  0  -0.079865  -0.135333  0  3.927942  0
C  C43  1  0.90423463  0.49466091  0.75472024  1  0  -0.101631  0  3.692582  0  0  -0.134838  0  3.940424  0  0  -0.133413  0  3.958631  0  0  -0.079887  -0.135379  0  3.927995  0
C  C44  1  0.12779769  0.46705602  0.33631462  1  0  -0.052954  0  3.755183  0  0  -0.026631  0  3.988355  0  0  -0.034753  0  4.010287  0  0  -0.017143  -0.021631  0  3.973627  0
C  C45  1  0.87220267  0.53294314  0.66368561  1  0  -0.052954  0  3.755154  0  0  -0.026626  0  3.988326  0  0  -0.034748  0  4.010256  0  0  -0.017138  -0.021628  0  3.973608  0
C  C46  1  0.48728265  0.82429196  0.27570455  1  0  0.141166  0  3.678111  0  0  0.084291  0  3.945002  0  0  0.097059  0  3.957983  0  0  0.12996  0.07599  0  3.93572  0
C  C47  1  0.51271891  0.17570719  0.72429553  1  0  0.141176  0  3.678138  0  0  0.084323  0  3.945039  0  0  0.097093  0  3.958019  0  0  0.129982  0.076018  0  3.935752  0
C  C48  1  0.08629344  0.56494306  0.04064340  1  0  -0.106337  0  3.755635  0  0  -0.126747  0  4.004743  0  0  -0.129489  0  4.027668  0  0  -0.094499  -0.124935  0  3.989578  0
C  C49  1  0.91371014  0.43505709  0.95935566  1  0  -0.106346  0  3.755757  0  0  -0.126712  0  4.004868  0  0  -0.129455  0  4.027794  0  0  -0.094499  -0.124904  0  3.989707  0
C  C50  1  0.71078396  0.71607904  0.33677220  1  0  -0.057426  0  3.628534  0  0  -0.094471  0  3.880368  0  0  -0.092991  0  3.898284  0  0  0.001656  -0.0956  0  3.86881  0
C  C51  1  0.28921528  0.28392324  0.66323006  1  0  -0.057235  0  3.628395  0  0  -0.094283  0  3.88023  0  0  -0.09279  0  3.898133  0  0  0.001752  -0.095415  0  3.868676  0
C  C52  1  0.30667323  0.71915619  0.63847719  1  0  0.186009  0  3.619689  0  0  0.126012  0  3.882968  0  0  0.141015  0  3.894668  0  0  0.15471  0.116011  0  3.874962  0
C  C53  1  0.69332439  0.28084402  0.36152265  1  0  0.18587  0  3.619731  0  0  0.125891  0  3.883007  0  0  0.140892  0  3.894708  0  0  0.154635  0.115892  0  3.875002  0
C  C54  1  0.08408900  0.27929134  0.22349512  1  0  -0.116702  0  3.706513  0  0  -0.150557  0  3.957309  0  0  -0.149322  0  3.975351  0  0  -0.088123  -0.151318  0  3.945259  0
C  C55  1  0.91591220  0.72070884  0.77650425  1  0  -0.11666  0  3.706461  0  0  -0.150528  0  3.957253  0  0  -0.149286  0  3.975298  0  0  -0.088107  -0.151293  0  3.945187  0
C  C56  1  0.07295658  0.41297608  0.18704827  1  0  0.048929  0  3.786201  0  0  0.066008  0  4.021853  0  0  0.064667  0  4.0452  0  0  -0.010487  0.066737  0  4.006094  0
C  C57  1  0.92704497  0.58702308  0.81295250  1  0  0.048917  0  3.786209  0  0  0.06602  0  4.021863  0  0  0.06468  0  4.045208  0  0  -0.010481  0.066756  0  4.006098  0
C  C58  1  0.57076245  0.69676251  0.39503995  1  0  -0.001773  0  3.740343  0  0  -0.033264  0  4.007188  0  0  -0.031967  0  4.026545  0  0  -0.004524  -0.034405  0  3.994613  0
C  C59  1  0.42923760  0.30324079  0.60496214  1  0  -0.0018  0  3.740338  0  0  -0.033317  0  4.007202  0  0  -0.032005  0  4.026569  0  0  -0.004514  -0.034461  0  3.99463  0
C  C60  1  0.03572454  0.45703188  0.09181506  1  0  0.04493  0  3.775733  0  0  0.060681  0  4.003899  0  0  0.060395  0  4.027993  0  0  -0.014559  0.060928  0  3.987681  0
C  C61  1  0.96427784  0.54296829  0.90818485  1  0  0.04492  0  3.775867  0  0  0.060624  0  4.004077  0  0  0.06034  0  4.028171  0  0  -0.014563  0.060872  0  3.987856  0
C  C62  1  0.11508000  0.23987337  0.31480564  1  0  -0.08238  0  3.806267  0  0  -0.056578  0  4.0465  0  0  -0.066211  0  4.070651  0  0  -0.028676  -0.05026  0  4.029807  0
C  C63  1  0.88492157  0.76012577  0.68519375  1  0  -0.082356  0  3.806272  0  0  -0.056528  0  4.046464  0  0  -0.066178  0  4.070641  0  0  -0.028654  -0.050208  0  4.029767  0
C  C64  1  0.89189804  0.88457532  0.20223093  1  0  -0.131991  0  3.720365  0  0  -0.153998  0  3.975347  0  0  -0.156639  0  3.994105  0  0  -0.084583  -0.151972  0  3.962821  0
C  C65  1  0.10810196  0.11542487  0.79776860  1  0  -0.132004  0  3.720427  0  0  -0.153996  0  3.975396  0  0  -0.156638  0  3.994152  0  0  -0.084591  -0.151968  0  3.962871  0
C  C66  1  0.98647983  0.94184003  0.12946687  1  0  -0.087989  0  3.713535  0  0  -0.106799  0  3.958755  0  0  -0.108707  0  3.978472  0  0  -0.085372  -0.105777  0  3.946103  0
C  C67  1  0.01352211  0.05815808  0.87053254  1  0  -0.088039  0  3.713442  0  0  -0.106822  0  3.958681  0  0  -0.108729  0  3.978396  0  0  -0.08536  -0.105798  0  3.946027  0
C  C68  1  0.81229711  0.93325948  0.02297142  1  0  -0.095288  0  3.755565  0  0  -0.114629  0  4.002979  0  0  -0.116742  0  4.024359  0  0  -0.087037  -0.11291  0  3.988565  0
C  C69  1  0.18770401  0.06673762  0.97702886  1  0  -0.095274  0  3.755516  0  0  -0.114592  0  4.002907  0  0  -0.116705  0  4.024288  0  0  -0.087004  -0.112865  0  3.988488  0
C  C70  1  0.75633411  0.85075528  0.18518674  1  0  0.170245  0  3.799495  0  0  0.162092  0  4.049046  0  0  0.167477  0  4.071391  0  0  0.093532  0.158238  0  4.034154  0
C  C71  1  0.24366663  0.14924285  0.81481352  1  0  0.170224  0  3.799627  0  0  0.16208  0  4.04916  0  0  0.167467  0  4.071502  0  0  0.093505  0.158227  0  4.034269  0
C  C72  1  0.49378497  0.46418746  0.87371076  1  0  -0.08446  0  3.726499  0  0  -0.103841  0  3.975473  0  0  -0.105842  0  3.996381  0  0  -0.083475  -0.102196  0  3.961056  0
C  C73  1  0.50621504  0.53581273  0.12628876  1  0  -0.084446  0  3.726532  0  0  -0.103827  0  3.975495  0  0  -0.105829  0  3.996404  0  0  -0.08345  -0.102182  0  3.961077  0
C  C74  1  0.71741272  0.87452233  0.09487712  1  0  -0.156299  0  3.77254  0  0  -0.175182  0  4.024718  0  0  -0.178602  0  4.045217  0  0  -0.095041  -0.172793  0  4.011051  0
C  C75  1  0.28258959  0.12547476  0.90512230  1  0  -0.156223  0  3.772605  0  0  -0.175107  0  4.024758  0  0  -0.178528  0  4.045257  0  0  -0.094997  -0.172719  0  4.011091  0
C  C76  1  0.94788430  0.39344569  0.04894388  1  0  -0.109354  0  3.760514  0  0  -0.12708  0  4.007083  0  0  -0.129981  0  4.029937  0  0  -0.095956  -0.125188  0  3.991985  0
C  C77  1  0.05211771  0.60655551  0.95105600  1  0  -0.109325  0  3.760412  0  0  -0.127036  0  4.006999  0  0  -0.129935  0  4.029852  0  0  -0.095949  -0.12514  0  3.991892  0
C  C78  1  0.94938792  0.96875658  0.03818757  1  0  0.04039  0  3.779114  0  0  0.0544  0  4.011941  0  0  0.05397  0  4.037  0  0  -0.010156  0.054693  0  3.995033  0
C  C79  1  0.05061283  0.03124155  0.96181199  1  0  0.040427  0  3.779084  0  0  0.054451  0  4.01189  0  0  0.05402  0  4.036948  0  0  -0.010156  0.054742  0  3.994981  0
C  C80  1  0.43414774  0.74736307  0.85753092  1  0  -0.144356  0  3.759725  0  0  -0.163248  0  4.009159  0  0  -0.166633  0  4.03097  0  0  -0.091546  -0.160857  0  3.994496  0
C  C81  1  0.56585107  0.25263713  0.14246945  1  0  -0.144391  0  3.759713  0  0  -0.16329  0  4.009152  0  0  -0.166676  0  4.030967  0  0  -0.091553  -0.160897  0  3.994487  0
C  C82  1  0.14608226  0.57205858  0.39624647  1  0  0.634238  0  3.930902  0  0  0.585891  0  4.222148  0  0  0.619906  0  4.216054  0  0  0.193826  0.562945  0  4.225059  0
C  C83  1  0.85391691  0.42794060  0.60375393  1  0  0.634295  0  3.931087  0  0  0.585942  0  4.222333  0  0  0.619957  0  4.216236  0  0  0.193869  0.562982  0  4.225258  0
C  C84  1  0.12218924  0.09708135  0.35116911  1  0  0.627214  0  3.943132  0  0  0.574687  0  4.236166  0  0  0.609002  0  4.231043  0  0  0.190179  0.551649  0  4.2381  0
C  C85  1  0.87781196  0.90291882  0.64882957  1  0  0.627206  0  3.943154  0  0  0.574678  0  4.236183  0  0  0.608997  0  4.231058  0  0  0.190211  0.551646  0  4.238101  0
C  C86  1  0.35592427  0.91155326  0.58627549  1  0  0.01294  0  3.726362  0  0  -0.020037  0  3.99149  0  0  -0.018044  0  4.0117  0  0  0.002793  -0.021284  0  3.977708  0
C  C87  1  0.64407096  0.08844698  0.41372535  1  0  0.013089  0  3.726247  0  0  -0.019886  0  3.991346  0  0  -0.01789  0  4.011558  0  0  0.002895  -0.021137  0  3.977566  0
C  C88  1  0.48908449  0.53564154  0.95390380  1  0  0.043115  0  3.777308  0  0  0.05636  0  4.010871  0  0  0.056298  0  4.034892  0  0  -0.005019  0.056379  0  3.994381  0
C  C89  1  0.51091431  0.46435866  0.04609658  1  0  0.043092  0  3.777361  0  0  0.056362  0  4.010906  0  0  0.056299  0  4.034927  0  0  -0.005023  0.056382  0  3.994413  0
C  C90  1  0.46110217  0.67867058  0.94262184  1  0  -0.085942  0  3.739695  0  0  -0.103783  0  3.983719  0  0  -0.106125  0  4.005106  0  0  -0.085237  -0.102073  0  3.969153  0
C  C91  1  0.53889820  0.32132858  0.05737771  1  0  -0.08591  0  3.739668  0  0  -0.103759  0  3.983687  0  0  -0.106101  0  4.005074  0  0  -0.085239  -0.102043  0  3.969129  0
C  C92  1  0.46876025  0.53095500  0.78763674  1  0  -0.132087  0  3.726873  0  0  -0.153733  0  3.981549  0  0  -0.157149  0  4.00268  0  0  -0.084854  -0.151357  0  3.967257  0
C  C93  1  0.53123938  0.46904622  0.21236277  1  0  -0.132076  0  3.726929  0  0  -0.15369  0  3.981608  0  0  -0.157105  0  4.002739  0  0  -0.084839  -0.151317  0  3.967316  0
C  C94  1  0.43654971  0.67369354  0.77991737  1  0  0.180269  0  3.783176  0  0  0.173224  0  4.028145  0  0  0.178369  0  4.0503  0  0  0.097027  0.169725  0  4.013174  0
C  C95  1  0.56344872  0.32630770  0.22008298  1  0  0.180256  0  3.783158  0  0  0.173227  0  4.028105  0  0  0.178372  0  4.050262  0  0  0.09704  0.169729  0  4.013137  0
C  C96  1  0.43231636  0.86822924  0.66201385  1  0  -0.052746  0  3.661994  0  0  -0.093594  0  3.923746  0  0  -0.092023  0  3.942728  0  0  0.001726  -0.094769  0  3.91107  0
C  C97  1  0.56767969  0.13177201  0.33798612  1  0  -0.05263  0  3.661907  0  0  -0.093504  0  3.92367  0  0  -0.091927  0  3.942653  0  0  0.001753  -0.094672  0  3.910989  0
N  N98  1  0.27782943  0.81798827  0.57290965  1  0  -0.380676  0  3.273296  0  0  -0.303385  0  3.553095  0  0  -0.325423  0  3.571175  0  0  -0.35331  -0.287893  0  3.539917  0
N  N99  1  0.72216737  0.18201093  0.42709036  1  0  -0.380748  0  3.273304  0  0  -0.303485  0  3.553138  0  0  -0.325523  0  3.571216  0  0  -0.353344  -0.287991  0  3.539961  0
N  N100  1  0.65690386  0.79642225  0.26040946  1  0  -0.093274  0  3.608044  0  0  -0.004083  0  3.818473  0  0  -0.019193  0  3.84497  0  0  -0.229287  0.006028  0  3.800564  0
N  N101  1  0.34309612  0.20357796  0.73959214  1  0  -0.093392  0  3.608097  0  0  -0.004211  0  3.818538  0  0  -0.019323  0  3.845032  0  0  -0.229344  0.005905  0  3.800626  0
N  N102  1  0.43250392  0.76580111  0.35663316  1  0  -0.382492  0  3.246726  0  0  -0.311897  0  3.526446  0  0  -0.331544  0  3.544191  0  0  -0.353423  -0.298023  0  3.513817  0
N  N103  1  0.56749606  0.23419910  0.64336844  1  0  -0.38254  0  3.24685  0  0  -0.31194  0  3.526563  0  0  -0.331586  0  3.544302  0  0  -0.353471  -0.298063  0  3.513933  0
N  N104  1  0.39989131  0.74625504  0.69513925  1  0  -0.086421  0  3.587942  0  0  0.00279  0  3.798323  0  0  -0.012001  0  3.823061  0  0  -0.221174  0.012463  0  3.781739  0
N  N105  1  0.60010630  0.25374518  0.30486128  1  0  -0.086406  0  3.587906  0  0  0.00279  0  3.798297  0  0  -0.012001  0  3.823038  0  0  -0.221177  0.012459  0  3.781714  0
O  O106  1  0.13569656  0.00513544  0.29453001  1  0  -0.618819  0  1.942916  0  0  -0.563233  0  2.17448  0  0  -0.588665  0  2.165574  0  0  -0.319231  -0.544538  0  2.179936  0
O  O107  1  0.86430739  0.99486368  0.70546906  1  0  -0.618842  0  1.942859  0  0  -0.563247  0  2.174415  0  0  -0.588675  0  2.165503  0  0  -0.319233  -0.544568  0  2.179897  0
O  O108  1  0.06343091  0.69855056  0.37755260  1  0  -0.662355  0  2.030394  0  0  -0.586405  0  2.283211  0  0  -0.617361  0  2.27113  0  0  -0.339736  -0.564218  0  2.291244  0
O  O109  1  0.93656752  0.30145068  0.62244845  1  0  -0.662379  0  2.03049  0  0  -0.586417  0  2.2833  0  0  -0.61737  0  2.271216  0  0  -0.339719  -0.564222  0  2.291332  0
O  O110  1  0.23501111  0.53685308  0.45740564  1  0  -0.615196  0  1.869096  0  0  -0.5682  0  2.08571  0  0  -0.591957  0  2.078357  0  0  -0.33012  -0.550741  0  2.089585  0
O  O111  1  0.76498805  0.46314611  0.54259614  1  0  -0.615221  0  1.869242  0  0  -0.568227  0  2.085867  0  0  -0.591986  0  2.078513  0  0  -0.330157  -0.550757  0  2.089735  0
O  O112  1  0.11603197  0.07247963  0.44145993  1  0  -0.683884  0  2.045919  0  0  -0.602324  0  2.306175  0  0  -0.633961  0  2.294092  0  0  -0.339708  -0.579499  0  2.313418  0
O  O113  1  0.88396603  0.92751954  0.55853923  1  0  -0.683923  0  2.046006  0  0  -0.602358  0  2.306257  0  0  -0.633995  0  2.294171  0  0  -0.339755  -0.579536  0  2.313497  0
