# generated using pymatgen
data_ErH22C27S2(NO2)7
_symmetry_space_group_name_H-M   'P 1'
_cell_length_a   9.53897189
_cell_length_b   12.88679169
_cell_length_c   14.59270000
_cell_angle_alpha   67.95850600
_cell_angle_beta   86.30033029
_cell_angle_gamma   75.60077150
_symmetry_Int_Tables_number   1
_chemical_formula_structural   ErH22C27S2(NO2)7
_chemical_formula_sum   'Er2 H44 C54 S4 N14 O28'
_cell_volume   1609.66533066
_cell_formula_units_Z   2
loop_
 _symmetry_equiv_pos_site_id
 _symmetry_equiv_pos_as_xyz
  1  'x, y, z'
loop_
 _atom_site_type_symbol
 _atom_site_label
 _atom_site_symmetry_multiplicity
 _atom_site_fract_x
 _atom_site_fract_y
 _atom_site_fract_z
 _atom_site_occupancy
 _atom_site_hle17_bader_spin_density
 _atom_site_hle17_ddec_charge
 _atom_site_hle17_ddec_spin_density
 _atom_site_hle17_ddec_sum_bond_order
 _atom_site_hle17_magmom
 _atom_site_hse06_10hf_bader_spin_density
 _atom_site_hse06_10hf_ddec_charge
 _atom_site_hse06_10hf_ddec_spin_density
 _atom_site_hse06_10hf_ddec_sum_bond_order
 _atom_site_hse06_10hf_magmom
 _atom_site_hse06_bader_spin_density
 _atom_site_hse06_ddec_charge
 _atom_site_hse06_ddec_spin_density
 _atom_site_hse06_ddec_sum_bond_order
 _atom_site_hse06_magmom
 _atom_site_pbe_bader_charge
 _atom_site_pbe_bader_spin_density
 _atom_site_pbe_cm5_charge
 _atom_site_pbe_ddec_charge
 _atom_site_pbe_ddec_spin_density
 _atom_site_pbe_ddec_sum_bond_order
 _atom_site_pbe_magmom
Er  Er0  1  0.23498738  0.54095350  0.49079611  1  0  2.286144  0  1.633873  0  0  2.225868  0  1.958086  0  0  2.273266  0  1.915581  0  2.192523  0  1.514018  2.107374  0  2.144767  0
Er  Er1  1  0.76500934  0.45905335  0.50920135  1  0  2.286146  0  1.633833  0  0  2.225879  0  1.958053  0  0  2.273281  0  1.915539  0  2.1925  0  1.514046  2.107413  0  2.144693  0
H  H2  1  0.96136668  0.69835489  0.47333997  1  0  0.432665  0  0.864726  0  0  0.403873  0  0.92626  0  0  0.414437  0  0.910662  0  0.635503  0  0.297025  0.395643  0  0.938043  0
H  H3  1  0.03862321  0.30165369  0.52665720  1  0  0.432531  0  0.86485  0  0  0.403747  0  0.926385  0  0  0.414292  0  0.910814  0  0.635601  0  0.296912  0.395507  0  0.938187  0
H  H4  1  0.05319421  0.76347804  0.51019481  1  0  0.39986  0  0.920285  0  0  0.361729  0  0.996591  0  0  0.372642  0  0.981368  0  0.630753  0  0.283987  0.35362  0  1.007717  0
H  H5  1  0.94679306  0.23652536  0.48980693  1  0  0.39982  0  0.92036  0  0  0.361744  0  0.996581  0  0  0.372651  0  0.98137  0  0.630871  0  0.283958  0.35363  0  1.007716  0
H  H6  1  0.43540424  0.59734340  0.60094236  1  0  0.446895  0  0.83911  0  0  0.419511  0  0.89656  0  0  0.429916  0  0.881157  0  0.634699  0  0.306763  0.411194  0  0.908572  0
H  H7  1  0.56459380  0.40265568  0.39905419  1  0  0.446848  0  0.839184  0  0  0.419496  0  0.896574  0  0  0.429898  0  0.881174  0  0.634581  0  0.306778  0.411172  0  0.908597  0
H  H8  1  0.32164797  0.71294167  0.55190968  1  0  0.426589  0  0.87168  0  0  0.393664  0  0.939156  0  0  0.404722  0  0.922816  0  0.629112  0  0.299782  0.385438  0  0.951106  0
H  H9  1  0.67834981  0.28705829  0.44809139  1  0  0.426645  0  0.871578  0  0  0.393729  0  0.939038  0  0  0.404781  0  0.922703  0  0.629098  0  0.299832  0.385502  0  0.950985  0
H  H10  1  0.26908868  0.12376541  0.54586580  1  0  0.129685  0  0.929713  0  0  0.13621  0  0.995269  0  0  0.140526  0  0.991278  0  0.146158  0  0.118276  0.133032  0  0.998361  0
H  H11  1  0.73090726  0.87624058  0.45413403  1  0  0.129636  0  0.92968  0  0  0.136149  0  0.995263  0  0  0.140463  0  0.991266  0  0.146148  0  0.118268  0.132968  0  0.998358  0
H  H12  1  0.39897692  0.98529063  0.31852161  1  0  0.10597  0  0.976531  0  0  0.109919  0  1.049152  0  0  0.112307  0  1.048591  0  0.148629  0  0.106292  0.108278  0  1.049314  0
H  H13  1  0.60103136  0.01470242  0.68148678  1  0  0.106032  0  0.976458  0  0  0.109916  0  1.049182  0  0  0.112301  0  1.048623  0  0.150762  0  0.106303  0.108283  0  1.049318  0
H  H14  1  0.42971028  0.17848028  0.20231502  1  0  0.105675  0  0.964055  0  0  0.114922  0  1.022777  0  0  0.118031  0  1.021831  0  0.081735  0  0.102968  0.112586  0  1.023806  0
H  H15  1  0.57030772  0.82151190  0.79769120  1  0  0.10565  0  0.964127  0  0  0.114923  0  1.022804  0  0  0.118026  0  1.021867  0  0.081644  0  0.10296  0.112588  0  1.023834  0
H  H16  1  0.39443826  0.34009727  0.26343667  1  0  0.104157  0  0.944442  0  0  0.113674  0  1.006888  0  0  0.117671  0  1.003015  0  0.103663  0  0.105984  0.110091  0  1.011012  0
H  H17  1  0.60557160  0.65990095  0.73656378  1  0  0.104142  0  0.944373  0  0  0.113644  0  1.006839  0  0  0.117644  0  1.00296  0  0.103686  0  0.105973  0.110059  0  1.010965  0
H  H18  1  0.74398350  0.56891804  0.23168738  1  0  0.13786  0  0.935437  0  0  0.143035  0  0.998672  0  0  0.147788  0  0.994219  0  0.168825  0  0.124945  0.139304  0  1.002455  0
H  H19  1  0.25601559  0.43108795  0.76831506  1  0  0.137844  0  0.935491  0  0  0.143094  0  0.998617  0  0  0.147844  0  0.994168  0  0.168759  0  0.124954  0.139366  0  1.002401  0
H  H20  1  0.80113140  0.80978155  0.94093910  1  0  0.107267  0  0.955391  0  0  0.110857  0  1.027978  0  0  0.114636  0  1.02478  0  0.124847  0  0.109324  0.108212  0  1.030106  0
H  H21  1  0.19886743  0.19022185  0.05906078  1  0  0.107287  0  0.955397  0  0  0.110853  0  1.027997  0  0  0.11464  0  1.024796  0  0.124915  0  0.109298  0.108209  0  1.030124  0
H  H22  1  0.02751555  0.83144382  0.00182722  1  0  0.109239  0  0.936074  0  0  0.118715  0  0.992945  0  0  0.122369  0  0.991303  0  0.104525  0  0.106717  0.116081  0  0.994371  0
H  H23  1  0.97247802  0.16856649  0.99817265  1  0  0.10922  0  0.936222  0  0  0.118689  0  0.993078  0  0  0.122351  0  0.991438  0  0.10223  0  0.106704  0.116059  0  0.994505  0
H  H24  1  0.11016003  0.71945622  0.17977424  1  0  0.110385  0  0.932466  0  0  0.119003  0  0.99497  0  0  0.122885  0  0.991258  0  0.100614  0  0.115061  0.115889  0  0.998351  0
H  H25  1  0.88983197  0.28055236  0.82022764  1  0  0.110383  0  0.932522  0  0  0.119058  0  0.994954  0  0  0.122904  0  0.991281  0  0.101079  0  0.115072  0.115937  0  0.998342  0
H  H26  1  0.71352892  0.76060522  0.32667950  1  0  0.137262  0  0.952214  0  0  0.139288  0  1.023045  0  0  0.143919  0  1.01916  0  0.155861  0  0.121055  0.135652  0  1.026429  0
H  H27  1  0.28646124  0.23939215  0.67332618  1  0  0.137299  0  0.952281  0  0  0.139312  0  1.023107  0  0  0.143943  0  1.01922  0  0.155744  0  0.121081  0.135686  0  1.026477  0
H  H28  1  0.54630256  0.05907460  0.06508865  1  0  0.113597  0  0.977374  0  0  0.11594  0  1.049375  0  0  0.120018  0  1.046041  0  0.15758  0  0.107665  0.113005  0  1.051748  0
H  H29  1  0.45370152  0.94092535  0.93491147  1  0  0.113583  0  0.97733  0  0  0.115897  0  1.049356  0  0  0.119979  0  1.046037  0  0.157609  0  0.107643  0.112967  0  1.051732  0
H  H30  1  0.31593144  0.99596384  0.07359770  1  0  0.098496  0  0.949641  0  0  0.108563  0  1.007717  0  0  0.111445  0  1.007391  0  0.099229  0  0.104904  0.10636  0  1.008465  0
H  H31  1  0.68407395  0.00404215  0.92639693  1  0  0.098476  0  0.949658  0  0  0.108524  0  1.007753  0  0  0.1114  0  1.00743  0  0.099117  0  0.104889  0.106317  0  1.008503  0
H  H32  1  0.28536967  0.81649977  0.21277433  1  0  0.116811  0  0.924145  0  0  0.128793  0  0.978324  0  0  0.13249  0  0.975257  0  0.127063  0  0.117621  0.125586  0  0.981756  0
H  H33  1  0.71462600  0.18351054  0.78720833  1  0  0.116729  0  0.92426  0  0  0.128745  0  0.978391  0  0  0.132448  0  0.975329  0  0.126813  0  0.1176  0.12558  0  0.981772  0
H  H34  1  0.08653928  0.62471077  0.68255647  1  0  0.34324  0  0.89036  0  0  0.326902  0  0.952182  0  0  0.333758  0  0.947043  0  0.475874  0  0.307697  0.321894  0  0.955963  0
H  H35  1  0.91346638  0.37528401  0.31744393  1  0  0.343251  0  0.890426  0  0  0.326914  0  0.952242  0  0  0.33377  0  0.947101  0  0.475926  0  0.307707  0.321907  0  0.95602  0
H  H36  1  0.07430811  0.64109770  0.79792642  1  0  0.312923  0  0.95866  0  0  0.287672  0  1.036086  0  0  0.296146  0  1.029619  0  0.533233  0  0.282673  0.281777  0  1.040528  0
H  H37  1  0.92570516  0.35889276  0.20207440  1  0  0.312961  0  0.958612  0  0  0.287721  0  1.036015  0  0  0.296194  0  1.029553  0  0.53323  0  0.282698  0.28183  0  1.040456  0
H  H38  1  0.95442790  0.08753535  0.62824365  1  0  0.162539  0  0.957702  0  0  0.17191  0  1.015925  0  0  0.175784  0  1.013658  0  0.190433  0  0.118119  0.169131  0  1.017538  0
H  H39  1  0.04556883  0.91246115  0.37176271  1  0  0.162502  0  0.957755  0  0  0.171876  0  1.015981  0  0  0.175748  0  1.013704  0  0.190438  0  0.118131  0.169096  0  1.017593  0
H  H40  1  0.39578676  0.70446385  0.92879237  1  0  0.325859  0  0.923641  0  0  0.302772  0  0.999768  0  0  0.310781  0  0.992117  0  0.503536  0  0.292901  0.296501  0  1.006215  0
H  H41  1  0.60421206  0.29553265  0.07120911  1  0  0.325832  0  0.923633  0  0  0.302769  0  0.999719  0  0  0.31078  0  0.992062  0  0.5035  0  0.292929  0.296499  0  1.006163  0
H  H42  1  0.25829153  0.75419421  0.83968331  1  0  0.32532  0  0.892784  0  0  0.31064  0  0.955286  0  0  0.316627  0  0.95142  0  0.465028  0  0.303249  0.306242  0  0.958569  0
H  H43  1  0.74171097  0.24580056  0.16031516  1  0  0.325293  0  0.892905  0  0  0.310638  0  0.955376  0  0  0.31662  0  0.951515  0  0.464984  0  0.30324  0.306239  0  0.95866  0
H  H44  1  0.13743805  0.39367044  0.16012962  1  0  0.138662  0  0.98678  0  0  0.145075  0  1.054703  0  0  0.148195  0  1.054385  0  0.167525  0  0.104647  0.142469  0  1.055147  0
H  H45  1  0.86257076  0.60632433  0.83986448  1  0  0.138587  0  0.986767  0  0  0.144935  0  1.054783  0  0  0.148055  0  1.054455  0  0.167565  0  0.104587  0.142327  0  1.055225  0
C  C46  1  0.32517268  0.24371563  0.40655125  1  0  -0.042143  0  3.70945  0  0  -0.017495  0  3.946461  0  0  -0.026181  0  3.967492  0  -0.01145  0  -0.011118  -0.012943  0  3.933665  0
C  C47  1  0.67483140  0.75628433  0.59344818  1  0  -0.04234  0  3.70958  0  0  -0.017698  0  3.946555  0  0  -0.02643  0  3.967635  0  -0.011666  0  -0.011175  -0.013163  0  3.933785  0
C  C48  1  0.30595732  0.13671082  0.47107300  1  0  -0.082205  0  3.650745  0  0  -0.124158  0  3.912377  0  0  -0.120095  0  3.928317  0  0.050808  0  -0.069651  -0.126984  0  3.902782  0
C  C49  1  0.69404991  0.86328913  0.52892836  1  0  -0.081962  0  3.650581  0  0  -0.123862  0  3.912214  0  0  -0.119782  0  3.928158  0  0.050793  0  -0.06958  -0.126685  0  3.902624  0
C  C50  1  0.33812994  0.04514886  0.43798883  1  0  0.060806  0  3.730072  0  0  0.047352  0  3.986363  0  0  0.042129  0  4.009714  0  0.19741  0  0.073253  0.050341  0  3.97206  0
C  C51  1  0.66188438  0.95484851  0.56201583  1  0  0.060725  0  3.730308  0  0  0.047141  0  3.986717  0  0  0.041923  0  4.010065  0  0.197763  0  0.073271  0.050147  0  3.972408  0
C  C52  1  0.37922104  0.05875875  0.34132875  1  0  -0.081637  0  3.719886  0  0  -0.113998  0  3.984983  0  0  -0.111112  0  4.003509  0  -0.051826  0  -0.075887  -0.115597  0  3.97254  0
C  C53  1  0.62078934  0.94123775  0.65867636  1  0  -0.081648  0  3.719941  0  0  -0.113888  0  3.984992  0  0  -0.111009  0  4.003508  0  -0.054341  0  -0.075934  -0.11551  0  3.972564  0
C  C54  1  0.39686922  0.16616312  0.27771516  1  0  -0.061457  0  3.72999  0  0  -0.073592  0  3.986565  0  0  -0.078732  0  4.006618  0  -0.008199  0  -0.086002  -0.070547  0  3.973448  0
C  C55  1  0.60314300  0.83383425  0.72228890  1  0  -0.061491  0  3.729972  0  0  -0.073681  0  3.986524  0  0  -0.078815  0  4.00657  0  -0.007958  0  -0.085935  -0.070631  0  3.973408  0
C  C56  1  0.37430475  0.25718658  0.31098025  1  0  -0.020922  0  3.646555  0  0  -0.054211  0  3.900351  0  0  -0.049552  0  3.915148  0  -0.038943  0  -0.06594  -0.056895  0  3.891421  0
C  C57  1  0.62570511  0.74281164  0.68902088  1  0  -0.020829  0  3.646406  0  0  -0.054077  0  3.900184  0  0  -0.049401  0  3.914974  0  -0.038707  0  -0.065919  -0.056757  0  3.891252  0
C  C58  1  0.29564584  0.34412130  0.43877966  1  0  0.656253  0  3.904308  0  0  0.606211  0  4.200473  0  0  0.640169  0  4.193241  0  1.558264  0  0.20371  0.584184  0  4.197025  0
C  C59  1  0.70434616  0.65588383  0.56121445  1  0  0.656346  0  3.904089  0  0  0.60637  0  4.200146  0  0  0.640333  0  4.192899  0  1.558344  0  0.203684  0.584331  0  4.196707  0
C  C60  1  0.93383614  0.63695199  0.21567811  1  0  -0.063264  0  3.708876  0  0  -0.036017  0  3.938859  0  0  -0.046538  0  3.962058  0  0.037265  0  -0.008053  -0.030281  0  3.925194  0
C  C61  1  0.06615980  0.36305055  0.78431875  1  0  -0.063239  0  3.709095  0  0  -0.03595  0  3.938949  0  0  -0.046566  0  3.962252  0  0.037277  0  -0.008084  -0.03021  0  3.925289  0
C  C62  1  0.80736370  0.62508875  0.18183161  1  0  -0.083577  0  3.669508  0  0  -0.12059  0  3.922497  0  0  -0.117127  0  3.940108  0  0.008394  0  -0.065276  -0.122089  0  3.911202  0
C  C63  1  0.19263198  0.37491811  0.81816384  1  0  -0.083558  0  3.669566  0  0  -0.120669  0  3.922535  0  0  -0.117166  0  3.94015  0  0.008471  0  -0.06526  -0.122165  0  3.911237  0
C  C64  1  0.76161762  0.68918497  0.08363867  1  0  0.058946  0  3.720185  0  0  0.052616  0  3.979799  0  0  0.046576  0  4.004221  0  0.16909  0  0.075299  0.056021  0  3.963278  0
C  C65  1  0.23838120  0.31082189  0.91635664  1  0  0.05902  0  3.720039  0  0  0.052691  0  3.979685  0  0  0.046668  0  4.004085  0  0.169251  0  0.075357  0.056112  0  3.963146  0
C  C66  1  0.83862433  0.76378440  0.01777619  1  0  -0.077891  0  3.704784  0  0  -0.108474  0  3.970775  0  0  -0.105241  0  3.988311  0  0.015926  0  -0.073836  -0.110084  0  3.958237  0
C  C67  1  0.16137450  0.23621901  0.98222232  1  0  -0.077966  0  3.704602  0  0  -0.108574  0  3.970656  0  0  -0.105332  0  3.988193  0  0.015721  0  -0.073878  -0.110165  0  3.958092  0
C  C68  1  0.96500238  0.77469492  0.05234535  1  0  -0.063318  0  3.721569  0  0  -0.076782  0  3.982261  0  0  -0.082742  0  4.00366  0  -0.058995  0  -0.082867  -0.072734  0  3.967061  0
C  C69  1  0.03499723  0.22530244  0.94765718  1  0  -0.063266  0  3.721639  0  0  -0.076724  0  3.982368  0  0  -0.082686  0  4.003713  0  -0.05672  0  -0.082816  -0.072693  0  3.967179  0
C  C70  1  0.01220926  0.71187417  0.15089871  1  0  -0.016667  0  3.668633  0  0  -0.054215  0  3.928897  0  0  -0.049826  0  3.946396  0  -0.018108  0  -0.061027  -0.056418  0  3.917206  0
C  C71  1  0.98779298  0.28812837  0.84910268  1  0  -0.016608  0  3.668725  0  0  -0.054218  0  3.928954  0  0  -0.04976  0  3.946485  0  -0.018481  0  -0.060987  -0.056423  0  3.917262  0
C  C72  1  0.98093673  0.57208859  0.32265328  1  0  0.730356  0  3.847522  0  0  0.683823  0  4.139694  0  0  0.719817  0  4.127229  0  1.589595  0  0.239492  0.658275  0  4.143021  0
C  C73  1  0.01905474  0.42791826  0.67734851  1  0  0.730159  0  3.847838  0  0  0.683725  0  4.139838  0  0  0.719745  0  4.127362  0  1.589609  0  0.239449  0.65817  0  4.143173  0
C  C74  1  0.49779427  0.77761953  0.27612716  1  0  -0.0513  0  3.707709  0  0  -0.026673  0  3.940175  0  0  -0.03578  0  3.961879  0  0.067364  0  -0.005523  -0.021673  0  3.927894  0
C  C75  1  0.50220010  0.22238474  0.72386371  1  0  -0.051403  0  3.707732  0  0  -0.026904  0  3.940274  0  0  -0.035995  0  3.961949  0  0.0675  0  -0.005647  -0.021919  0  3.928011  0
C  C76  1  0.62686732  0.81183628  0.27132796  1  0  -0.094378  0  3.677842  0  0  -0.131672  0  3.933439  0  0  -0.129217  0  3.951641  0  -0.018389  0  -0.066895  -0.133006  0  3.921971  0
C  C77  1  0.37312757  0.18816626  0.72866963  1  0  -0.094458  0  3.677829  0  0  -0.131688  0  3.933423  0  0  -0.129223  0  3.951607  0  -0.018457  0  -0.066932  -0.133017  0  3.921958  0
C  C78  1  0.64043734  0.91338281  0.19486681  1  0  0.053703  0  3.712014  0  0  0.051267  0  3.964362  0  0  0.046393  0  3.988774  0  0.199026  0  0.070298  0.054465  0  3.947596  0
C  C79  1  0.35956411  0.08661542  0.80513331  1  0  0.053723  0  3.711882  0  0  0.051254  0  3.964235  0  0  0.046379  0  3.988646  0  0.199095  0  0.070298  0.054448  0  3.947472  0
C  C80  1  0.53088714  0.98044160  0.12313334  1  0  -0.08812  0  3.716277  0  0  -0.116185  0  3.973763  0  0  -0.114596  0  3.99247  0  -0.09015  0  -0.077944  -0.116856  0  3.960827  0
C  C81  1  0.46911931  0.01955749  0.87686354  1  0  -0.088182  0  3.716274  0  0  -0.116206  0  3.973751  0  0  -0.114633  0  3.992467  0  -0.090244  0  -0.077932  -0.11689  0  3.960829  0
C  C82  1  0.40261871  0.94512801  0.12908169  1  0  -0.070152  0  3.74572  0  0  -0.079757  0  4.000145  0  0  -0.085188  0  4.021729  0  -0.01691  0  -0.085636  -0.076333  0  3.985702  0
C  C83  1  0.59738563  0.05487453  0.87091482  1  0  -0.069989  0  3.745686  0  0  -0.079562  0  4.00006  0  0  -0.085006  0  4.021659  0  -0.01665  0  -0.085541  -0.076157  0  3.985637  0
C  C84  1  0.38554789  0.84474219  0.20564711  1  0  -0.025364  0  3.661377  0  0  -0.05712  0  3.908578  0  0  -0.053666  0  3.925772  0  -0.098188  0  -0.062445  -0.059258  0  3.898036  0
C  C85  1  0.61444884  0.15526122  0.79434532  1  0  -0.025227  0  3.661254  0  0  -0.056985  0  3.908469  0  0  -0.053537  0  3.925661  0  -0.098052  0  -0.062382  -0.059142  0  3.897904  0
C  C86  1  0.47705744  0.66941519  0.35739821  1  0  0.73506  0  3.859526  0  0  0.688539  0  4.151251  0  0  0.724558  0  4.138737  0  1.617503  0  0.239921  0.662793  0  4.1547  0
C  C87  1  0.52294008  0.33058907  0.64259665  1  0  0.734795  0  3.860048  0  0  0.688426  0  4.151526  0  0  0.724473  0  4.138984  0  1.616813  0  0.2399  0.662702  0  4.154947  0
C  C88  1  0.00028761  0.96296646  0.55189807  1  0  0.16175  0  3.87524  0  0  0.148483  0  4.146008  0  0  0.153483  0  4.169629  0  0.431041  0  0.071535  0.145431  0  4.129855  0
C  C89  1  0.99971621  0.03703090  0.44810292  1  0  0.161717  0  3.875501  0  0  0.148378  0  4.146357  0  0  0.153361  0  4.169982  0  0.467569  0  0.071391  0.145317  0  4.130205  0
C  C90  1  0.97696416  0.00010960  0.62971705  1  0  -0.24609  0  3.639647  0  0  -0.278448  0  3.933721  0  0  -0.284564  0  3.952386  0  -0.236126  0  -0.112373  -0.273195  0  3.919691  0
C  C91  1  0.02304176  0.99988776  0.37028591  1  0  -0.246111  0  3.640113  0  0  -0.278412  0  3.934119  0  0  -0.284557  0  3.95289  0  -0.236011  0  -0.112378  -0.273149  0  3.92009  0
C  C92  1  0.02773810  0.79011447  0.67531651  1  0  0.424503  0  3.836277  0  0  0.391071  0  4.129273  0  0  0.413112  0  4.140557  0  1.045596  0  0.23804  0.3764  0  4.120924  0
C  C93  1  0.97226467  0.20987944  0.32468567  1  0  0.424246  0  3.836452  0  0  0.390803  0  4.1295  0  0  0.412849  0  4.140771  0  1.045648  0  0.237872  0.37613  0  4.121143  0
C  C94  1  0.06716074  0.51368797  0.00701173  1  0  0.168506  0  3.880779  0  0  0.163641  0  4.137541  0  0  0.168777  0  4.160784  0  0.397993  0  0.072659  0.158639  0  4.122953  0
C  C95  1  0.93284098  0.48630594  0.99298980  1  0  0.168266  0  3.881047  0  0  0.163432  0  4.137741  0  0  0.168571  0  4.160983  0  0.443699  0  0.072593  0.158435  0  4.123147  0
C  C96  1  0.15358039  0.46136784  0.09162419  1  0  -0.278652  0  3.686874  0  0  -0.304369  0  3.973878  0  0  -0.31034  0  3.994096  0  -0.256247  0  -0.123062  -0.298185  0  3.958744  0
C  C97  1  0.84642448  0.53862607  0.90837653  1  0  -0.278592  0  3.687027  0  0  -0.30427  0  3.974049  0  0  -0.310226  0  3.994252  0  -0.256216  0  -0.123069  -0.298073  0  3.958897  0
C  C98  1  0.23884400  0.61248335  0.95823110  1  0  0.417704  0  3.848919  0  0  0.385212  0  4.151092  0  0  0.40602  0  4.163163  0  1.032897  0  0.231556  0.369792  0  4.142804  0
C  C99  1  0.76116402  0.38750711  0.04176309  1  0  0.417568  0  3.849197  0  0  0.385081  0  4.151348  0  0  0.405876  0  4.163435  0  1.030775  0  0.231519  0.369653  0  4.143064  0
S  S100  1  0.99105039  0.88439047  0.74034450  1  0  0.059641  0  2.477001  0  0  0.070654  0  2.801961  0  0  0.066805  0  2.80411  0  0.166234  0  0.076226  0.073552  0  2.800662  0
S  S101  1  0.00895580  0.11560258  0.25965850  1  0  0.059708  0  2.477071  0  0  0.070726  0  2.802007  0  0  0.066886  0  2.804167  0  0.166053  0  0.07627  0.073629  0  2.800708  0
S  S102  1  0.30011661  0.52060899  0.07938222  1  0  0.089706  0  2.521129  0  0  0.093576  0  2.853505  0  0  0.089773  0  2.856113  0  0.22476  0  0.082229  0.097157  0  2.845679  0
S  S103  1  0.69988826  0.47938492  0.92061507  1  0  0.089818  0  2.521289  0  0  0.093673  0  2.853631  0  0  0.089871  0  2.856237  0  0.224932  0  0.082307  0.097258  0  2.8458  0
N  N104  1  0.33219230  0.93037468  0.50770440  1  0  0.469644  0  3.943291  0  0  0.523249  0  4.197405  0  0  0.545075  0  4.20574  0  0.340547  0  0.053181  0.508341  0  4.193005  0
N  N105  1  0.66781467  0.06962268  0.49229988  1  0  0.469574  0  3.943362  0  0  0.523164  0  4.197546  0  0  0.544989  0  4.205886  0  0.339895  0  0.052998  0.508258  0  4.193146  0
N  N106  1  0.62747291  0.67769194  0.05018291  1  0  0.502686  0  3.902098  0  0  0.529847  0  4.199907  0  0  0.551652  0  4.208505  0  0.338219  0  0.055969  0.515628  0  4.193692  0
N  N107  1  0.37252040  0.32231578  0.94981783  1  0  0.502548  0  3.902221  0  0  0.529649  0  4.200101  0  0  0.551474  0  4.20868  0  0.338121  0  0.055832  0.515457  0  4.193866  0
N  N108  1  0.77622173  0.95014359  0.18818418  1  0  0.494962  0  3.910774  0  0  0.52527  0  4.205743  0  0  0.545825  0  4.215204  0  0.359432  0  0.055259  0.511379  0  4.19946  0
N  N109  1  0.22378183  0.04984773  0.81182361  1  0  0.495117  0  3.910242  0  0  0.525389  0  4.205243  0  0  0.545972  0  4.214689  0  0.359434  0  0.055281  0.511528  0  4.19895  0
N  N110  1  0.02928661  0.84417090  0.57853134  1  0  -0.476172  0  3.112421  0  0  -0.414552  0  3.360586  0  0  -0.435947  0  3.375826  0  -1.237275  0  -0.34023  -0.400129  0  3.350916  0
N  N111  1  0.97071327  0.15582560  0.42147010  1  0  -0.47592  0  3.112574  0  0  -0.414296  0  3.36073  0  0  -0.435702  0  3.375977  0  -1.237252  0  -0.340075  -0.399872  0  3.351049  0
N  N112  1  0.04794907  0.67532222  0.72273542  1  0  -0.659784  0  3.121193  0  0  -0.619539  0  3.36092  0  0  -0.642232  0  3.359601  0  -1.298146  0  -0.577618  -0.603465  0  3.361775  0
N  N113  1  0.95206289  0.32467255  0.27726608  1  0  -0.659792  0  3.121158  0  0  -0.619567  0  3.360916  0  0  -0.642255  0  3.359595  0  -1.298128  0  -0.577601  -0.603493  0  3.361759  0
N  N114  1  0.11741548  0.59853517  0.93115774  1  0  -0.480135  0  3.06111  0  0  -0.427796  0  3.316724  0  0  -0.447602  0  3.331871  0  -1.233162  0  -0.343011  -0.415422  0  3.308559  0
N  N115  1  0.88258861  0.40145788  0.06883850  1  0  -0.480041  0  3.061276  0  0  -0.427667  0  3.316823  0  0  -0.447477  0  3.331976  0  -1.231759  0  -0.342983  -0.415302  0  3.308668  0
N  N116  1  0.31319685  0.68846698  0.89926791  1  0  -0.65929  0  3.130158  0  0  -0.626358  0  3.367059  0  0  -0.646872  0  3.365106  0  -1.265155  0  -0.579933  -0.611706  0  3.369429  0
N  N117  1  0.68680880  0.31152780  0.10072906  1  0  -0.659226  0  3.130417  0  0  -0.626314  0  3.367206  0  0  -0.646822  0  3.365259  0  -1.264671  0  -0.579955  -0.611659  0  3.369578  0
O  O118  1  0.05919146  0.71315827  0.46985282  1  0  -0.906757  0  1.89514  0  0  -0.866464  0  2.090931  0  0  -0.886161  0  2.059253  0  -1.277037  0  -0.652859  -0.84115  0  2.119971  0
O  O119  1  0.94079844  0.28684686  0.53014687  1  0  -0.906613  0  1.895342  0  0  -0.866388  0  2.09107  0  0  -0.886065  0  2.059436  0  -1.277302  0  -0.652703  -0.84106  0  2.120122  0
O  O120  1  0.33074750  0.62883317  0.58348496  1  0  -0.899903  0  1.860558  0  0  -0.862953  0  2.041819  0  0  -0.880646  0  2.009385  0  -1.244104  0  -0.634498  -0.839807  0  2.07182  0
O  O121  1  0.66924082  0.37116333  0.41651697  1  0  -0.899855  0  1.860475  0  0  -0.862948  0  2.041751  0  0  -0.88062  0  2.009305  0  -1.244051  0  -0.634533  -0.839812  0  2.071788  0
O  O122  1  0.36544014  0.42208631  0.40064837  1  0  -0.692534  0  2.014953  0  0  -0.647589  0  2.245037  0  0  -0.672741  0  2.235671  0  -1.177335  0  -0.351857  -0.621141  0  2.251512  0
O  O123  1  0.63454109  0.57792658  0.59934705  1  0  -0.692534  0  2.014863  0  0  -0.647608  0  2.244944  0  0  -0.672763  0  2.235558  0  -1.17736  0  -0.351789  -0.621158  0  2.2514  0
O  O124  1  0.20017850  0.35164640  0.50321321  1  0  -0.700528  0  2.035275  0  0  -0.653427  0  2.273478  0  0  -0.678882  0  2.263706  0  -1.178125  0  -0.34349  -0.626404  0  2.278738  0
O  O125  1  0.79980063  0.64835959  0.49677568  1  0  -0.700603  0  2.035116  0  0  -0.653543  0  2.27336  0  0  -0.678991  0  2.263561  0  -1.178216  0  -0.343567  -0.626515  0  2.278616  0
O  O126  1  0.31277597  0.91574217  0.59588930  1  0  -0.335066  0  1.805723  0  0  -0.325657  0  2.004669  0  0  -0.335825  0  2.003794  0  -0.452666  0  -0.113534  -0.319828  0  2.006913  0
O  O127  1  0.68722679  0.08425520  0.40411378  1  0  -0.335061  0  1.805682  0  0  -0.325615  0  2.00462  0  0  -0.33578  0  2.003749  0  -0.452535  0  -0.113466  -0.319787  0  2.006862  0
O  O128  1  0.35015942  0.85143711  0.47449692  1  0  -0.378494  0  1.829198  0  0  -0.351836  0  2.023679  0  0  -0.367162  0  2.021984  0  -0.513119  0  -0.121917  -0.342359  0  2.025787  0
O  O129  1  0.64984124  0.14856371  0.52550374  1  0  -0.378492  0  1.829262  0  0  -0.3518  0  2.023731  0  0  -0.367117  0  2.022026  0  -0.51274  0  -0.121838  -0.34232  0  2.025836  0
O  O130  1  0.09186475  0.58778515  0.35270929  1  0  -0.69352  0  2.050727  0  0  -0.657182  0  2.303011  0  0  -0.681754  0  2.291204  0  -1.176958  0  -0.375044  -0.628031  0  2.314283  0
O  O131  1  0.90812593  0.41221739  0.64729533  1  0  -0.69348  0  2.050661  0  0  -0.657241  0  2.302943  0  0  -0.68178  0  2.291101  0  -1.177071  0  -0.375063  -0.62806  0  2.314202  0
O  O132  1  0.90394128  0.50526280  0.37614168  1  0  -0.779602  0  2.119192  0  0  -0.742477  0  2.388536  0  0  -0.766868  0  2.373411  0  -1.212954  0  -0.412685  -0.710753  0  2.400436  0
O  O133  1  0.09603732  0.49474492  0.62385077  1  0  -0.779517  0  2.119257  0  0  -0.742403  0  2.388546  0  0  -0.766835  0  2.373468  0  -1.212984  0  -0.412649  -0.710715  0  2.40047  0
O  O134  1  0.57077762  0.60083757  0.10529297  1  0  -0.343771  0  1.769612  0  0  -0.32779  0  1.97938  0  0  -0.337227  0  1.975834  0  -0.450013  0  -0.115972  -0.320129  0  1.979013  0
O  O135  1  0.42922016  0.39916929  0.89470856  1  0  -0.343697  0  1.769546  0  0  -0.327671  0  1.979289  0  0  -0.337121  0  1.975735  0  -0.450036  0  -0.115868  -0.320028  0  1.978915  0
O  O136  1  0.57425275  0.74719984  0.96697958  1  0  -0.41125  0  1.812408  0  0  -0.378865  0  2.02607  0  0  -0.393884  0  2.022559  0  -0.514797  0  -0.135564  -0.36807  0  2.028882  0
O  O137  1  0.42573583  0.25280960  0.03302285  1  0  -0.411256  0  1.812586  0  0  -0.378813  0  2.026241  0  0  -0.393867  0  2.022739  0  -0.51469  0  -0.135549  -0.368047  0  2.029043  0
O  O138  1  0.34743898  0.66193238  0.37418881  1  0  -0.717179  0  2.049498  0  0  -0.682502  0  2.302274  0  0  -0.706985  0  2.288457  0  -1.179325  0  -0.397913  -0.652808  0  2.31577  0
O  O139  1  0.65256878  0.33805894  0.62582635  1  0  -0.716965  0  2.049638  0  0  -0.682329  0  2.302316  0  0  -0.706843  0  2.288511  0  -1.178957  0  -0.397794  -0.652657  0  2.315798  0
O  O140  1  0.58803413  0.59395970  0.40285480  1  0  -0.754398  0  2.103939  0  0  -0.718307  0  2.371581  0  0  -0.743615  0  2.358656  0  -1.21555  0  -0.400256  -0.68624  0  2.381621  0
O  O141  1  0.41196548  0.40605147  0.59714658  1  0  -0.754365  0  2.104152  0  0  -0.718331  0  2.371706  0  0  -0.74367  0  2.358851  0  -1.215175  0  -0.400276  -0.686262  0  2.381741  0
O  O142  1  0.79064446  0.03603158  0.11503913  1  0  -0.385761  0  1.729096  0  0  -0.373111  0  1.932896  0  0  -0.385051  0  1.929238  0  -0.48809  0  -0.147175  -0.365325  0  1.936163  0
O  O143  1  0.20936408  0.96396060  0.88496680  1  0  -0.385805  0  1.728977  0  0  -0.37313  0  1.932795  0  0  -0.385085  0  1.929135  0  -0.488251  0  -0.147198  -0.365359  0  1.936054  0
O  O144  1  0.86963134  0.89292179  0.25512154  1  0  -0.339918  0  1.761831  0  0  -0.319107  0  1.966372  0  0  -0.330461  0  1.963071  0  -0.44799  0  -0.113198  -0.311831  0  1.969749  0
O  O145  1  0.13035725  0.10706694  0.74489391  1  0  -0.340069  0  1.761502  0  0  -0.319203  0  1.966022  0  0  -0.330576  0  1.962713  0  -0.447867  0  -0.113239  -0.311941  0  1.96939  0
