# generated using pymatgen
data_AgH9C6IN2
_symmetry_space_group_name_H-M   'P 1'
_cell_length_a   4.64111898
_cell_length_b   9.77640535
_cell_length_c   18.23396525
_cell_angle_alpha   96.41818404
_cell_angle_beta   89.99999290
_cell_angle_gamma   89.99992631
_symmetry_Int_Tables_number   1
_chemical_formula_structural   AgH9C6IN2
_chemical_formula_sum   'Ag4 H36 C24 I4 N8'
_cell_volume   822.15275285
_cell_formula_units_Z   4
loop_
 _symmetry_equiv_pos_site_id
 _symmetry_equiv_pos_as_xyz
  1  'x, y, z'
loop_
 _atom_site_type_symbol
 _atom_site_label
 _atom_site_symmetry_multiplicity
 _atom_site_fract_x
 _atom_site_fract_y
 _atom_site_fract_z
 _atom_site_occupancy
 _atom_site_hle17_bader_spin_density
 _atom_site_hle17_ddec_charge
 _atom_site_hle17_ddec_spin_density
 _atom_site_hle17_ddec_sum_bond_order
 _atom_site_hle17_magmom
 _atom_site_hse06_10hf_bader_spin_density
 _atom_site_hse06_10hf_ddec_charge
 _atom_site_hse06_10hf_ddec_spin_density
 _atom_site_hse06_10hf_ddec_sum_bond_order
 _atom_site_hse06_10hf_magmom
 _atom_site_hse06_bader_spin_density
 _atom_site_hse06_ddec_charge
 _atom_site_hse06_ddec_spin_density
 _atom_site_hse06_ddec_sum_bond_order
 _atom_site_hse06_magmom
 _atom_site_pbe_bader_spin_density
 _atom_site_pbe_cm5_charge
 _atom_site_pbe_ddec_charge
 _atom_site_pbe_ddec_spin_density
 _atom_site_pbe_ddec_sum_bond_order
 _atom_site_pbe_magmom
Ag  Ag0  1  0.43183089  0.19502298  0.19891696  1  0  0.310749  0  1.876043  0  0  0.21088  0  2.378504  0  0  0.237243  0  2.329364  0  0  0.229513  0.190966  0  2.415976  0
Ag  Ag1  1  0.93183082  0.30497707  0.30108341  1  0  0.310772  0  1.87603  0  0  0.210905  0  2.378494  0  0  0.237264  0  2.329353  0  0  0.229524  0.190989  0  2.415963  0
Ag  Ag2  1  0.56816770  0.80497558  0.80108646  1  0  0.310768  0  1.876065  0  0  0.21089  0  2.378544  0  0  0.237248  0  2.329399  0  0  0.229524  0.190969  0  2.416014  0
Ag  Ag3  1  0.06817208  0.69502254  0.69891843  1  0  0.310786  0  1.876003  0  0  0.210941  0  2.378439  0  0  0.237292  0  2.329297  0  0  0.229536  0.191016  0  2.415905  0
H  H4  1  0.87701776  0.94930703  0.24545418  1  0  0.090177  0  0.975692  0  0  0.095364  0  1.050264  0  0  0.098118  0  1.047975  0  0  0.103169  0.093552  0  1.051867  0
H  H5  1  0.37701603  0.55069044  0.25454559  1  0  0.090175  0  0.97569  0  0  0.095364  0  1.05026  0  0  0.09812  0  1.047968  0  0  0.103161  0.093551  0  1.051863  0
H  H6  1  0.12297867  0.05068847  0.75454576  1  0  0.090151  0  0.975685  0  0  0.095328  0  1.05028  0  0  0.098084  0  1.047988  0  0  0.103139  0.093517  0  1.051884  0
H  H7  1  0.62298256  0.44931020  0.74545466  1  0  0.090168  0  0.975753  0  0  0.095355  0  1.050325  0  0  0.098109  0  1.048035  0  0  0.103168  0.093542  0  1.051929  0
H  H8  1  0.81688394  0.66876896  0.19850090  1  0  0.111251  0  0.974467  0  0  0.11874  0  1.041788  0  0  0.121055  0  1.041679  0  0  0.113227  0.116386  0  1.043101  0
H  H9  1  0.31688359  0.83122958  0.30149839  1  0  0.111201  0  0.974499  0  0  0.118718  0  1.041784  0  0  0.121037  0  1.041668  0  0  0.113209  0.116359  0  1.043121  0
H  H10  1  0.18311464  0.33122861  0.80149807  1  0  0.111263  0  0.974462  0  0  0.118754  0  1.041775  0  0  0.121072  0  1.041659  0  0  0.113232  0.116394  0  1.043112  0
H  H11  1  0.68311285  0.16877004  0.69850071  1  0  0.11121  0  0.974526  0  0  0.118733  0  1.041796  0  0  0.121043  0  1.0417  0  0  0.113215  0.11638  0  1.043114  0
H  H12  1  0.29559993  0.89071029  0.00277964  1  0  0.125438  0  0.941167  0  0  0.145532  0  1.002258  0  0  0.147583  0  1.001564  0  0  0.09144  0.143937  0  1.003004  0
H  H13  1  0.79559812  0.60928826  0.49722021  1  0  0.125392  0  0.941192  0  0  0.145484  0  1.002285  0  0  0.147533  0  1.001594  0  0  0.091434  0.143889  0  1.003029  0
H  H14  1  0.70440296  0.10929036  0.99722007  1  0  0.125431  0  0.94118  0  0  0.145534  0  1.002262  0  0  0.147584  0  1.001568  0  0  0.09145  0.143939  0  1.003006  0
H  H15  1  0.20440478  0.39071238  0.50278005  1  0  0.125383  0  0.941201  0  0  0.145479  0  1.00229  0  0  0.147529  0  1.001598  0  0  0.091429  0.143884  0  1.003033  0
H  H16  1  0.14533344  0.01893503  0.06948305  1  0  0.128918  0  0.95948  0  0  0.148582  0  1.023312  0  0  0.150448  0  1.022519  0  0  0.091093  0.14739  0  1.023579  0
H  H17  1  0.64533498  0.48106623  0.43051686  1  0  0.128927  0  0.959513  0  0  0.148559  0  1.023378  0  0  0.150423  0  1.022585  0  0  0.091105  0.147368  0  1.02364  0
H  H18  1  0.85466946  0.98106562  0.93051666  1  0  0.128965  0  0.959475  0  0  0.148595  0  1.023346  0  0  0.150459  0  1.022552  0  0  0.091103  0.147404  0  1.02361  0
H  H19  1  0.35466792  0.51893544  0.56948347  1  0  0.128954  0  0.959477  0  0  0.148584  0  1.023342  0  0  0.150449  0  1.022549  0  0  0.091102  0.147393  0  1.023603  0
H  H20  1  0.00817145  0.84829809  0.05993822  1  0  0.123676  0  0.958199  0  0  0.140628  0  1.02298  0  0  0.142458  0  1.023284  0  0  0.0943  0.139475  0  1.022503  0
H  H21  1  0.50817171  0.65170064  0.44006219  1  0  0.123666  0  0.958246  0  0  0.140588  0  1.02305  0  0  0.142416  0  1.023354  0  0  0.094289  0.139435  0  1.022573  0
H  H22  1  0.99183361  0.15170153  0.94006143  1  0  0.123678  0  0.958182  0  0  0.140615  0  1.022979  0  0  0.142444  0  1.023283  0  0  0.094301  0.139464  0  1.022504  0
H  H23  1  0.49183119  0.34829897  0.55993855  1  0  0.123656  0  0.95825  0  0  0.140584  0  1.023046  0  0  0.142414  0  1.023349  0  0  0.094278  0.139431  0  1.022568  0
H  H24  1  0.78928520  0.55308400  0.03220630  1  0  0.061997  0  0.964257  0  0  0.079668  0  1.030073  0  0  0.080586  0  1.030121  0  0  0.080799  0.078934  0  1.029923  0
H  H25  1  0.28928228  0.94691558  0.46779361  1  0  0.062011  0  0.964266  0  0  0.079693  0  1.03007  0  0  0.080615  0  1.030117  0  0  0.080808  0.07896  0  1.029921  0
H  H26  1  0.21071339  0.44691561  0.96779389  1  0  0.062  0  0.964247  0  0  0.079673  0  1.030073  0  0  0.08059  0  1.03012  0  0  0.080786  0.07894  0  1.029923  0
H  H27  1  0.71070984  0.05308610  0.53220562  1  0  0.061992  0  0.964254  0  0  0.079659  0  1.030077  0  0  0.080577  0  1.030124  0  0  0.080778  0.078926  0  1.029927  0
H  H28  1  0.55628926  0.64557636  0.97857132  1  0  0.068565  0  0.95658  0  0  0.085751  0  1.022002  0  0  0.086439  0  1.022606  0  0  0.078145  0.084637  0  1.022623  0
H  H29  1  0.05628254  0.85442490  0.52142772  1  0  0.068569  0  0.956558  0  0  0.08574  0  1.02201  0  0  0.086428  0  1.022614  0  0  0.07816  0.084627  0  1.022629  0
H  H30  1  0.44371794  0.35442326  0.02142832  1  0  0.068592  0  0.956609  0  0  0.085785  0  1.022032  0  0  0.086471  0  1.022636  0  0  0.078174  0.084669  0  1.022655  0
H  H31  1  0.94371389  0.14557679  0.47857096  1  0  0.068596  0  0.9566  0  0  0.085786  0  1.022018  0  0  0.086471  0  1.022624  0  0  0.078163  0.08467  0  1.022641  0
H  H32  1  0.16903379  0.63583140  0.07467053  1  0  0.064849  0  0.951689  0  0  0.080271  0  1.018856  0  0  0.081008  0  1.018526  0  0  0.103324  0.079783  0  1.01872  0
H  H33  1  0.66903134  0.86416931  0.42532726  1  0  0.064833  0  0.951617  0  0  0.080293  0  1.018767  0  0  0.08103  0  1.018436  0  0  0.103324  0.079805  0  1.018632  0
H  H34  1  0.83096910  0.36416823  0.92532748  1  0  0.064836  0  0.951671  0  0  0.080266  0  1.018821  0  0  0.081004  0  1.018491  0  0  0.103314  0.079779  0  1.018685  0
H  H35  1  0.33096725  0.13583135  0.57467135  1  0  0.064842  0  0.951674  0  0  0.080229  0  1.018854  0  0  0.080964  0  1.01853  0  0  0.103322  0.079744  0  1.018718  0
H  H36  1  0.40167608  0.54172712  0.12675314  1  0  0.065838  0  0.959798  0  0  0.079371  0  1.030754  0  0  0.080025  0  1.030396  0  0  0.094458  0.078146  0  1.032179  0
H  H37  1  0.90167987  0.95827137  0.37324505  1  0  0.065861  0  0.959748  0  0  0.079375  0  1.030754  0  0  0.080029  0  1.030396  0  0  0.094455  0.078152  0  1.032178  0
H  H38  1  0.59832036  0.45827044  0.87324583  1  0  0.065839  0  0.959804  0  0  0.079336  0  1.030792  0  0  0.079989  0  1.030436  0  0  0.094431  0.078112  0  1.032217  0
H  H39  1  0.09831872  0.04172928  0.62675301  1  0  0.065827  0  0.959841  0  0  0.079351  0  1.030788  0  0  0.080004  0  1.030431  0  0  0.094452  0.078126  0  1.032216  0
C  C40  1  0.41528873  0.87776939  0.11567222  1  0  0.353746  0  3.698194  0  0  0.336161  0  3.958686  0  0  0.351023  0  3.975043  0  0  0.210988  0.326663  0  3.946807  0
C  C41  1  0.91528695  0.62223114  0.38432719  1  0  0.353746  0  3.698155  0  0  0.336158  0  3.958617  0  0  0.351022  0  3.974969  0  0  0.211016  0.326659  0  3.946738  0
C  C42  1  0.58471202  0.12223023  0.88432633  1  0  0.353756  0  3.698234  0  0  0.33618  0  3.958698  0  0  0.351044  0  3.975049  0  0  0.211044  0.326683  0  3.946822  0
C  C43  1  0.08471164  0.37777259  0.61567326  1  0  0.353709  0  3.698212  0  0  0.336101  0  3.958726  0  0  0.350965  0  3.97508  0  0  0.210961  0.326605  0  3.946842  0
C  C44  1  0.73794793  0.89688792  0.20359993  1  0  -0.009003  0  3.795933  0  0  -0.041529  0  4.06815  0  0  -0.039635  0  4.088545  0  0  -0.018203  -0.043071  0  4.054306  0
C  C45  1  0.23794388  0.60311169  0.29640054  1  0  -0.00904  0  3.796023  0  0  -0.041572  0  4.06825  0  0  -0.039679  0  4.088645  0  0  -0.018235  -0.043112  0  4.054399  0
C  C46  1  0.26205281  0.10310861  0.79639953  1  0  -0.009032  0  3.796019  0  0  -0.041556  0  4.068233  0  0  -0.039666  0  4.088631  0  0  -0.018231  -0.043094  0  4.054386  0
C  C47  1  0.76205256  0.39688997  0.70360088  1  0  -0.009006  0  3.795953  0  0  -0.041541  0  4.068193  0  0  -0.039646  0  4.088582  0  0  -0.018247  -0.043077  0  4.05434  0
C  C48  1  0.71248444  0.75873459  0.18079681  1  0  -0.076167  0  3.697309  0  0  -0.114548  0  3.957226  0  0  -0.113009  0  3.976483  0  0  -0.010145  -0.115428  0  3.94496  0
C  C49  1  0.21248431  0.74126196  0.31920182  1  0  -0.076105  0  3.697328  0  0  -0.114518  0  3.957222  0  0  -0.112979  0  3.976483  0  0  -0.010105  -0.115404  0  3.944955  0
C  C50  1  0.28751631  0.24126400  0.81920223  1  0  -0.076171  0  3.697334  0  0  -0.114557  0  3.957244  0  0  -0.113018  0  3.976503  0  0  -0.010126  -0.115444  0  3.944983  0
C  C51  1  0.78751428  0.25873560  0.68079715  1  0  -0.076159  0  3.697362  0  0  -0.114562  0  3.957266  0  0  -0.113024  0  3.976524  0  0  -0.010132  -0.115445  0  3.945009  0
C  C52  1  0.20530701  0.91010783  0.05880868  1  0  -0.383385  0  3.713996  0  0  -0.460692  0  3.946642  0  0  -0.464886  0  3.953523  0  0  -0.237802  -0.457616  0  3.941273  0
C  C53  1  0.70530313  0.58989077  0.44119227  1  0  -0.383319  0  3.714018  0  0  -0.460575  0  3.946676  0  0  -0.464767  0  3.953565  0  0  -0.237804  -0.457497  0  3.941297  0
C  C54  1  0.79469804  0.08989179  0.94119151  1  0  -0.38344  0  3.713902  0  0  -0.460735  0  3.94657  0  0  -0.46493  0  3.95346  0  0  -0.237854  -0.457657  0  3.941195  0
C  C55  1  0.29469546  0.41010780  0.55880896  1  0  -0.383333  0  3.714008  0  0  -0.460582  0  3.946655  0  0  -0.464775  0  3.953537  0  0  -0.237777  -0.457516  0  3.941304  0
C  C56  1  0.56196716  0.56796966  0.01790800  1  0  -0.12782  0  3.689175  0  0  -0.167321  0  3.943858  0  0  -0.169228  0  3.958151  0  0  -0.173083  -0.165803  0  3.93355  0
C  C57  1  0.06196212  0.93203007  0.48209138  1  0  -0.127856  0  3.689253  0  0  -0.167349  0  3.943941  0  0  -0.16926  0  3.958239  0  0  -0.173089  -0.165832  0  3.933633  0
C  C58  1  0.43803789  0.43202996  0.98209165  1  0  -0.127827  0  3.689258  0  0  -0.167371  0  3.943942  0  0  -0.169271  0  3.958229  0  0  -0.173046  -0.165851  0  3.933638  0
C  C59  1  0.93803432  0.06797057  0.51790833  1  0  -0.127834  0  3.689248  0  0  -0.167355  0  3.943889  0  0  -0.169255  0  3.958175  0  0  -0.173049  -0.165835  0  3.933586  0
C  C60  1  0.39645957  0.61935019  0.08766524  1  0  0.010265  0  3.647355  0  0  -0.049433  0  3.900462  0  0  -0.045183  0  3.912296  0  0  -0.059004  -0.051869  0  3.891724  0
C  C61  1  0.89646139  0.88065242  0.41233430  1  0  0.010269  0  3.647169  0  0  -0.049501  0  3.900365  0  0  -0.045248  0  3.912197  0  0  -0.059033  -0.051938  0  3.891634  0
C  C62  1  0.60353902  0.38064841  0.91233269  1  0  0.010239  0  3.647309  0  0  -0.049408  0  3.90036  0  0  -0.04516  0  3.912194  0  0  -0.059003  -0.051847  0  3.891632  0
C  C63  1  0.10353935  0.11935234  0.58766676  1  0  0.010264  0  3.647397  0  0  -0.049342  0  3.900406  0  0  -0.045092  0  3.912237  0  0  -0.058993  -0.051781  0  3.89168  0
I  I64  1  0.44424597  0.18155341  0.35846585  1  0  -0.399341  0  1.521912  0  0  -0.326819  0  1.97091  0  0  -0.346889  0  1.934731  0  0  -0.17153  -0.310824  0  2.000193  0
I  I65  1  0.94424380  0.31844662  0.14153508  1  0  -0.399322  0  1.521908  0  0  -0.326793  0  1.970908  0  0  -0.346866  0  1.93473  0  0  -0.171521  -0.310803  0  2.000191  0
I  I66  1  0.55575909  0.81844619  0.64153599  1  0  -0.399301  0  1.521841  0  0  -0.326785  0  1.970848  0  0  -0.346848  0  1.934666  0  0  -0.171506  -0.310789  0  2.000127  0
I  I67  1  0.05575048  0.68155400  0.85846847  1  0  -0.399379  0  1.521982  0  0  -0.326834  0  1.970943  0  0  -0.346902  0  1.934759  0  0  -0.171545  -0.31084  0  2.000225  0
N  N68  1  0.55190435  0.96953127  0.16327994  1  0  -0.398644  0  3.241887  0  0  -0.331714  0  3.527976  0  0  -0.352415  0  3.544786  0  0  -0.371672  -0.316894  0  3.516194  0
N  N69  1  0.05190047  0.53046846  0.33672053  1  0  -0.398658  0  3.241904  0  0  -0.331722  0  3.527983  0  0  -0.352423  0  3.544791  0  0  -0.371687  -0.316901  0  3.516196  0
N  N70  1  0.44810070  0.03046834  0.83672080  1  0  -0.398628  0  3.242063  0  0  -0.331697  0  3.528142  0  0  -0.352394  0  3.544949  0  0  -0.371685  -0.316875  0  3.51636  0
N  N71  1  0.94809812  0.46953218  0.66328082  1  0  -0.398634  0  3.241963  0  0  -0.331701  0  3.528068  0  0  -0.352398  0  3.544875  0  0  -0.371641  -0.316876  0  3.516277  0
N  N72  1  0.50676899  0.74788682  0.12542269  1  0  -0.121121  0  3.529093  0  0  -0.028906  0  3.740445  0  0  -0.044752  0  3.766499  0  0  -0.249037  -0.018372  0  3.722486  0
N  N73  1  0.00676880  0.75211089  0.37457711  1  0  -0.121114  0  3.52889  0  0  -0.028838  0  3.740216  0  0  -0.044687  0  3.766272  0  0  -0.24901  -0.018304  0  3.722258  0
N  N74  1  0.49323175  0.25211074  0.87457683  1  0  -0.121077  0  3.529083  0  0  -0.028851  0  3.740393  0  0  -0.044699  0  3.766449  0  0  -0.249019  -0.018315  0  3.722438  0
N  N75  1  0.99322979  0.24788667  0.62542186  1  0  -0.121081  0  3.529083  0  0  -0.028877  0  3.740428  0  0  -0.044722  0  3.766483  0  0  -0.249028  -0.018343  0  3.722472  0
