# generated using pymatgen
data_NiH13C18N3O7
_symmetry_space_group_name_H-M   'P 1'
_cell_length_a   8.55271030
_cell_length_b   10.88672471
_cell_length_c   11.36802538
_cell_angle_alpha   107.30118931
_cell_angle_beta   107.82804306
_cell_angle_gamma   108.03791693
_symmetry_Int_Tables_number   1
_chemical_formula_structural   NiH13C18N3O7
_chemical_formula_sum   'Ni2 H26 C36 N6 O14'
_cell_volume   863.53036397
_cell_formula_units_Z   2
loop_
 _symmetry_equiv_pos_site_id
 _symmetry_equiv_pos_as_xyz
  1  'x, y, z'
loop_
 _atom_site_type_symbol
 _atom_site_label
 _atom_site_symmetry_multiplicity
 _atom_site_fract_x
 _atom_site_fract_y
 _atom_site_fract_z
 _atom_site_occupancy
 _atom_site_hle17_ddec_charge
 _atom_site_hle17_ddec_spin_density
 _atom_site_hle17_ddec_sum_bond_order
 _atom_site_hle17_magmom
 _atom_site_hse06_10hf_ddec_charge
 _atom_site_hse06_10hf_ddec_spin_density
 _atom_site_hse06_10hf_ddec_sum_bond_order
 _atom_site_hse06_10hf_magmom
 _atom_site_hse06_ddec_charge
 _atom_site_hse06_ddec_spin_density
 _atom_site_hse06_ddec_sum_bond_order
 _atom_site_hse06_magmom
 _atom_site_pbe_cm5_charge
 _atom_site_pbe_ddec_charge
 _atom_site_pbe_ddec_spin_density
 _atom_site_pbe_ddec_sum_bond_order
 _atom_site_pbe_magmom
Ni  Ni0  1  0.67242609  0.96394211  0.35262867  1  0.825542  -1.864013  2.000183  -1.497  0.824631  -1.908134  2.392647  -1.616  0.917912  -1.973337  2.316882  -1.707  0.650228  0.757983  -1.848953  2.448492  -1.538
Ni  Ni1  1  0.32610883  0.04337203  0.65153989  1  0.750383  0.078917  2.106322  -0.001  0.748291  0.078491  2.516269  -0.005  0.852364  0.091174  2.429988  -0.005  0.640559  0.683525  0.060989  2.573099  -0.011
H  H2  1  0.68880816  0.51879551  0.79126454  1  0.107527  2e-06  0.981167  0.0  0.111189  8e-06  1.050787  0.0  0.114073  4e-06  1.049633  0.0  0.106557  0.109175  2.1e-05  1.051649  0.0
H  H3  1  0.32987148  0.48011414  0.20089870  1  0.106591  -9e-06  0.978669  0.0  0.110308  1.7e-05  1.048413  0.0  0.112827  1.7e-05  1.047876  0.0  0.10653  0.108625  1.6e-05  1.048741  0.0
H  H4  1  0.90576259  0.55518798  0.68375618  1  0.117623  -4.3e-05  0.93022  0.0  0.126918  -2.8e-05  0.985575  0.0  0.131058  -1.7e-05  0.982817  0.0  0.111188  0.123907  -4e-05  0.987786  0.0
H  H5  1  0.10206388  0.44841395  0.29973678  1  0.114199  2e-05  0.931174  0.0  0.122174  -8e-06  0.989853  0.0  0.126044  -1e-05  0.987464  0.0  0.10984  0.119538  1.1e-05  0.991534  0.0
H  H6  1  0.89108442  0.69275620  0.54545319  1  0.102718  -0.000172  0.948247  0.0  0.115227  -0.00012  1.004817  0.0  0.119673  -7.2e-05  1.00095  0.0  0.111769  0.111549  -0.000173  1.008174  0.0
H  H7  1  0.10467513  0.31354009  0.44127705  1  0.108167  3.8e-05  0.940784  0.0  0.119729  3.4e-05  0.99652  0.0  0.123591  3.8e-05  0.993323  0.0  0.113844  0.116852  2e-05  0.998777  0.0
H  H8  1  0.62036454  0.05028099  0.12104143  1  0.092645  -0.000738  0.952491  -0.002  0.098604  -0.000545  1.019049  -0.001  0.101252  -0.000373  1.016716  -0.001  0.119214  0.096444  -0.000719  1.021113  -0.001
H  H9  1  0.38510242  0.94789797  0.87775078  1  0.099162  -0.00066  0.953827  -0.001  0.10534  -0.000601  1.018895  -0.001  0.107538  -0.000511  1.016835  -0.001  0.122232  0.103825  -0.000641  1.020456  -0.001
H  H10  1  0.75001632  0.05863531  0.95501779  1  0.118345  -0.00023  0.956177  0.0  0.127369  -0.000308  1.01657  0.0  0.131289  -0.000225  1.014723  0.0  0.110084  0.124409  -0.000389  1.018073  0.0
H  H11  1  0.25104273  0.93363940  0.04124125  1  0.11776  -0.00034  0.952371  0.0  0.127914  -0.00026  1.011057  0.0  0.131279  -0.00018  1.009888  0.0  0.111432  0.125594  -0.000319  1.011792  0.0
H  H12  1  0.13246369  0.92599344  0.16787547  1  0.106539  -0.000219  0.982903  0.0  0.114123  -0.000334  1.048822  0.0  0.117635  -0.000223  1.047287  0.0  0.106984  0.111369  -0.000433  1.050425  0.0
H  H13  1  0.87380664  0.07322905  0.83373876  1  0.108076  -0.000358  0.980217  0.0  0.116172  -0.000266  1.045296  0.0  0.119315  -0.000204  1.044269  0.0  0.108202  0.11384  -0.000315  1.046401  0.0
H  H14  1  0.97432990  0.90850309  0.31354977  1  0.101164  -0.00061  0.957804  -0.002  0.10733  -0.000455  1.023029  -0.001  0.110927  -0.000308  1.019676  -0.001  0.121427  0.104229  -0.000598  1.025968  -0.002
H  H15  1  0.03538980  0.09608390  0.69101648  1  0.103346  -0.000871  0.963339  -0.001  0.108492  -0.000915  1.031087  -0.002  0.111356  -0.000743  1.027777  -0.001  0.122124  0.106112  -0.001043  1.0339  -0.002
H  H16  1  0.51970311  0.70187680  0.07549427  1  0.083812  -0.000873  0.93892  -0.002  0.088287  -0.000697  1.006103  -0.001  0.090202  -0.000492  1.004523  -0.001  0.116864  0.087012  -0.000883  1.007383  -0.001
H  H17  1  0.46806305  0.29770705  0.92010239  1  0.087262  0.000742  0.928227  0.001  0.093352  0.000666  0.991672  0.001  0.094425  0.000557  0.990776  0.001  0.121959  0.092662  0.000763  0.99248  0.001
H  H18  1  0.22291662  0.49782962  0.91734586  1  0.111882  -0.000267  0.975538  0.0  0.116217  -0.000345  1.043434  0.0  0.120695  -0.000242  1.039877  0.0  0.106917  0.113  -0.000456  1.04619  0.0
H  H19  1  0.76651502  0.50031543  0.07658131  1  0.113242  0.000158  0.986645  0.0  0.11724  0.000234  1.054699  0.0  0.121438  0.000183  1.051379  0.0  0.107807  0.114331  0.000274  1.05711  0.0
H  H20  1  0.01136686  0.66170142  0.19953989  1  0.114282  -0.000119  0.946031  0.0  0.128415  -0.000171  0.997723  0.0  0.131791  -0.000114  0.996508  0.0  0.114296  0.12576  -0.00023  0.999051  0.0
H  H21  1  0.97661502  0.32547711  0.79826468  1  0.116694  -0.000154  0.945813  0.0  0.129022  -0.000137  0.999696  0.0  0.131954  -8.3e-05  0.998845  0.0  0.11457  0.126803  -0.000191  1.000685  0.0
H  H22  1  0.31704775  0.86483996  0.34138165  1  0.11506  -0.00076  0.942005  -0.002  0.118241  -0.000591  1.0087  -0.001  0.12199  -0.000409  1.004496  -0.001  0.128091  0.11483  -0.000777  1.01255  -0.002
H  H23  1  0.66924933  0.12480595  0.65718619  1  0.119716  0.000926  0.946161  0.001  0.121609  0.000782  1.014273  0.001  0.124665  0.000676  1.010415  0.001  0.129978  0.118864  0.000861  1.017875  0.001
H  H24  1  0.01226237  0.17121524  0.53263378  1  0.417442  3.1e-05  0.895173  0.0  0.390732  -0.000362  0.954403  0.0  0.401975  -0.000184  0.938358  0.0  0.288493  0.383076  -0.000535  0.965215  -0.001
H  H25  1  0.99123473  0.84685497  0.48268933  1  0.415363  0.000275  0.8934  0.0  0.387957  0.000389  0.95426  0.001  0.400024  0.000377  0.937346  0.0  0.290683  0.379902  0.000345  0.965348  0.001
H  H26  1  0.84315530  0.21737312  0.51753262  1  0.409418  0.000405  0.908989  0.001  0.380489  -9.8e-05  0.970478  0.0  0.393051  7.8e-05  0.952733  0.0  0.28347  0.371785  -0.000302  0.98267  0.0
H  H27  1  0.16084368  0.79219593  0.49922397  1  0.416099  0.000311  0.898592  0.0  0.385024  0.000544  0.962793  0.0  0.398157  0.000374  0.944622  0.0  0.284736  0.37595  0.000694  0.975236  0.0
C  C28  1  0.67772285  0.74008856  0.57874903  1  -0.086534  -0.002298  3.715661  -0.003  -0.067914  -0.001483  3.952262  -0.002  -0.076403  -0.001009  3.972937  -0.001  -0.013245  -0.063239  -0.002069  3.940145  -0.002
C  C29  1  0.31584735  0.25925547  0.41373358  1  -0.082528  0.000793  3.71016  0.001  -0.065787  0.000534  3.947075  0.001  -0.074835  0.000296  3.969018  0.001  -0.010157  -0.06017  0.000826  3.932398  0.001
C  C30  1  0.55383193  0.71975226  0.63792249  1  -0.044664  0.00207  3.617879  0.002  -0.040769  0.000755  3.854592  0.0  -0.039252  0.000467  3.870451  0.0  0.015275  -0.043069  0.001625  3.84555  0.001
C  C31  1  0.44007462  0.27163749  0.35491910  1  -0.049902  -0.005583  3.622994  -0.007  -0.045364  -0.003157  3.859207  -0.004  -0.044199  -0.00201  3.87497  -0.003  0.014376  -0.046466  -0.004495  3.849509  -0.006
C  C32  1  0.56391302  0.63848275  0.71333108  1  0.037433  0.000425  3.673613  0.0  0.024012  0.00064  3.930548  0.0  0.018985  0.000362  3.952832  0.0  0.075554  0.027385  0.00103  3.915717  0.001
C  C33  1  0.43995343  0.35417883  0.28037795  1  0.036161  -0.000635  3.680912  -0.001  0.02343  -0.000621  3.937051  -0.001  0.018436  -0.000416  3.959795  0.0  0.075769  0.026674  -0.000843  3.921451  -0.001
C  C34  1  0.68986581  0.58087560  0.73204041  1  -0.074205  0.001332  3.715666  0.001  -0.104405  0.000487  3.980681  0.0  -0.10154  0.000306  3.997987  0.0  -0.076385  -0.105823  0.000849  3.96865  0.0
C  C35  1  0.31991337  0.41663035  0.25854325  1  -0.076787  0.000178  3.718653  0.0  -0.107226  1e-06  3.982979  0.0  -0.105089  0.000125  4.001814  0.0  -0.076185  -0.107558  -0.000271  3.968981  0.0
C  C36  1  0.80960969  0.60178551  0.67287329  1  -0.048898  0.000461  3.735321  0.0  -0.0669  0.000534  4.002852  0.0  -0.070219  0.000301  4.020308  0.0  -0.083165  -0.065031  0.000748  3.991301  0.0
C  C37  1  0.19460671  0.39870526  0.31316573  1  -0.045407  -0.001305  3.73044  -0.001  -0.063508  -0.000926  3.998503  -0.001  -0.067178  -0.000647  4.01755  -0.001  -0.080464  -0.060995  -0.001251  3.984562  -0.001
C  C38  1  0.80076519  0.67935392  0.59515345  1  -0.020883  0.000314  3.676536  0.0  -0.057352  -0.000323  3.937263  0.0  -0.053579  -0.000242  3.953044  0.0  -0.067387  -0.06022  -0.000265  3.927876  -0.001
C  C39  1  0.19621692  0.32274878  0.39233765  1  -0.020218  -6.8e-05  3.66872  0.0  -0.056486  -0.000315  3.930029  -0.001  -0.053938  -0.000154  3.948037  0.0  -0.064893  -0.057254  -0.00054  3.91691  -0.001
C  C40  1  0.68238709  0.82766373  0.49915817  1  0.622348  0.009376  3.870479  0.01  0.571532  0.002444  4.17535  0.004  0.607139  0.002294  4.174115  0.003  0.203554  0.547158  0.002608  4.173962  0.005
C  C41  1  0.30829404  0.18553339  0.50590009  1  0.621633  0.00056  3.884804  0.001  0.572842  -0.000849  4.188271  -0.001  0.60857  -0.000681  4.187141  0.0  0.206355  0.548673  -0.000908  4.186918  0.0
C  C42  1  0.41786413  0.78315457  0.61878459  1  0.669561  -0.000403  3.951193  -0.001  0.615333  0.000584  4.268264  0.0  0.653398  0.000434  4.255183  0.0  0.206231  0.589467  0.000703  4.275775  0.0
C  C43  1  0.58013262  0.21311129  0.38571623  1  0.668247  0.005127  3.922272  0.006  0.615651  0.000577  4.239048  0.002  0.654784  0.000663  4.227008  0.001  0.211209  0.588148  0.000481  4.245877  0.002
C  C44  1  0.73068744  0.01946411  0.12415286  1  0.126771  0.016434  3.677101  0.013  0.100342  0.005089  3.934207  0.004  0.109309  0.005334  3.95112  0.005  0.0479  0.093798  0.005623  3.923695  0.004
C  C45  1  0.27547312  0.97915091  0.87612080  1  0.127497  0.004284  3.662043  0.003  0.099047  0.000741  3.917473  0.001  0.109174  0.001359  3.934798  0.001  0.050792  0.091863  0.0002  3.906282  0.0
C  C46  1  0.80822405  0.02710112  0.03390310  1  -0.14148  -0.009738  3.668438  -0.012  -0.159253  -0.003096  3.91163  -0.004  -0.165915  -0.00309  3.929691  -0.004  -0.076006  -0.154689  -0.003355  3.900195  -0.004
C  C47  1  0.19542393  0.96859062  0.96456369  1  -0.144621  -0.00211  3.672752  -0.003  -0.163109  -0.000801  3.918128  -0.001  -0.170136  -0.000888  3.936673  -0.001  -0.07612  -0.158175  -0.000456  3.905676  -0.001
C  C48  1  0.95644362  0.99297888  0.04504337  1  0.090224  0.015356  3.743822  0.012  0.103081  0.005721  3.970263  0.004  0.107834  0.005016  3.990261  0.004  0.011047  0.09899  0.007673  3.957887  0.006
C  C49  1  0.04776742  0.00325926  0.95435329  1  0.09389  0.003053  3.743282  0.002  0.106171  0.000906  3.970447  0.0  0.111115  0.001005  3.990531  0.001  0.01348  0.102467  0.000866  3.95754  0.0
C  C50  1  0.01567099  0.95036349  0.14884497  1  -0.15019  -0.010157  3.703765  -0.012  -0.167423  -0.003574  3.947306  -0.005  -0.174317  -0.003446  3.966947  -0.004  -0.080252  -0.163388  -0.003912  3.935829  -0.005
C  C51  1  0.99019119  0.04835137  0.85219372  1  -0.148547  -0.002874  3.704319  -0.004  -0.165987  -0.001689  3.948028  -0.003  -0.173382  -0.0016  3.968266  -0.002  -0.079202  -0.161466  -0.001332  3.935618  -0.002
C  C52  1  0.92851965  0.94180586  0.23303859  1  0.115991  0.014636  3.674458  0.011  0.090134  0.003696  3.933146  0.003  0.098587  0.004199  3.949425  0.004  0.043047  0.082938  0.004065  3.925166  0.003
C  C53  1  0.07923838  0.06005944  0.76969661  1  0.108639  0.002931  3.672732  0.002  0.081117  -0.000863  3.930395  -0.001  0.090047  -0.000112  3.94784  0.0  0.043374  0.073701  -0.001466  3.921438  -0.001
C  C54  1  0.40281086  0.69017162  0.09851224  1  0.136379  0.016166  3.697966  0.013  0.104783  0.004239  3.964938  0.004  0.114408  0.00487  3.981919  0.004  0.049222  0.098067  0.004286  3.95378  0.003
C  C55  1  0.58525635  0.30682004  0.89820589  1  0.140516  -0.003813  3.679826  -0.005  0.107055  0.000523  3.94821  0.0  0.118715  -0.000241  3.965576  -0.001  0.05213  0.098759  0.001142  3.937105  0.0
C  C56  1  0.23364844  0.57351711  0.01032256  1  -0.158814  -0.011436  3.71184  -0.013  -0.179469  -0.003422  3.963775  -0.004  -0.186705  -0.003471  3.981595  -0.004  -0.083441  -0.174653  -0.003625  3.95208  -0.005
C  C57  1  0.75531953  0.42222123  0.98502576  1  -0.155943  0.010682  3.713204  0.008  -0.178869  0.00359  3.969192  0.003  -0.186507  0.003581  3.986203  0.003  -0.082333  -0.173715  0.003929  3.957999  0.003
C  C58  1  0.08519416  0.55791869  0.04286320  1  0.087842  0.016427  3.765824  0.013  0.102071  0.005331  3.990687  0.004  0.106257  0.005043  4.012049  0.004  0.009807  0.098717  0.006648  3.977053  0.005
C  C59  1  0.90389816  0.43461348  0.95335108  1  0.088975  -0.005803  3.763926  -0.007  0.10277  -0.001141  3.989007  -0.002  0.108042  -0.001506  4.009735  -0.002  0.010222  0.098482  -0.000863  3.975791  -0.001
C  C60  1  0.11762390  0.66519498  0.16526278  1  -0.149266  -0.011334  3.687568  -0.013  -0.166572  -0.00353  3.929349  -0.005  -0.174127  -0.00356  3.948058  -0.005  -0.077332  -0.16203  -0.003725  3.918359  -0.005
C  C61  1  0.87059414  0.32494079  0.83225588  1  -0.150764  0.009591  3.684175  0.008  -0.167332  0.002854  3.927121  0.002  -0.17568  0.00297  3.946035  0.002  -0.077682  -0.162012  0.003168  3.915767  0.003
C  C62  1  0.28943842  0.77985699  0.24690231  1  0.134375  0.015959  3.664352  0.013  0.106335  0.003844  3.922068  0.003  0.117385  0.00448  3.935565  0.004  0.048795  0.097784  0.003941  3.91519  0.003
C  C63  1  0.69782876  0.21153546  0.75077817  1  0.13366  -0.00486  3.636061  -0.006  0.104044  -0.000296  3.894652  -0.001  0.116636  -0.00093  3.908953  -0.002  0.05077  0.094101  0.000154  3.887487  -0.001
N  N64  1  0.44000557  0.60944988  0.77707245  1  0.499892  0.000606  3.885154  0.0  0.528258  0.00061  4.183459  0.0  0.550276  0.000183  4.190275  0.0  0.055072  0.512405  0.002134  4.18052  0.002
N  N65  1  0.57522175  0.38551374  0.22648679  1  0.501488  6.3e-05  3.894597  0.0  0.530614  -6.5e-05  4.191979  0.0  0.552241  -3e-06  4.199407  0.0  0.05649  0.515743  -0.000577  4.187413  -0.001
N  N66  1  0.78817008  0.97667055  0.22242598  1  -0.295006  -0.058958  3.331715  -0.088  -0.258083  -0.038208  3.633531  -0.058  -0.286015  -0.0307  3.651693  -0.048  -0.330261  -0.239356  -0.044496  3.6226  -0.065
N  N67  1  0.22021588  0.02569644  0.78048353  1  -0.276446  -0.041877  3.359335  -0.057  -0.233357  -0.02812  3.656553  -0.038  -0.266541  -0.024485  3.6769  -0.034  -0.331696  -0.21175  -0.029525  3.643717  -0.039
N  N68  1  0.43125751  0.79233746  0.21473358  1  -0.28653  -0.063857  3.32911  -0.093  -0.243338  -0.040416  3.617386  -0.06  -0.271657  -0.03288  3.63642  -0.051  -0.331233  -0.224448  -0.046709  3.605918  -0.067
N  N69  1  0.55605161  0.20268601  0.78289812  1  -0.256595  0.045533  3.371441  0.041  -0.214853  0.03279  3.66675  0.029  -0.251364  0.029437  3.688597  0.026  -0.33881  -0.191206  0.035377  3.653315  0.031
O  O70  1  0.77513641  0.82586816  0.42851336  1  -0.615313  -0.049747  2.014504  -0.076  -0.579638  -0.034004  2.267495  -0.054  -0.61823  -0.024515  2.260927  -0.04  -0.307848  -0.549672  -0.043205  2.269696  -0.066
O  O71  1  0.22668602  0.21023634  0.58005316  1  -0.621516  0.009022  2.015836  0.008  -0.583436  0.004762  2.258001  0.004  -0.613784  0.004564  2.24696  0.005  -0.312784  -0.561485  0.00378  2.264592  0.003
O  O72  1  0.59632223  0.90362484  0.50054698  1  -0.539238  -0.051791  2.03895  -0.079  -0.503049  -0.033587  2.291204  -0.053  -0.54127  -0.024306  2.288937  -0.039  -0.276288  -0.474105  -0.042797  2.291047  -0.065
O  O73  1  0.38336089  0.10062304  0.50904616  1  -0.52458  -0.029412  2.048204  -0.042  -0.489708  -0.017682  2.310437  -0.026  -0.535731  -0.014197  2.309397  -0.021  -0.276511  -0.45534  -0.020024  2.308338  -0.029
O  O74  1  0.47420118  0.90919640  0.70730695  1  -0.620626  0.031017  2.028172  0.031  -0.59804  0.016223  2.301522  0.016  -0.633296  0.013779  2.290766  0.014  -0.310574  -0.571433  0.016753  2.307376  0.016
O  O75  1  0.53117732  0.08299875  0.30791548  1  -0.602461  -0.056268  2.076488  -0.087  -0.587705  -0.03447  2.367629  -0.055  -0.62844  -0.025477  2.358337  -0.042  -0.308578  -0.555538  -0.042741  2.37187  -0.066
O  O76  1  0.26346438  0.70545573  0.51517237  1  -0.607871  -0.000222  1.960361  -0.001  -0.559573  -0.000223  2.177273  -0.001  -0.586465  -0.000221  2.167253  -0.001  -0.319586  -0.540275  -0.000188  2.183305  -0.001
O  O77  1  0.73117048  0.30019835  0.48828826  1  -0.59251  0.001159  1.965763  0.0  -0.544998  0.000347  2.181283  0.0  -0.572913  0.000699  2.17308  0.0  -0.305663  -0.524391  -0.00014  2.185969  -0.001
O  O78  1  0.32999281  0.66260504  0.76835393  1  -0.349512  -3.9e-05  1.751918  0.0  -0.329962  0.00016  1.953179  0.0  -0.340723  -0.000102  1.949545  0.0  -0.122286  -0.325104  0.000967  1.957136  0.001
O  O79  1  0.65748084  0.30985165  0.21425746  1  -0.35592  0.000622  1.757497  0.001  -0.338838  0.000284  1.963105  0.0  -0.350606  0.000337  1.96014  0.0  -0.122358  -0.33146  -0.000208  1.965565  0.0
O  O80  1  0.45227224  0.53264216  0.83867494  1  -0.375758  0.000871  1.766743  0.001  -0.352683  0.000893  1.973617  0.001  -0.364868  0.000518  1.96982  0.001  -0.133615  -0.346551  0.002103  1.977718  0.002
O  O81  1  0.60101333  0.48849976  0.19570900  1  -0.365423  -0.00046  1.757397  -0.001  -0.342599  -0.000404  1.958834  -0.001  -0.35488  -0.000284  1.955205  -0.001  -0.128351  -0.334686  -0.000686  1.961749  -0.001
O  O82  1  0.88472482  0.14005297  0.52358437  1  -0.819762  -0.043995  1.973821  -0.066  -0.787615  -0.031714  2.184601  -0.048  -0.820728  -0.024585  2.150945  -0.039  -0.583067  -0.762562  -0.037939  2.206944  -0.055
O  O83  1  0.11952212  0.87233203  0.49460017  1  -0.786864  0.022606  2.00869  0.02  -0.757813  0.019024  2.231697  0.016  -0.799323  0.017386  2.196983  0.015  -0.566789  -0.726958  0.01994  2.253563  0.017
