# generated using pymatgen
data_ZnH12C17SN2O5
_symmetry_space_group_name_H-M   'P 1'
_cell_length_a   14.10579190
_cell_length_b   14.10574171
_cell_length_c   23.64960921
_cell_angle_alpha   105.69584336
_cell_angle_beta   105.69584801
_cell_angle_gamma   95.39095222
_symmetry_Int_Tables_number   1
_chemical_formula_structural   ZnH12C17SN2O5
_chemical_formula_sum   'Zn8 H96 C136 S8 N16 O40'
_cell_volume   4289.73347113
_cell_formula_units_Z   8
loop_
 _symmetry_equiv_pos_site_id
 _symmetry_equiv_pos_as_xyz
  1  'x, y, z'
loop_
 _atom_site_type_symbol
 _atom_site_label
 _atom_site_symmetry_multiplicity
 _atom_site_fract_x
 _atom_site_fract_y
 _atom_site_fract_z
 _atom_site_occupancy
 _atom_site_pbe_bader_charge
 _atom_site_pbe_bader_spin_density
 _atom_site_pbe_cm5_charge
 _atom_site_pbe_ddec_charge
 _atom_site_pbe_ddec_spin_density
 _atom_site_pbe_ddec_sum_bond_order
 _atom_site_pbe_magmom
Zn  Zn0  1  0.00000045  0.00000040  0.99999926  1  1.335073  0  0.705091  0.861263  0  2.281403  0
Zn  Zn1  1  0.00000243  0.49999903  0.00000147  1  1.33393  0  0.705242  0.858847  0  2.281399  0
Zn  Zn2  1  0.49999993  0.99999882  0.49999851  1  1.333928  0  0.705187  0.858767  0  2.281639  0
Zn  Zn3  1  0.00000068  0.99999967  0.50000079  1  1.335055  0  0.705095  0.861234  0  2.281482  0
Zn  Zn4  1  0.07476775  0.32431771  0.14925071  1  1.252284  0  0.698961  0.759168  0  2.384853  0
Zn  Zn5  1  0.67568454  0.92523719  0.35075037  1  1.252603  0  0.698978  0.759184  0  2.384845  0
Zn  Zn6  1  0.92523464  0.67568255  0.85075147  1  1.252517  0  0.698968  0.75916  0  2.384787  0
Zn  Zn7  1  0.32431513  0.07476402  0.64924910  1  1.252507  0  0.698959  0.759143  0  2.384767  0
H  H8  1  0.63775860  0.92124153  0.01432309  1  0.095859  0  0.104594  0.111954  0  1.005788  0
H  H9  1  0.37606963  0.59334181  0.01430704  1  0.095479  0  0.104643  0.112283  0  1.006468  0
H  H10  1  0.40666047  0.62392898  0.48569425  1  0.095512  0  0.104649  0.112296  0  1.00645  0
H  H11  1  0.07875872  0.36224599  0.48568048  1  0.095807  0  0.104569  0.111937  0  1.005805  0
H  H12  1  0.36224487  0.07875722  0.98567793  1  0.09601  0  0.104592  0.111944  0  1.005782  0
H  H13  1  0.62392629  0.40665799  0.98569241  1  0.095504  0  0.104642  0.11227  0  1.006465  0
H  H14  1  0.59333720  0.37607269  0.51430621  1  0.09551  0  0.10464  0.112268  0  1.006477  0
H  H15  1  0.92124398  0.63775530  0.51432199  1  0.095854  0  0.104589  0.111946  0  1.005832  0
H  H16  1  0.52682879  0.01633209  0.95779530  1  0.100433  0  0.097367  0.094053  0  1.018857  0
H  H17  1  0.43045738  0.44181080  0.95772654  1  0.042069  0  0.097176  0.093501  0  1.017165  0
H  H18  1  0.55819000  0.56954011  0.54227393  1  0.042033  0  0.097157  0.093471  0  1.017172  0
H  H19  1  0.98366354  0.47317605  0.54220451  1  0.100471  0  0.097364  0.094063  0  1.018826  0
H  H20  1  0.47317486  0.98366623  0.04220515  1  0.100517  0  0.09738  0.094114  0  1.018866  0
H  H21  1  0.56953932  0.55818967  0.04227445  1  0.041899  0  0.097189  0.093509  0  1.01717  0
H  H22  1  0.44180374  0.43046060  0.45772709  1  0.045472  0  0.097185  0.093511  0  1.017202  0
H  H23  1  0.01633673  0.52682417  0.45779630  1  0.100631  0  0.097378  0.094071  0  1.018834  0
H  H24  1  0.59944926  0.18496650  0.95636224  1  0.085668  0  0.104033  0.112938  0  0.996514  0
H  H25  1  0.35674808  0.27164963  0.95639549  1  0.099417  0  0.104695  0.113507  0  0.997746  0
H  H26  1  0.72835038  0.64324998  0.54360427  1  0.099392  0  0.104694  0.113466  0  0.997781  0
H  H27  1  0.81502888  0.40055205  0.54363674  1  0.085659  0  0.104021  0.112898  0  0.996549  0
H  H28  1  0.40055330  0.81503122  0.04363862  1  0.085601  0  0.104018  0.112935  0  0.996438  0
H  H29  1  0.64325055  0.72835018  0.04360519  1  0.099384  0  0.104686  0.113478  0  0.997758  0
H  H30  1  0.27164619  0.35674804  0.45639735  1  0.099348  0  0.104676  0.1135  0  0.997821  0
H  H31  1  0.18496980  0.59944585  0.45636250  1  0.085619  0  0.104029  0.112929  0  0.996529  0
H  H32  1  0.77685897  0.25670496  0.01263073  1  0.107015  0  0.103508  0.113679  0  1.022399  0
H  H33  1  0.23602918  0.25616467  0.01286903  1  0.101926  0  0.103495  0.113419  0  1.023106  0
H  H34  1  0.74383436  0.76396731  0.48712826  1  0.10196  0  0.103467  0.11339  0  1.023052  0
H  H35  1  0.74329365  0.22314124  0.48736748  1  0.107032  0  0.103523  0.113707  0  1.02238  0
H  H36  1  0.22314323  0.74329251  0.98736903  1  0.107  0  0.103514  0.113693  0  1.022373  0
H  H37  1  0.76396981  0.74383428  0.98713052  1  0.101974  0  0.103455  0.113346  0  1.023123  0
H  H38  1  0.25616504  0.23602690  0.51287171  1  0.101898  0  0.10351  0.113384  0  1.023168  0
H  H39  1  0.25670576  0.77685701  0.51263024  1  0.107003  0  0.103508  0.113692  0  1.022383  0
H  H40  1  0.19394190  0.13518780  0.08394661  1  0.146077  0  0.125054  0.106585  0  0.990343  0
H  H41  1  0.89017898  0.44850930  0.08365724  1  0.146602  0  0.124951  0.106256  0  0.988864  0
H  H42  1  0.55148973  0.10982150  0.41634281  1  0.14648  0  0.124956  0.106266  0  0.988865  0
H  H43  1  0.86481340  0.80605792  0.41605551  1  0.146066  0  0.125041  0.10655  0  0.990425  0
H  H44  1  0.80605916  0.86481504  0.91605274  1  0.146131  0  0.124989  0.106485  0  0.990419  0
H  H45  1  0.10982359  0.55149164  0.91634661  1  0.146467  0  0.124933  0.106247  0  0.988999  0
H  H46  1  0.44851186  0.89017697  0.58365560  1  0.146635  0  0.124951  0.106248  0  0.988946  0
H  H47  1  0.13518693  0.19394053  0.58394761  1  0.146114  0  0.124988  0.106462  0  0.990385  0
H  H48  1  0.34611229  0.12267528  0.16310572  1  0.065503  0  0.109197  0.112408  0  1.000322  0
H  H49  1  0.81737232  0.54012008  0.16293223  1  0.079306  0  0.109265  0.11204  0  1.002129  0
H  H50  1  0.45987778  0.18262895  0.33706690  1  0.079236  0  0.10926  0.112029  0  1.002142  0
H  H51  1  0.87732566  0.65388837  0.33689665  1  0.065493  0  0.109192  0.112294  0  1.000369  0
H  H52  1  0.65388956  0.87732711  0.83689293  1  0.06554  0  0.109201  0.112429  0  1.000382  0
H  H53  1  0.18262831  0.45988039  0.83706970  1  0.079297  0  0.109245  0.112  0  1.002078  0
H  H54  1  0.54012207  0.81737182  0.66293200  1  0.079289  0  0.109244  0.111985  0  1.002034  0
H  H55  1  0.12267255  0.34611005  0.66310510  1  0.065565  0  0.109203  0.112404  0  1.000268  0
H  H56  1  0.19894140  0.82639095  0.14272959  1  0.121935  0  0.112485  0.121041  0  1.020179  0
H  H57  1  0.94406333  0.81619873  0.14273946  1  0.116878  0  0.112363  0.121145  0  1.020338  0
H  H58  1  0.18380109  0.05593795  0.35726129  1  0.116866  0  0.112344  0.121113  0  1.020371  0
H  H59  1  0.17360803  0.80105893  0.35726954  1  0.121966  0  0.112488  0.121026  0  1.020156  0
H  H60  1  0.80106045  0.17361256  0.85727129  1  0.121912  0  0.112503  0.121088  0  1.020101  0
H  H61  1  0.05593047  0.18380103  0.85725864  1  0.116874  0  0.112364  0.121125  0  1.020413  0
H  H62  1  0.81619854  0.94406615  0.64273811  1  0.116897  0  0.112364  0.121174  0  1.020279  0
H  H63  1  0.82638843  0.19894165  0.64272897  1  0.121949  0  0.112484  0.121063  0  1.020064  0
H  H64  1  0.05071030  0.85561759  0.06682387  1  0.095688  0  0.12064  0.095474  0  1.014901  0
H  H65  1  0.01629518  0.71112249  0.06676511  1  0.126313  0  0.120865  0.095422  0  1.015308  0
H  H66  1  0.28887736  0.98370615  0.43323618  1  0.125972  0  0.120869  0.095413  0  1.015321  0
H  H67  1  0.14438364  0.94929254  0.43317688  1  0.09567  0  0.120632  0.095467  0  1.014873  0
H  H68  1  0.94929035  0.14438594  0.93317731  1  0.096125  0  0.120618  0.095462  0  1.014905  0
H  H69  1  0.98370073  0.28887522  0.93323360  1  0.126548  0  0.120824  0.095374  0  1.015376  0
H  H70  1  0.71112279  0.01629566  0.56676302  1  0.126258  0  0.120866  0.095427  0  1.015354  0
H  H71  1  0.85561488  0.05070887  0.56682218  1  0.095652  0  0.120629  0.095475  0  1.014883  0
H  H72  1  0.48153668  0.05528211  0.18217470  1  0.091055  0  0.114469  0.121383  0  0.993865  0
H  H73  1  0.70114474  0.62650356  0.18215335  1  0.06997  0  0.114645  0.121201  0  0.993976  0
H  H74  1  0.37349956  0.29885897  0.31784985  1  0.070343  0  0.114695  0.12128  0  0.993939  0
H  H75  1  0.94471747  0.51846139  0.31782519  1  0.091045  0  0.114475  0.121329  0  0.993918  0
H  H76  1  0.51846462  0.94471950  0.81782490  1  0.091136  0  0.114473  0.121361  0  0.993969  0
H  H77  1  0.29885529  0.37349692  0.81784872  1  0.069982  0  0.114674  0.121269  0  0.993996  0
H  H78  1  0.62650314  0.70114427  0.68214964  1  0.069958  0  0.114678  0.121246  0  0.99403  0
H  H79  1  0.05528044  0.48153905  0.68217551  1  0.091119  0  0.114477  0.121358  0  0.993979  0
H  H80  1  0.62942204  0.03403582  0.26052639  1  0.114118  0  0.127579  0.101751  0  0.965982  0
H  H81  1  0.63159449  0.72618302  0.26041146  1  0.114843  0  0.12781  0.102426  0  0.965325  0
H  H82  1  0.27382118  0.36840816  0.23958884  1  0.114777  0  0.127776  0.10239  0  0.965316  0
H  H83  1  0.96596598  0.37057608  0.23947334  1  0.114088  0  0.127563  0.101758  0  0.965876  0
H  H84  1  0.37057768  0.96596459  0.73947389  1  0.114108  0  0.12758  0.1018  0  0.965943  0
H  H85  1  0.36840723  0.27381706  0.73959155  1  0.114445  0  0.127816  0.102397  0  0.965396  0
H  H86  1  0.72618061  0.63159294  0.76040825  1  0.11421  0  0.127792  0.102384  0  0.965371  0
H  H87  1  0.03403242  0.62942498  0.76052710  1  0.114029  0  0.127559  0.101777  0  0.965866  0
H  H88  1  0.45178074  0.84317367  0.31310990  1  0.175553  0  0.123323  0.118625  0  1.035911  0
H  H89  1  0.86147823  0.96999742  0.31279314  1  0.216525  0  0.12355  0.118398  0  1.037451  0
H  H90  1  0.03000570  0.13852495  0.18720669  1  0.216581  0  0.123541  0.118369  0  1.037432  0
H  H91  1  0.15682872  0.54822248  0.18689176  1  0.175507  0  0.123332  0.118557  0  1.035932  0
H  H92  1  0.54821983  0.15682647  0.68688898  1  0.175482  0  0.123344  0.118638  0  1.035876  0
H  H93  1  0.13851938  0.03000394  0.68720428  1  0.216518  0  0.123573  0.118376  0  1.037524  0
H  H94  1  0.96999574  0.86147814  0.81279377  1  0.216549  0  0.123566  0.118423  0  1.037398  0
H  H95  1  0.84317137  0.45177818  0.81310962  1  0.17558  0  0.123345  0.118622  0  1.035892  0
H  H96  1  0.29791021  0.85738002  0.23815662  1  0.10495  0  0.117191  0.126866  0  0.981601  0
H  H97  1  0.94045188  0.88070466  0.23790244  1  0.11047  0  0.117679  0.126912  0  0.982103  0
H  H98  1  0.11929640  0.05954959  0.26209869  1  0.110546  0  0.117669  0.12692  0  0.982108  0
H  H99  1  0.14261875  0.70209331  0.26184421  1  0.104878  0  0.117183  0.126899  0  0.981577  0
H  H100  1  0.70208987  0.14261840  0.76184028  1  0.104872  0  0.117191  0.126851  0  0.981618  0
H  H101  1  0.05954458  0.11929592  0.76209607  1  0.110878  0  0.117679  0.126899  0  0.982168  0
H  H102  1  0.88070551  0.94045313  0.73790301  1  0.110462  0  0.117683  0.126936  0  0.982131  0
H  H103  1  0.85738322  0.29790861  0.73815829  1  0.104871  0  0.117186  0.12683  0  0.981644  0
C  C104  1  0.91639910  0.17874989  0.07416441  1  1.589103  0  0.219176  0.599592  0  4.157724  0
C  C105  1  0.15788473  0.39532749  0.07432436  1  1.572188  0  0.221384  0.60362  0  4.158157  0
C  C106  1  0.60467081  0.84211350  0.42567489  1  1.571905  0  0.221377  0.603589  0  4.158138  0
C  C107  1  0.82125574  0.08360180  0.42583664  1  1.589183  0  0.219273  0.599817  0  4.157561  0
C  C108  1  0.08360317  0.82125098  0.92583764  1  1.589107  0  0.219197  0.599504  0  4.157817  0
C  C109  1  0.84211808  0.60467304  0.92567451  1  1.572337  0  0.221334  0.603551  0  4.158304  0
C  C110  1  0.39532350  0.15788077  0.57432002  1  1.572452  0  0.221405  0.603479  0  4.158407  0
C  C111  1  0.17874379  0.91639486  0.57416270  1  1.589139  0  0.219256  0.599703  0  4.157621  0
C  C112  1  0.80870915  0.12961754  0.04380847  1  -0.075299  0  -0.012744  -0.042509  0  3.957106  0
C  C113  1  0.23515839  0.41439110  0.04402108  1  0.005082  0  -0.013929  -0.044187  0  3.958124  0
C  C114  1  0.58560904  0.76483796  0.45597746  1  0.005079  0  -0.013884  -0.044171  0  3.958338  0
C  C115  1  0.87038396  0.19129433  0.45619241  1  -0.075342  0  -0.012755  -0.04254  0  3.957024  0
C  C116  1  0.19129342  0.87038227  0.95619314  1  -0.075278  0  -0.012716  -0.042388  0  3.957093  0
C  C117  1  0.76483540  0.58560867  0.95597701  1  0.010854  0  -0.01391  -0.044239  0  3.95831  0
C  C118  1  0.41438705  0.23516140  0.54402144  1  0.005035  0  -0.013961  -0.044268  0  3.958492  0
C  C119  1  0.12961698  0.80870703  0.54380607  1  -0.075394  0  -0.012746  -0.042511  0  3.957192  0
C  C120  1  0.76883173  0.03401477  0.04312331  1  -0.203401  0  -0.020833  -0.110597  0  3.944343  0
C  C121  1  0.27413320  0.50935871  0.04328950  1  -0.197862  0  -0.02007  -0.108426  0  3.940421  0
C  C122  1  0.49064290  0.72586497  0.45670895  1  -0.197732  0  -0.020093  -0.108471  0  3.940359  0
C  C123  1  0.96598573  0.23117075  0.45687986  1  -0.203628  0  -0.020842  -0.110581  0  3.944695  0
C  C124  1  0.23116932  0.96598403  0.95687828  1  -0.203661  0  -0.020844  -0.110687  0  3.944419  0
C  C125  1  0.72586100  0.49063827  0.95670603  1  -0.203435  0  -0.020063  -0.108543  0  3.940319  0
C  C126  1  0.50935973  0.27413600  0.54329048  1  -0.197541  0  -0.020049  -0.108492  0  3.940172  0
C  C127  1  0.03401581  0.76882963  0.54311997  1  -0.203598  0  -0.020866  -0.110647  0  3.944656  0
C  C128  1  0.66721491  0.99460345  0.01301475  1  0.014149  0  -0.094121  -0.104903  0  4.016963  0
C  C129  1  0.34544486  0.51867483  0.01305678  1  -0.028052  0  -0.094361  -0.105992  0  4.016064  0
C  C130  1  0.48132900  0.65455283  0.48694556  1  -0.028317  0  -0.094381  -0.10599  0  4.015927  0
C  C131  1  0.00539588  0.33278939  0.48698855  1  0.014744  0  -0.094075  -0.104911  0  4.017219  0
C  C132  1  0.33278638  0.00539411  0.98698709  1  0.014351  0  -0.094078  -0.104816  0  4.017093  0
C  C133  1  0.65454737  0.48132583  0.98694273  1  -0.029168  0  -0.094364  -0.105871  0  4.01577  0
C  C134  1  0.51867148  0.34545324  0.51305693  1  -0.028674  0  -0.094416  -0.105946  0  4.015871  0
C  C135  1  0.99460591  0.66721185  0.51301227  1  0.014699  0  -0.094068  -0.104901  0  4.017166  0
C  C136  1  0.60569717  0.04835241  0.98187635  1  -0.080929  0  -0.09738  -0.094201  0  4.038361  0
C  C137  1  0.37581364  0.43382171  0.98188015  1  -0.023483  0  -0.096809  -0.092977  0  4.035904  0
C  C138  1  0.56617934  0.62418711  0.51812143  1  -0.023485  0  -0.096794  -0.093003  0  4.036083  0
C  C139  1  0.95164491  0.39430374  0.51812456  1  -0.081335  0  -0.097376  -0.094229  0  4.038597  0
C  C140  1  0.39430552  0.95164679  0.01812538  1  -0.08088  0  -0.097437  -0.094328  0  4.038578  0
C  C141  1  0.62418216  0.56617870  0.01811919  1  -0.022647  0  -0.096859  -0.093072  0  4.035974  0
C  C142  1  0.43381745  0.37581885  0.48188261  1  -0.026604  0  -0.096787  -0.092966  0  4.035993  0
C  C143  1  0.04835723  0.60569565  0.48187662  1  -0.081513  0  -0.097411  -0.094211  0  4.038569  0
C  C144  1  0.64524020  0.14267776  0.98163699  1  -0.10767  0  -0.090495  -0.073723  0  3.996578  0
C  C145  1  0.33625976  0.33922126  0.98169198  1  -0.028458  0  -0.090963  -0.07423  0  3.996392  0
C  C146  1  0.66077762  0.66373841  0.51830753  1  -0.028238  0  -0.090864  -0.074011  0  3.99618  0
C  C147  1  0.85732077  0.35476112  0.51836236  1  -0.107757  0  -0.090485  -0.073621  0  3.996795  0
C  C148  1  0.35476243  0.85732224  0.01836394  1  -0.107911  0  -0.090498  -0.073717  0  3.996613  0
C  C149  1  0.66373560  0.66077663  0.01830620  1  -0.028338  0  -0.09091  -0.074167  0  3.996133  0
C  C150  1  0.33921698  0.33626524  0.48169509  1  -0.02838  0  -0.090916  -0.074237  0  3.996216  0
C  C151  1  0.14267822  0.64523783  0.48163718  1  -0.107719  0  -0.090489  -0.073699  0  3.996784  0
C  C152  1  0.74574546  0.18355503  0.01337429  1  0.06998  0  -0.085332  -0.087572  0  3.938642  0
C  C153  1  0.26771069  0.33006019  0.01354193  1  -0.045045  0  -0.085305  -0.087695  0  3.938001  0
C  C154  1  0.66993808  0.73228601  0.48645493  1  -0.045066  0  -0.08535  -0.087781  0  3.937863  0
C  C155  1  0.81644450  0.25425690  0.48662438  1  0.069969  0  -0.085403  -0.087705  0  3.93883  0
C  C156  1  0.25425747  0.81644391  0.98662619  1  0.069966  0  -0.08539  -0.087702  0  3.938786  0
C  C157  1  0.73228503  0.66993683  0.98645511  1  -0.045066  0  -0.085241  -0.0875  0  3.937877  0
C  C158  1  0.33005958  0.26771260  0.51354628  1  -0.045029  0  -0.085301  -0.087581  0  3.938043  0
C  C159  1  0.18355480  0.74574197  0.51337323  1  0.069959  0  -0.085368  -0.087648  0  3.938806  0
C  C160  1  0.19841311  0.06908203  0.09928113  1  0.471979  0  0.05576  0.106921  0  3.923444  0
C  C161  1  0.90104135  0.52997023  0.09905388  1  0.472807  0  0.055275  0.106399  0  3.92397  0
C  C162  1  0.47002750  0.09896208  0.40094587  1  0.473376  0  0.055237  0.106377  0  3.924255  0
C  C163  1  0.93091979  0.80158619  0.40072212  1  0.472296  0  0.055771  0.106869  0  3.923504  0
C  C164  1  0.80158952  0.93091894  0.90071830  1  0.471912  0  0.055851  0.107033  0  3.923305  0
C  C165  1  0.09896310  0.47003086  0.90094885  1  0.473372  0  0.05519  0.106314  0  3.924087  0
C  C166  1  0.52997082  0.90103446  0.59905003  1  0.472761  0  0.055241  0.106412  0  3.923974  0
C  C167  1  0.06908059  0.19841147  0.59928180  1  0.471717  0  0.055866  0.107071  0  3.9233  0
C  C168  1  0.28297976  0.06055739  0.14279239  1  0.022902  0  -0.079933  -0.173759  0  3.95228  0
C  C169  1  0.86007870  0.58195304  0.14261826  1  -0.082127  0  -0.079022  -0.171938  0  3.9566  0
C  C170  1  0.41804625  0.13992203  0.35738253  1  -0.082197  0  -0.07898  -0.17186  0  3.956751  0
C  C171  1  0.93944613  0.71702027  0.35721202  1  0.023228  0  -0.079922  -0.173588  0  3.95212  0
C  C172  1  0.71701961  0.93944375  0.85720528  1  0.023026  0  -0.079951  -0.173781  0  3.952345  0
C  C173  1  0.13992212  0.41804811  0.85738533  1  -0.082204  0  -0.078947  -0.171807  0  3.956538  0
C  C174  1  0.58195698  0.86007684  0.64261601  1  -0.082184  0  -0.078914  -0.17175  0  3.956577  0
C  C175  1  0.06055522  0.28297859  0.64279137  1  0.023406  0  -0.079958  -0.173742  0  3.95222  0
C  C176  1  0.28564347  0.97285883  0.15992721  1  -0.033902  0  0.016018  0.102662  0  3.976047  0
C  C177  1  0.87461803  0.68682258  0.15982351  1  0.05349  0  0.016231  0.102539  0  3.977469  0
C  C178  1  0.31317683  0.12538400  0.34017706  1  0.053497  0  0.016264  0.102523  0  3.977461  0
C  C179  1  0.02714323  0.71435652  0.34007574  1  -0.034484  0  0.016034  0.102815  0  3.975885  0
C  C180  1  0.71435916  0.02714214  0.84007222  1  -0.034032  0  0.016077  0.102709  0  3.976055  0
C  C181  1  0.12538267  0.31317806  0.84017772  1  0.053469  0  0.01628  0.102555  0  3.977316  0
C  C182  1  0.68682133  0.87461717  0.65982089  1  0.053387  0  0.016226  0.102457  0  3.977559  0
C  C183  1  0.97285673  0.28564168  0.65992627  1  -0.034404  0  0.016045  0.102692  0  3.97608  0
C  C184  1  0.20006556  0.89758421  0.13303857  1  0.002679  0  -0.073551  -0.156772  0  3.912697  0
C  C185  1  0.93324025  0.73528861  0.13298699  1  -0.019254  0  -0.073737  -0.157102  0  3.914512  0
C  C186  1  0.26471103  0.06676168  0.36701480  1  -0.019255  0  -0.073744  -0.157021  0  3.914535  0
C  C187  1  0.10241424  0.79993470  0.36696333  1  0.002827  0  -0.073547  -0.156797  0  3.912597  0
C  C188  1  0.79993737  0.10241473  0.86696191  1  0.002822  0  -0.073622  -0.156894  0  3.912905  0
C  C189  1  0.06675584  0.26470977  0.86701340  1  -0.019272  0  -0.073776  -0.157102  0  3.914603  0
C  C190  1  0.73528852  0.93324015  0.63298454  1  -0.019267  0  -0.07376  -0.157087  0  3.91453  0
C  C191  1  0.89758718  0.20006532  0.63303788  1  0.002666  0  -0.073581  -0.156813  0  3.912829  0
C  C192  1  0.11842494  0.91197789  0.09006680  1  0.50771  0  0.055048  0.105088  0  3.924598  0
C  C193  1  0.97184507  0.67797768  0.08997602  1  0.461332  0  0.054741  0.104482  0  3.923576  0
C  C194  1  0.32201995  0.02815960  0.41002608  1  0.461597  0  0.054678  0.104383  0  3.923772  0
C  C195  1  0.08802287  0.88157621  0.40993509  1  0.507818  0  0.055122  0.105177  0  3.924541  0
C  C196  1  0.88157588  0.08802409  0.90993157  1  0.507786  0  0.055082  0.105145  0  3.924826  0
C  C197  1  0.02815555  0.32201762  0.91002590  1  0.460803  0  0.054716  0.104434  0  3.923619  0
C  C198  1  0.67797771  0.97183887  0.58997139  1  0.461407  0  0.054634  0.104306  0  3.923815  0
C  C199  1  0.91197655  0.11842428  0.59006712  1  0.508323  0  0.055081  0.105111  0  3.924867  0
C  C200  1  0.37561411  0.95959116  0.20408350  1  0.002637  0  0.021904  0.114436  0  3.967046  0
C  C201  1  0.82882956  0.74425721  0.20397482  1  -0.036698  0  0.021689  0.11368  0  3.964785  0
C  C202  1  0.25574486  0.17117143  0.29602551  1  -0.036636  0  0.021708  0.113674  0  3.964824  0
C  C203  1  0.04041026  0.62438769  0.29591902  1  0.002527  0  0.0219  0.114295  0  3.966938  0
C  C204  1  0.62438435  0.04041105  0.79591475  1  0.002254  0  0.021844  0.114474  0  3.967022  0
C  C205  1  0.17116841  0.25574244  0.79602669  1  -0.036341  0  0.02168  0.113707  0  3.964714  0
C  C206  1  0.74425638  0.82883098  0.70397328  1  -0.036576  0  0.021677  0.113655  0  3.964687  0
C  C207  1  0.95959009  0.37561592  0.70408409  1  0.003443  0  0.021886  0.114393  0  3.967024  0
C  C208  1  0.47126126  0.00890258  0.21088454  1  -0.030515  0  -0.077553  -0.172603  0  3.943418  0
C  C209  1  0.74007879  0.70168431  0.21080160  1  -0.045983  0  -0.077731  -0.17238  0  3.945826  0
C  C210  1  0.29831865  0.25992445  0.28919929  1  -0.046538  0  -0.077776  -0.17247  0  3.945936  0
C  C211  1  0.99109958  0.52873581  0.28911617  1  -0.030306  0  -0.077556  -0.172474  0  3.943574  0
C  C212  1  0.52874132  0.99110030  0.78911632  1  -0.03051  0  -0.077537  -0.172591  0  3.943558  0
C  C213  1  0.25992245  0.29831615  0.78920018  1  -0.046329  0  -0.077794  -0.172565  0  3.945948  0
C  C214  1  0.70168308  0.74007647  0.71079849  1  -0.046123  0  -0.077696  -0.172385  0  3.945917  0
C  C215  1  0.00889796  0.47126341  0.71088492  1  -0.031235  0  -0.077518  -0.172509  0  3.943766  0
C  C216  1  0.55417656  0.99635144  0.25372721  1  0.450927  0  0.05142  0.09401  0  3.954764  0
C  C217  1  0.69997219  0.75712697  0.25360461  1  0.487897  0  0.051777  0.094557  0  3.95455  0
C  C218  1  0.24287802  0.30002714  0.24639562  1  0.487997  0  0.051803  0.094623  0  3.954525  0
C  C219  1  0.00365248  0.44582493  0.24627458  1  0.450626  0  0.051449  0.094014  0  3.954919  0
C  C220  1  0.44582402  0.00365080  0.74627241  1  0.450993  0  0.051389  0.093846  0  3.954831  0
C  C221  1  0.30002669  0.24287371  0.74639706  1  0.488382  0  0.051808  0.094699  0  3.954605  0
C  C222  1  0.75712430  0.69997167  0.75360127  1  0.488662  0  0.051777  0.094636  0  3.954444  0
C  C223  1  0.99634719  0.55417531  0.75372638  1  0.450779  0  0.0514  0.093883  0  3.954908  0
C  C224  1  0.45573735  0.88886719  0.28296726  1  0.43302  0  0.056982  0.102218  0  3.886304  0
C  C225  1  0.82747479  0.89405020  0.28271048  1  0.431997  0  0.056331  0.102131  0  3.887923  0
C  C226  1  0.10595500  0.17252574  0.21729005  1  0.431834  0  0.056299  0.102141  0  3.888114  0
C  C227  1  0.11113719  0.54426646  0.21703509  1  0.432586  0  0.057086  0.102564  0  3.886193  0
C  C228  1  0.54426311  0.11113357  0.71703150  1  0.433027  0  0.056977  0.102255  0  3.886158  0
C  C229  1  0.17252149  0.10595082  0.71728859  1  0.431963  0  0.056255  0.102119  0  3.88805  0
C  C230  1  0.89404824  0.82747522  0.78270924  1  0.431993  0  0.056229  0.101971  0  3.888098  0
C  C231  1  0.88886387  0.45573443  0.78296725  1  0.43277  0  0.057043  0.102361  0  3.886181  0
C  C232  1  0.36941837  0.89796573  0.24098615  1  0.022731  0  -0.065109  -0.138912  0  3.894103  0
C  C233  1  0.87181421  0.84291384  0.24076721  1  0.03601  0  -0.065344  -0.138717  0  3.89199  0
C  C234  1  0.15708764  0.12818703  0.25923266  1  0.03594  0  -0.065368  -0.138753  0  3.892239  0
C  C235  1  0.10203700  0.63058336  0.25901536  1  0.023082  0  -0.065141  -0.139075  0  3.894034  0
C  C236  1  0.63058244  0.10203319  0.75901297  1  0.023132  0  -0.065102  -0.138946  0  3.894152  0
C  C237  1  0.12818527  0.15708571  0.75923207  1  0.035563  0  -0.065326  -0.138665  0  3.892188  0
C  C238  1  0.84291483  0.87181647  0.74076808  1  0.035994  0  -0.065369  -0.138688  0  3.892099  0
C  C239  1  0.89796538  0.36941689  0.74098681  1  0.022876  0  -0.065097  -0.138879  0  3.894142  0
S  S240  1  0.84484895  0.95733969  0.07795660  1  3.196662  0  0.49322  1.152889  0  6.239306  0
S  S241  1  0.23291904  0.62095119  0.07802384  1  3.189213  0  0.492766  1.153723  0  6.236469  0
S  S242  1  0.37905412  0.76708285  0.42197932  1  3.189099  0  0.492799  1.153764  0  6.236395  0
S  S243  1  0.04266290  0.15515628  0.42204852  1  3.19676  0  0.493179  1.152922  0  6.23926  0
S  S244  1  0.15514878  0.04266008  0.92204243  1  3.196961  0  0.493292  1.153061  0  6.239053  0
S  S245  1  0.76707856  0.37904724  0.92197806  1  3.189231  0  0.492774  1.153746  0  6.236931  0
S  S246  1  0.62094815  0.23291787  0.57801900  1  3.189296  0  0.492779  1.153925  0  6.236209  0
S  S247  1  0.95734143  0.84484430  0.57795185  1  3.196748  0  0.493293  1.153088  0  6.239142  0
N  N248  1  0.11784924  0.99534883  0.07293660  1  -1.260581  0  -0.322543  -0.222099  0  3.560552  0
N  N249  1  0.95519881  0.57745889  0.07277066  1  -1.210929  0  -0.322035  -0.219357  0  3.560221  0
N  N250  1  0.42254164  0.04480715  0.42723219  1  -1.211177  0  -0.321974  -0.219315  0  3.560396  0
N  N251  1  0.00465362  0.88215156  0.42706508  1  -1.260754  0  -0.32261  -0.222154  0  3.560556  0
N  N252  1  0.88215242  0.00465190  0.92706186  1  -1.261231  0  -0.322562  -0.222123  0  3.560642  0
N  N253  1  0.04480685  0.42254232  0.92723552  1  -1.211076  0  -0.321905  -0.219241  0  3.559991  0
N  N254  1  0.57746097  0.95518852  0.57276351  1  -1.210929  0  -0.321921  -0.219286  0  3.56013  0
N  N255  1  0.99534639  0.11784585  0.57293773  1  -1.260973  0  -0.322555  -0.22214  0  3.560613  0
N  N256  1  0.54667918  0.93769453  0.28939334  1  -1.243179  0  -0.330692  -0.239818  0  3.592815  0
N  N257  1  0.74307570  0.85156985  0.28921337  1  -1.265141  0  -0.330988  -0.240645  0  3.591735  0
N  N258  1  0.14843659  0.25692454  0.21078573  1  -1.26497  0  -0.330946  -0.240643  0  3.591591  0
N  N259  1  0.06231113  0.45332105  0.21060888  1  -1.242619  0  -0.330792  -0.240047  0  3.592933  0
N  N260  1  0.45331989  0.06230669  0.71060627  1  -1.243199  0  -0.33064  -0.239696  0  3.592741  0
N  N261  1  0.25692307  0.14843242  0.71078668  1  -1.265047  0  -0.330964  -0.240694  0  3.591556  0
N  N262  1  0.85156820  0.74307343  0.78921139  1  -1.265084  0  -0.330912  -0.240603  0  3.591531  0
N  N263  1  0.93768981  0.54668046  0.78939334  1  -1.242899  0  -0.330759  -0.239906  0  3.592769  0
O  O264  1  0.98690661  0.14224172  0.05801191  1  -1.178074  0  -0.300383  -0.545559  0  2.327143  0
O  O265  1  0.07128413  0.41584902  0.05829463  1  -1.176803  0  -0.301458  -0.547479  0  2.324818  0
O  O266  1  0.58414875  0.92872074  0.44170643  1  -1.176574  0  -0.301485  -0.547497  0  2.324679  0
O  O267  1  0.85776315  0.01309791  0.44198767  1  -1.178067  0  -0.300345  -0.545528  0  2.327319  0
O  O268  1  0.01309530  0.85775988  0.94198754  1  -1.177993  0  -0.300389  -0.545476  0  2.327214  0
O  O269  1  0.92871717  0.58415357  0.94170348  1  -1.176908  0  -0.301446  -0.547454  0  2.324865  0
O  O270  1  0.41584069  0.07128055  0.55828732  1  -1.176758  0  -0.301446  -0.54738  0  2.324806  0
O  O271  1  0.14223864  0.98690333  0.55801316  1  -1.178069  0  -0.300395  -0.545521  0  2.327228  0
O  O272  1  0.93182051  0.26432167  0.11554954  1  -1.158187  0  -0.323176  -0.530952  0  2.292173  0
O  O273  1  0.18383640  0.35070507  0.11547306  1  -1.15867  0  -0.323799  -0.533102  0  2.294326  0
O  O274  1  0.64929291  0.81616682  0.38452495  1  -1.1587  0  -0.323797  -0.533081  0  2.294378  0
O  O275  1  0.73568233  0.06818271  0.38445020  1  -1.158214  0  -0.323279  -0.531132  0  2.292087  0
O  O276  1  0.06818319  0.73567487  0.88445322  1  -1.158193  0  -0.323157  -0.53091  0  2.292169  0
O  O277  1  0.81616351  0.64929603  0.88452889  1  -1.158709  0  -0.323815  -0.533074  0  2.29443  0
O  O278  1  0.35069755  0.18383070  0.61546759  1  -1.158949  0  -0.323857  -0.533048  0  2.29438  0
O  O279  1  0.26432005  0.93181545  0.61555123  1  -1.158058  0  -0.323209  -0.531028  0  2.291968  0
O  O280  1  0.91604108  0.02264157  0.13597092  1  -1.349309  0  -0.358301  -0.606337  0  2.190795  0
O  O281  1  0.21961207  0.61398997  0.13603354  1  -1.337716  0  -0.357699  -0.606531  0  2.188349  0
O  O282  1  0.38601351  0.78038731  0.36396691  1  -1.337671  0  -0.357743  -0.606594  0  2.188224  0
O  O283  1  0.97735301  0.08396167  0.36403277  1  -1.349061  0  -0.358369  -0.60648  0  2.190558  0
O  O284  1  0.08395584  0.97735348  0.86402882  1  -1.349351  0  -0.358317  -0.606398  0  2.190724  0
O  O285  1  0.78038475  0.38600877  0.86396533  1  -1.337615  0  -0.357703  -0.606547  0  2.188205  0
O  O286  1  0.61399093  0.21961041  0.63602910  1  -1.33793  0  -0.357718  -0.606596  0  2.188142  0
O  O287  1  0.02265272  0.91604264  0.63596824  1  -1.349155  0  -0.358418  -0.606545  0  2.190408  0
O  O288  1  0.89519378  0.91340623  0.03117220  1  -1.326519  0  -0.350592  -0.628735  0  2.291221  0
O  O289  1  0.13583129  0.61791836  0.03111423  1  -1.328968  0  -0.350302  -0.629064  0  2.291906  0
O  O290  1  0.38208843  0.86416947  0.46888772  1  -1.329011  0  -0.350252  -0.629059  0  2.292083  0
O  O291  1  0.08659658  0.10480811  0.46883103  1  -1.32641  0  -0.35052  -0.628592  0  2.291242  0
O  O292  1  0.10480299  0.08659427  0.96882437  1  -1.326733  0  -0.350595  -0.628777  0  2.291264  0
O  O293  1  0.86416641  0.38207527  0.96888629  1  -1.328981  0  -0.350291  -0.629078  0  2.29206  0
O  O294  1  0.61791746  0.13582909  0.53110899  1  -1.328897  0  -0.350278  -0.629107  0  2.29186  0
O  O295  1  0.91340508  0.89519179  0.53117267  1  -1.326311  0  -0.350595  -0.628682  0  2.291301  0
O  O296  1  0.77604513  0.88067312  0.08483425  1  -1.336162  0  -0.349197  -0.596097  0  2.187373  0
O  O297  1  0.30862923  0.70446528  0.08486439  1  -1.336267  0  -0.348982  -0.596475  0  2.189678  0
O  O298  1  0.29553564  0.69137430  0.41514133  1  -1.336156  0  -0.34899  -0.596431  0  2.189556  0
O  O299  1  0.11932893  0.22395613  0.41517007  1  -1.336541  0  -0.34911  -0.596068  0  2.187398  0
O  O300  1  0.22394921  0.11932631  0.91516066  1  -1.33614  0  -0.349225  -0.596126  0  2.1873  0
O  O301  1  0.69137236  0.29553026  0.91513850  1  -1.336295  0  -0.348997  -0.59645  0  2.189969  0
O  O302  1  0.70446312  0.30862686  0.58485648  1  -1.336238  0  -0.348965  -0.596495  0  2.189546  0
O  O303  1  0.88068014  0.77603804  0.58483134  1  -1.336447  0  -0.349134  -0.596076  0  2.18741  0
