# generated using pymatgen
data_CoH18C12O7
_symmetry_space_group_name_H-M   'P 1'
_cell_length_a   7.80948242
_cell_length_b   22.16033083
_cell_length_c   22.16028976
_cell_angle_alpha   89.99999853
_cell_angle_beta   89.99996363
_cell_angle_gamma   89.99980709
_symmetry_Int_Tables_number   1
_chemical_formula_structural   CoH18C12O7
_chemical_formula_sum   'Co8 H144 C96 O56'
_cell_volume   3835.07557149
_cell_formula_units_Z   8
loop_
 _symmetry_equiv_pos_site_id
 _symmetry_equiv_pos_as_xyz
  1  'x, y, z'
loop_
 _atom_site_type_symbol
 _atom_site_label
 _atom_site_symmetry_multiplicity
 _atom_site_fract_x
 _atom_site_fract_y
 _atom_site_fract_z
 _atom_site_occupancy
 _atom_site_pbe_bader_charge
 _atom_site_pbe_bader_spin_density
 _atom_site_pbe_cm5_charge
 _atom_site_pbe_ddec_charge
 _atom_site_pbe_ddec_spin_density
 _atom_site_pbe_ddec_sum_bond_order
 _atom_site_pbe_magmom
Co  Co0  1  0.76337007  0.25590998  0.75518273  1  1.307258  2.641516  0.631634  1.085092  2.818519  2.188314  2.628
Co  Co1  1  0.76336436  0.74408952  0.24481665  1  1.307246  2.641507  0.631571  1.085073  2.818513  2.188438  2.628
Co  Co2  1  0.23663113  0.75518036  0.74408906  1  1.307238  2.641507  0.631605  1.085046  2.818519  2.188364  2.628
Co  Co3  1  0.23663400  0.24481660  0.25591088  1  1.307257  2.641513  0.631574  1.085044  2.818517  2.188351  2.628
Co  Co4  1  0.73663257  0.24409023  0.25518205  1  1.307227  2.641508  0.631632  1.085166  2.818517  2.188246  2.628
Co  Co5  1  0.73663481  0.75591020  0.74481643  1  1.307224  2.641508  0.631628  1.085096  2.818512  2.188486  2.628
Co  Co6  1  0.26336323  0.74481589  0.24408883  1  1.307241  2.641512  0.631622  1.085126  2.818516  2.188271  2.628
Co  Co7  1  0.26337279  0.25518059  0.75591201  1  1.307334  2.641515  0.631613  1.085067  2.818518  2.188268  2.628
H  H8  1  0.98557514  0.34733041  0.75777653  1  0.659818  0.000561  0.293938  0.390359  2.6e-05  0.955402  0.001
H  H9  1  0.98557031  0.65266882  0.24222280  1  0.659834  0.00056  0.293932  0.390415  2.6e-05  0.955321  0.001
H  H10  1  0.01442569  0.75777477  0.65266745  1  0.659822  0.000561  0.293963  0.39043  2.6e-05  0.9553  0.001
H  H11  1  0.01442842  0.24222291  0.34733119  1  0.659834  0.00056  0.293957  0.39043  2.6e-05  0.955304  0.001
H  H12  1  0.51443390  0.15266934  0.25777680  1  0.659852  0.00056  0.29396  0.390466  2.6e-05  0.955253  0.001
H  H13  1  0.51442887  0.84732909  0.74222263  1  0.659834  0.000561  0.293964  0.390403  2.6e-05  0.95535  0.001
H  H14  1  0.48556755  0.74222419  0.15266897  1  0.659849  0.00056  0.293953  0.390441  2.6e-05  0.955281  0.001
H  H15  1  0.48557436  0.25777654  0.84733408  1  0.659804  0.00056  0.293937  0.390414  2.6e-05  0.955326  0.001
H  H16  1  0.82034005  0.36884463  0.72016783  1  0.605995  0.001461  0.334125  0.413774  0.000736  0.85559  0.001
H  H17  1  0.82033535  0.63115660  0.27983288  1  0.606181  0.00146  0.334124  0.413843  0.000736  0.855489  0.001
H  H18  1  0.17966347  0.72016603  0.63115372  1  0.605921  0.00146  0.33413  0.413814  0.000736  0.855488  0.001
H  H19  1  0.17966325  0.27983235  0.36884488  1  0.605974  0.00146  0.334164  0.413872  0.000735  0.855508  0.001
H  H20  1  0.67967162  0.13115738  0.22016762  1  0.606332  0.001459  0.334178  0.413886  0.000736  0.855486  0.001
H  H21  1  0.67966503  0.86884221  0.77983132  1  0.6062  0.001459  0.33414  0.413787  0.000736  0.85563  0.001
H  H22  1  0.32032981  0.77983338  0.13115754  1  0.606173  0.001459  0.334154  0.413835  0.000735  0.85552  0.001
H  H23  1  0.32033950  0.22016348  0.86884420  1  0.606111  0.001459  0.334148  0.413807  0.000735  0.85551  0.001
H  H24  1  0.54203575  0.16240293  0.75170807  1  0.679642  0.000796  0.293988  0.393034  0.000216  0.950633  0.001
H  H25  1  0.54203042  0.83759638  0.24829452  1  0.679622  0.000796  0.293972  0.393075  0.000216  0.950708  0.001
H  H26  1  0.45796711  0.75170736  0.83759549  1  0.679635  0.000796  0.293995  0.393089  0.000216  0.950698  0.001
H  H27  1  0.45797012  0.24829295  0.16240351  1  0.679628  0.000796  0.293966  0.393016  0.000216  0.950797  0.001
H  H28  1  0.95796434  0.33759592  0.25170734  1  0.679632  0.000796  0.293991  0.393061  0.000216  0.950759  0.001
H  H29  1  0.95796490  0.66240199  0.74829154  1  0.679642  0.000796  0.293991  0.39301  0.000216  0.950673  0.001
H  H30  1  0.04203092  0.74829295  0.33759620  1  0.679611  0.000796  0.293969  0.393007  0.000216  0.950819  0.001
H  H31  1  0.04203684  0.25170650  0.66240514  1  0.679653  0.000796  0.293989  0.393077  0.000216  0.950744  0.001
H  H32  1  0.72026917  0.13678678  0.77883089  1  0.634964  0.001656  0.333915  0.417184  0.000888  0.855806  0.001
H  H33  1  0.72026493  0.86321367  0.22117120  1  0.635012  0.001656  0.333892  0.417211  0.000888  0.855685  0.001
H  H34  1  0.27973235  0.77882845  0.86321430  1  0.634996  0.001656  0.333957  0.417233  0.000888  0.855728  0.001
H  H35  1  0.27973567  0.22116982  0.13678518  1  0.634964  0.001656  0.33389  0.417198  0.000888  0.855703  0.001
H  H36  1  0.77973087  0.36321433  0.27883155  1  0.634935  0.001657  0.333912  0.417168  0.000888  0.855807  0.001
H  H37  1  0.77972916  0.63678605  0.72116827  1  0.63493  0.001656  0.33392  0.417172  0.000888  0.855821  0.001
H  H38  1  0.22026691  0.72117051  0.36321453  1  0.634976  0.001656  0.333918  0.41717  0.000888  0.855807  0.001
H  H39  1  0.22026877  0.27883234  0.63678813  1  0.634964  0.001656  0.333938  0.417234  0.000888  0.855744  0.001
H  H40  1  0.03154598  0.18160105  0.77822944  1  0.66689  4e-05  0.285066  0.371089  8.3e-05  0.986462  0.0
H  H41  1  0.03154600  0.81839796  0.22177687  1  0.666898  4e-05  0.28504  0.371038  8.3e-05  0.986551  0.0
H  H42  1  0.96845538  0.77822290  0.81839848  1  0.666883  4e-05  0.285061  0.371062  8.3e-05  0.986494  0.0
H  H43  1  0.96845476  0.22177499  0.18160221  1  0.666898  4e-05  0.285046  0.371038  8.3e-05  0.986551  0.0
H  H44  1  0.46844541  0.31839704  0.27822826  1  0.666899  4e-05  0.285087  0.371084  8.2e-05  0.986473  0.0
H  H45  1  0.46845608  0.68160371  0.72177750  1  0.666922  4e-05  0.285091  0.371123  8.2e-05  0.986402  0.0
H  H46  1  0.53154494  0.72177230  0.31839559  1  0.666931  4e-05  0.28508  0.371103  8.2e-05  0.98643  0.0
H  H47  1  0.53155313  0.27822341  0.68160294  1  0.66684  4e-05  0.285101  0.371122  8.3e-05  0.986412  0.0
H  H48  1  0.99439949  0.23579687  0.83003326  1  0.633205  3.7e-05  0.285579  0.373505  6.2e-05  0.982302  0.0
H  H49  1  0.99439501  0.76420821  0.16996923  1  0.633328  3.7e-05  0.285629  0.373582  6.2e-05  0.982195  0.0
H  H50  1  0.00560136  0.83002866  0.76420389  1  0.633337  3.7e-05  0.285648  0.373562  6.2e-05  0.982226  0.0
H  H51  1  0.00560242  0.16996812  0.23579339  1  0.633319  3.7e-05  0.285615  0.373549  6.2e-05  0.98223  0.0
H  H52  1  0.50560045  0.26420288  0.33003263  1  0.633291  3.7e-05  0.285602  0.373557  6.2e-05  0.982238  0.0
H  H53  1  0.50560046  0.73579466  0.66996816  1  0.633303  3.7e-05  0.285613  0.373588  6.2e-05  0.982174  0.0
H  H54  1  0.49439553  0.66996533  0.26420316  1  0.633207  3.7e-05  0.285577  0.373492  6.2e-05  0.982319  0.0
H  H55  1  0.49440569  0.33003042  0.73579763  1  0.633308  3.7e-05  0.285625  0.373563  6.2e-05  0.98222  0.0
H  H56  1  0.61454733  0.26387340  0.50539404  1  0.112216  4.4e-05  0.107572  0.110595  -1.4e-05  1.020673  0.0
H  H57  1  0.61452460  0.73613079  0.49460311  1  0.112041  4.4e-05  0.107502  0.110428  -1.4e-05  1.020722  0.0
H  H58  1  0.38546677  0.50539204  0.73612751  1  0.112034  4.4e-05  0.107517  0.110492  -1.4e-05  1.020699  0.0
H  H59  1  0.38545957  0.49460385  0.26386834  1  0.112218  4.4e-05  0.107535  0.110474  -1.4e-05  1.020664  0.0
H  H60  1  0.88546600  0.23613674  0.00539468  1  0.112243  4.4e-05  0.10753  0.110535  -1.4e-05  1.020623  0.0
H  H61  1  0.88546387  0.76387434  0.99460376  1  0.112104  4.4e-05  0.107532  0.110463  -1.4e-05  1.020726  0.0
H  H62  1  0.11454041  0.99460286  0.23612414  1  0.112229  4.4e-05  0.10753  0.110522  -1.4e-05  1.020737  0.0
H  H63  1  0.11453440  0.00539109  0.76387493  1  0.112098  4.4e-05  0.107496  0.110485  -1.4e-05  1.020703  0.0
H  H64  1  0.99899463  0.16449243  0.40870889  1  0.082424  0.000357  0.108521  0.112702  0.000151  1.032437  0.0
H  H65  1  0.99898486  0.83550452  0.59129088  1  0.08236  0.000357  0.108514  0.112644  0.000151  1.032431  0.0
H  H66  1  0.00101145  0.40871004  0.83550757  1  0.08232  0.000357  0.108516  0.112684  0.000151  1.032431  0.0
H  H67  1  0.00099966  0.59128855  0.16449243  1  0.082445  0.000357  0.108523  0.112723  0.000151  1.032431  0.0
H  H68  1  0.50099493  0.33551002  0.90871143  1  0.08281  0.000357  0.108531  0.11272  0.000151  1.03233  0.0
H  H69  1  0.50100562  0.66449655  0.09128800  1  0.082286  0.000357  0.108543  0.112697  0.000151  1.032468  0.0
H  H70  1  0.49899776  0.09128940  0.33550187  1  0.082403  0.000357  0.108512  0.112651  0.000151  1.032503  0.0
H  H71  1  0.49899356  0.90870770  0.66449531  1  0.082281  0.000358  0.108506  0.112653  0.000151  1.032408  0.0
H  H72  1  0.01679231  0.17411471  0.60244474  1  0.092743  0.000378  0.107492  0.110646  0.000155  1.021563  0.0
H  H73  1  0.01678299  0.82588341  0.39755661  1  0.092645  0.000378  0.1075  0.110584  0.000155  1.021685  0.0
H  H74  1  0.98321391  0.60244393  0.82587988  1  0.092543  0.000378  0.107443  0.110528  0.000155  1.021599  0.0
H  H75  1  0.98321291  0.39755395  0.17411358  1  0.092709  0.000378  0.107507  0.110688  0.000155  1.021576  0.0
H  H76  1  0.48321988  0.32588970  0.10244671  1  0.093236  0.000378  0.107516  0.110703  0.000155  1.02162  0.0
H  H77  1  0.48322134  0.67411734  0.89755454  1  0.092593  0.000378  0.10751  0.110633  0.000155  1.021646  0.0
H  H78  1  0.51678512  0.89755578  0.32588421  1  0.092457  0.000378  0.107497  0.110597  0.000155  1.021665  0.0
H  H79  1  0.51677963  0.10244175  0.67412064  1  0.092169  0.000378  0.107472  0.110613  0.000155  1.02159  0.0
H  H80  1  0.34918813  0.21107154  0.50382776  1  0.046004  5.9e-05  0.083876  0.119931  3.7e-05  1.014457  0.0
H  H81  1  0.34917770  0.78892438  0.49617216  1  0.045927  5.9e-05  0.083819  0.119923  3.7e-05  1.014406  0.0
H  H82  1  0.65081978  0.50382511  0.78892733  1  0.045949  5.9e-05  0.083825  0.119913  3.7e-05  1.014408  0.0
H  H83  1  0.65081010  0.49617181  0.21106981  1  0.046055  5.9e-05  0.083874  0.119968  3.7e-05  1.014464  0.0
H  H84  1  0.15082295  0.28893197  0.00382710  1  0.046109  5.9e-05  0.083864  0.119977  3.7e-05  1.014474  0.0
H  H85  1  0.15082645  0.71107412  0.99617197  1  0.045974  5.9e-05  0.083822  0.119906  3.7e-05  1.014462  0.0
H  H86  1  0.84918443  0.99617189  0.28892797  1  0.046007  5.9e-05  0.083852  0.119914  3.7e-05  1.014457  0.0
H  H87  1  0.84917853  0.00382208  0.71107499  1  0.045867  5.9e-05  0.083864  0.119952  3.7e-05  1.014425  0.0
H  H88  1  0.46195005  0.14730167  0.53088786  1  0.013243  2.5e-05  0.084842  0.121237  4e-06  1.025731  0.0
H  H89  1  0.46194162  0.85269412  0.46911249  1  0.013408  2.5e-05  0.084869  0.121278  4e-06  1.02575  0.0
H  H90  1  0.53805540  0.53088615  0.85269636  1  0.01334  2.5e-05  0.08487  0.121254  4e-06  1.025745  0.0
H  H91  1  0.53804737  0.46911361  0.14729990  1  0.013178  2.5e-05  0.084847  0.121272  4e-06  1.025781  0.0
H  H92  1  0.03805331  0.35269868  0.03088767  1  0.013268  2.5e-05  0.084863  0.121285  4e-06  1.025779  0.0
H  H93  1  0.03805746  0.64730573  0.96911141  1  0.013407  2.5e-05  0.084876  0.121292  4e-06  1.025707  0.0
H  H94  1  0.96194741  0.96911266  0.35269789  1  0.013266  2.5e-05  0.084882  0.12128  4e-06  1.025746  0.0
H  H95  1  0.96194394  0.03088344  0.64730776  1  0.01337  2.5e-05  0.084854  0.121297  4e-06  1.025755  0.0
H  H96  1  0.31225105  0.18416583  0.57851947  1  0.030144  0.000226  0.081599  0.117339  8.3e-05  1.037359  0.0
H  H97  1  0.31224049  0.81583239  0.42148181  1  0.030188  0.000226  0.081587  0.117332  8.3e-05  1.037416  0.0
H  H98  1  0.68775143  0.57851802  0.81583176  1  0.030216  0.000226  0.081553  0.117258  8.3e-05  1.037444  0.0
H  H99  1  0.68774251  0.42148111  0.18416312  1  0.030171  0.000226  0.081579  0.117314  8.3e-05  1.037451  0.0
H  H100  1  0.18775222  0.31583633  0.07851971  1  0.030144  0.000226  0.081599  0.117348  8.3e-05  1.037358  0.0
H  H101  1  0.18775867  0.68416836  0.92148115  1  0.030151  0.000226  0.081571  0.117322  8.3e-05  1.037398  0.0
H  H102  1  0.81224761  0.92148079  0.31583557  1  0.030145  0.000226  0.081595  0.117339  8.3e-05  1.037384  0.0
H  H103  1  0.81224874  0.07851458  0.68417147  1  0.030022  0.000226  0.081604  0.117342  8.3e-05  1.037342  0.0
H  H104  1  0.29879244  0.04827391  0.55060829  1  0.019267  8e-06  0.085578  0.120745  -1e-06  1.025199  0.0
H  H105  1  0.29879591  0.95172207  0.44939480  1  0.018538  8e-06  0.085623  0.120781  -1e-06  1.025176  0.0
H  H106  1  0.70120688  0.55060778  0.95172438  1  0.018488  8e-06  0.085591  0.120796  -1e-06  1.025141  0.0
H  H107  1  0.70120049  0.44939495  0.04827230  1  0.019167  8e-06  0.085608  0.12079  -1e-06  1.025136  0.0
H  H108  1  0.20119807  0.45172960  0.05060581  1  0.019498  8e-06  0.085591  0.120813  -1e-06  1.025138  0.0
H  H109  1  0.20121217  0.54827643  0.94939414  1  0.018528  8e-06  0.085623  0.120821  -1e-06  1.025154  0.0
H  H110  1  0.79879192  0.94939464  0.45172639  1  0.019003  8e-06  0.085586  0.12079  -1e-06  1.025183  0.0
H  H111  1  0.79879740  0.05060481  0.54827839  1  0.018501  8e-06  0.085622  0.120792  -1e-06  1.025158  0.0
H  H112  1  0.07848723  0.04247585  0.53176695  1  0.020623  1e-06  0.08202  0.108991  -1e-06  1.038289  0.0
H  H113  1  0.07848933  0.95752356  0.46823348  1  0.021024  1e-06  0.082009  0.108957  -1e-06  1.038249  0.0
H  H114  1  0.92151477  0.53176903  0.95752437  1  0.021137  1e-06  0.082024  0.10903  -1e-06  1.038296  0.0
H  H115  1  0.92150822  0.46823479  0.04247271  1  0.020849  1e-06  0.082013  0.10898  -1e-06  1.03826  0.0
H  H116  1  0.42150716  0.45753037  0.03176668  1  0.020629  1e-06  0.082021  0.108982  -1e-06  1.038217  0.0
H  H117  1  0.42151743  0.54247630  0.96823368  1  0.020988  1e-06  0.081999  0.109007  -1e-06  1.038233  0.0
H  H118  1  0.57848529  0.96823474  0.45752553  1  0.020742  1e-06  0.082021  0.109056  -1e-06  1.038214  0.0
H  H119  1  0.57848968  0.03176587  0.54247750  1  0.02104  1e-06  0.08203  0.108979  -1e-06  1.038208  0.0
H  H120  1  0.14447982  0.08633797  0.59483517  1  0.033482  6e-06  0.084844  0.116812  -1.8e-05  1.031472  0.0
H  H121  1  0.14448501  0.91366091  0.40516615  1  0.033389  6e-06  0.084837  0.116805  -1.8e-05  1.031488  0.0
H  H122  1  0.85551910  0.59483582  0.91366033  1  0.033446  6e-06  0.08483  0.116834  -1.8e-05  1.031451  0.0
H  H123  1  0.85550923  0.40516718  0.08633361  1  0.033396  6e-06  0.084871  0.116819  -1.8e-05  1.031579  0.0
H  H124  1  0.35550678  0.41366960  0.09483310  1  0.033311  6e-06  0.084865  0.116812  -1.8e-05  1.03164  0.0
H  H125  1  0.35551803  0.58633669  0.90516682  1  0.033482  6e-06  0.084858  0.116867  -1.8e-05  1.031565  0.0
H  H126  1  0.64448232  0.90516660  0.41366418  1  0.033434  6e-06  0.08484  0.116814  -1.8e-05  1.031581  0.0
H  H127  1  0.64448987  0.09483258  0.58633973  1  0.033312  6e-06  0.084876  0.116856  -1.8e-05  1.031594  0.0
H  H128  1  0.27757303  0.14484243  0.41347425  1  0.055914  8.9e-05  0.087972  0.129902  -0.0  1.009616  0.0
H  H129  1  0.27757461  0.85515719  0.58652658  1  0.055952  8.8e-05  0.087952  0.129861  -0.0  1.009655  0.0
H  H130  1  0.72243822  0.41347443  0.85515705  1  0.055874  8.8e-05  0.087942  0.129825  -0.0  1.009688  0.0
H  H131  1  0.72243163  0.58652646  0.14484008  1  0.055989  8.9e-05  0.08796  0.129865  -0.0  1.009675  0.0
H  H132  1  0.22242835  0.35516288  0.91347539  1  0.056109  8.9e-05  0.087949  0.129856  -0.0  1.009743  0.0
H  H133  1  0.22242772  0.64484358  0.08652456  1  0.05591  8.9e-05  0.087976  0.12987  -0.0  1.009644  0.0
H  H134  1  0.77757064  0.08652622  0.35515727  1  0.055902  8.9e-05  0.087944  0.129839  -0.0  1.009642  0.0
H  H135  1  0.77756260  0.91347145  0.64484030  1  0.055924  8.9e-05  0.087962  0.129814  -0.0  1.009781  0.0
H  H136  1  0.15532580  0.07747122  0.42298136  1  0.025777  1.4e-05  0.083675  0.115515  -6e-06  1.022138  0.0
H  H137  1  0.15532932  0.92252810  0.57701860  1  0.025804  1.4e-05  0.083675  0.115529  -6e-06  1.022171  0.0
H  H138  1  0.84468437  0.42298234  0.92252890  1  0.025811  1.4e-05  0.083672  0.115513  -6e-06  1.022102  0.0
H  H139  1  0.84468312  0.57701886  0.07746820  1  0.025794  1.4e-05  0.083662  0.115461  -6e-06  1.02208  0.0
H  H140  1  0.34467300  0.42253454  0.92298292  1  0.025945  1.4e-05  0.083717  0.115576  -6e-06  1.022047  0.0
H  H141  1  0.34467559  0.57747087  0.07701925  1  0.025783  1.4e-05  0.083678  0.115497  -6e-06  1.022138  0.0
H  H142  1  0.65531925  0.07702057  0.42252960  1  0.025732  1.4e-05  0.083656  0.115455  -6e-06  1.022115  0.0
H  H143  1  0.65531507  0.92298221  0.57747070  1  0.025719  1.4e-05  0.083644  0.115427  -6e-06  1.022139  0.0
H  H144  1  0.36995330  0.08061906  0.44829283  1  0.012269  1.2e-05  0.084424  0.114961  -2e-06  1.029011  0.0
H  H145  1  0.36995177  0.91937865  0.55170438  1  0.012331  1.2e-05  0.084461  0.115023  -2e-06  1.028978  0.0
H  H146  1  0.63005671  0.44829256  0.91938005  1  0.012377  1.2e-05  0.084446  0.115002  -2e-06  1.029033  0.0
H  H147  1  0.63005442  0.55170890  0.08061755  1  0.012329  1.2e-05  0.084436  0.114987  -2e-06  1.029028  0.0
H  H148  1  0.13004673  0.41938444  0.94829444  1  0.01223  1.2e-05  0.084399  0.114954  -2e-06  1.029014  0.0
H  H149  1  0.13005190  0.58062122  0.05170372  1  0.01235  1.2e-05  0.084428  0.114998  -2e-06  1.028998  0.0
H  H150  1  0.86994563  0.05170764  0.41938025  1  0.012334  1.2e-05  0.084429  0.114977  -2e-06  1.029057  0.0
H  H151  1  0.86994377  0.94829127  0.58062001  1  0.012434  1.2e-05  0.084432  0.114979  -2e-06  1.028995  0.0
C  C152  1  0.81056944  0.22188113  0.55979899  1  0.006033  0.004187  -0.025587  -0.054908  0.002259  4.020553  0.003
C  C153  1  0.81056049  0.77811921  0.44019811  1  0.006027  0.004186  -0.025523  -0.054592  0.002259  4.020421  0.003
C  C154  1  0.18943812  0.55979928  0.77811660  1  0.006024  0.004186  -0.025477  -0.054649  0.002259  4.020441  0.003
C  C155  1  0.18943151  0.44019864  0.22188065  1  0.006038  0.004186  -0.025564  -0.054963  0.002259  4.020462  0.003
C  C156  1  0.68944252  0.27812585  0.05980148  1  0.0062  0.004186  -0.025491  -0.054808  0.002259  4.02047  0.003
C  C157  1  0.68943704  0.72188411  0.94019791  1  0.005958  0.004186  -0.025524  -0.054782  0.002259  4.020505  0.003
C  C158  1  0.31056898  0.94019922  0.27811590  1  0.00604  0.004186  -0.025455  -0.054741  0.002259  4.020396  0.003
C  C159  1  0.31056382  0.05979855  0.72188764  1  0.006111  0.004186  -0.025428  -0.054588  0.002258  4.020343  0.003
C  C160  1  0.72998405  0.23645948  0.50534620  1  -0.023332  0.00203  -0.077564  -0.10992  0.001008  3.964456  0.001
C  C161  1  0.72996490  0.76354186  0.49465229  1  -0.023432  0.002031  -0.077561  -0.109863  0.001008  3.964279  0.001
C  C162  1  0.27002632  0.50534608  0.76353962  1  -0.023379  0.002031  -0.077586  -0.109965  0.001008  3.964309  0.001
C  C163  1  0.27002044  0.49464904  0.23645671  1  -0.023367  0.002031  -0.077563  -0.10975  0.001008  3.964027  0.001
C  C164  1  0.77002800  0.26354841  0.00534777  1  -0.024013  0.002032  -0.077627  -0.109915  0.001008  3.9642  0.001
C  C165  1  0.77002357  0.73646236  0.99465161  1  -0.023266  0.002031  -0.077513  -0.109811  0.001008  3.964339  0.001
C  C166  1  0.22998081  0.99465153  0.26353668  1  -0.023497  0.00203  -0.077575  -0.109982  0.001008  3.964468  0.001
C  C167  1  0.22997358  0.00534364  0.73646327  1  -0.023511  0.002031  -0.077534  -0.109904  0.001008  3.964265  0.001
C  C168  1  0.79967640  0.21611272  0.45111585  1  -0.090569  0.004391  -0.024028  -0.049931  0.002343  4.01315  0.003
C  C169  1  0.79965952  0.78388989  0.54888262  1  -0.089471  0.004391  -0.024026  -0.050092  0.002343  4.013082  0.003
C  C170  1  0.20032924  0.45111543  0.78388954  1  -0.0897  0.004391  -0.024034  -0.049954  0.002342  4.013115  0.003
C  C171  1  0.20032288  0.54888248  0.21610816  1  -0.08965  0.004391  -0.023905  -0.049771  0.002343  4.012755  0.003
C  C172  1  0.70033229  0.28389651  0.95111654  1  -0.088802  0.00439  -0.023912  -0.049714  0.002342  4.012858  0.003
C  C173  1  0.70032977  0.71611389  0.04888195  1  -0.089886  0.004391  -0.024063  -0.049937  0.002342  4.013081  0.003
C  C174  1  0.29967622  0.04888221  0.28388389  1  -0.090413  0.004392  -0.02399  -0.049889  0.002343  4.012979  0.003
C  C175  1  0.29966641  0.95111422  0.71611333  1  -0.090494  0.004391  -0.024051  -0.050087  0.002342  4.013248  0.003
C  C176  1  0.94813071  0.18034060  0.45151926  1  -0.015957  0.001576  -0.079464  -0.133847  0.000872  3.922257  0.001
C  C177  1  0.94811989  0.81965777  0.54847917  1  -0.01638  0.001576  -0.079398  -0.133587  0.000872  3.921998  0.001
C  C178  1  0.05187762  0.45151984  0.81965849  1  -0.016282  0.001576  -0.079453  -0.133832  0.000872  3.922201  0.001
C  C179  1  0.05186622  0.54847824  0.18033878  1  -0.016691  0.001576  -0.079561  -0.134079  0.000872  3.922264  0.001
C  C180  1  0.55187286  0.31966501  0.95152179  1  -0.017174  0.001576  -0.079523  -0.13395  0.000872  3.922181  0.001
C  C181  1  0.55187580  0.68034285  0.04847764  1  -0.015923  0.001576  -0.079417  -0.13379  0.000872  3.922052  0.001
C  C182  1  0.44813289  0.04847825  0.31965552  1  -0.01582  0.001576  -0.079495  -0.133887  0.000872  3.92231  0.001
C  C183  1  0.44812698  0.95151936  0.68034258  1  -0.015532  0.001576  -0.07937  -0.13362  0.000872  3.922062  0.001
C  C184  1  0.02951288  0.16461620  0.50544736  1  0.01139  0.000319  -0.0005  0.065808  0.00011  3.86933  0.0
C  C185  1  0.02950201  0.83538326  0.49455263  1  0.011584  0.000318  -0.000412  0.065721  0.00011  3.869187  0.0
C  C186  1  0.97049137  0.50544855  0.83538291  1  0.024906  0.000318  -0.000471  0.065817  0.00011  3.869199  0.0
C  C187  1  0.97048690  0.49454935  0.16461371  1  0.011543  0.000318  -0.000423  0.065986  0.00011  3.869371  0.0
C  C188  1  0.47049308  0.33538867  0.00545068  1  0.011381  0.000318  -0.000485  0.06584  0.00011  3.869087  0.0
C  C189  1  0.47049446  0.66461614  0.99454966  1  0.011314  0.000318  -0.000403  0.065911  0.00011  3.86908  0.0
C  C190  1  0.52951532  0.99455162  0.33538273  1  0.011668  0.000319  -0.000409  0.065934  0.00011  3.869238  0.0
C  C191  1  0.52950693  0.00544635  0.66461896  1  0.02478  0.000318  -0.00043  0.065838  0.00011  3.869103  0.0
C  C192  1  0.95788539  0.18590188  0.55947904  1  -0.085476  0.00165  -0.077338  -0.128563  0.000891  3.911655  0.001
C  C193  1  0.95787482  0.81409603  0.44051984  1  -0.085656  0.00165  -0.07742  -0.128621  0.000891  3.911737  0.001
C  C194  1  0.04211975  0.55947807  0.81409539  1  -0.098873  0.001651  -0.077344  -0.128567  0.000891  3.911634  0.001
C  C195  1  0.04210936  0.44051867  0.18590099  1  -0.085755  0.00165  -0.077359  -0.128651  0.000891  3.911691  0.001
C  C196  1  0.54212016  0.31410284  0.05948381  1  -0.086211  0.00165  -0.077347  -0.128656  0.000891  3.91162  0.001
C  C197  1  0.54212272  0.68590323  0.94051877  1  -0.085616  0.00165  -0.077478  -0.128747  0.000891  3.911714  0.001
C  C198  1  0.45788345  0.94051953  0.31409691  1  -0.085384  0.00165  -0.077401  -0.128595  0.000891  3.91153  0.001
C  C199  1  0.45787963  0.05947807  0.68590795  1  -0.098204  0.001651  -0.077407  -0.128756  0.000891  3.911677  0.001
C  C200  1  0.73700998  0.24516196  0.61755998  1  1.542429  0.00152  0.220155  0.590839  0.000536  4.153342  0.0
C  C201  1  0.73700264  0.75483621  0.38243895  1  1.542389  0.001522  0.220039  0.590644  0.000537  4.15387  0.0
C  C202  1  0.26299972  0.61755966  0.75483576  1  1.542382  0.001522  0.219998  0.590565  0.000537  4.153913  0.0
C  C203  1  0.26298978  0.38243998  0.24516644  1  1.542451  0.001521  0.220041  0.590783  0.000537  4.153614  0.0
C  C204  1  0.76299803  0.25483735  0.11756020  1  1.542311  0.001522  0.220119  0.59086  0.000537  4.153805  0.0
C  C205  1  0.76299884  0.74516666  0.88243873  1  1.542466  0.001522  0.220036  0.590812  0.000537  4.1538  0.0
C  C206  1  0.23700487  0.88244020  0.25483327  1  1.542436  0.001521  0.219974  0.59073  0.000537  4.153735  0.0
C  C207  1  0.23700551  0.11755586  0.74517028  1  1.542284  0.001522  0.220046  0.590732  0.000538  4.15403  0.0
C  C208  1  0.71589745  0.23348931  0.39302140  1  1.552745  0.00138  0.222232  0.592603  0.000487  4.147678  0.0
C  C209  1  0.71588319  0.76650888  0.60697934  1  1.552566  0.00138  0.22233  0.592954  0.000486  4.147709  0.0
C  C210  1  0.28411485  0.39301968  0.76651295  1  1.553028  0.00138  0.222167  0.592579  0.000487  4.147777  0.0
C  C211  1  0.28410151  0.60697678  0.23348833  1  1.552799  0.001379  0.222284  0.592689  0.000486  4.147754  0.0
C  C212  1  0.78410110  0.26651450  0.89302117  1  1.552699  0.001379  0.222173  0.592394  0.000486  4.147897  0.0
C  C213  1  0.78410855  0.73349490  0.10697729  1  1.552747  0.00138  0.222209  0.592641  0.000486  4.147464  0.0
C  C214  1  0.21589576  0.10697842  0.26650506  1  1.552742  0.001379  0.222207  0.592792  0.000486  4.147381  0.0
C  C215  1  0.21588775  0.89301722  0.73348857  1  1.552808  0.001379  0.222152  0.592547  0.000486  4.147778  0.0
C  C216  1  0.19661247  0.12857783  0.50694732  1  0.054206  4.2e-05  -0.01394  0.237755  7e-06  3.806922  0.0
C  C217  1  0.19660510  0.87142053  0.49305399  1  0.054671  4.2e-05  -0.014005  0.237693  7e-06  3.806977  0.0
C  C218  1  0.80339703  0.50694727  0.87142127  1  0.05464  4.2e-05  -0.01393  0.237824  7e-06  3.806684  0.0
C  C219  1  0.80339008  0.49305308  0.12857765  1  0.054327  4.2e-05  -0.013943  0.237784  7e-06  3.806793  0.0
C  C220  1  0.30338965  0.37142523  0.00694707  1  0.054387  4.2e-05  -0.013935  0.237799  7e-06  3.806748  0.0
C  C221  1  0.30339777  0.62857932  0.99305286  1  0.054616  4.2e-05  -0.013935  0.237792  7e-06  3.806807  0.0
C  C222  1  0.69660576  0.99305245  0.37142240  1  0.054648  4.2e-05  -0.013959  0.237827  7e-06  3.806736  0.0
C  C223  1  0.69660638  0.00694532  0.62857925  1  0.054673  4.2e-05  -0.013973  0.237585  7e-06  3.807057  0.0
C  C224  1  0.33763568  0.17038398  0.53180257  1  -0.063439  0.00026  -0.247103  -0.418808  0.000169  3.885029  0.0
C  C225  1  0.33762747  0.82961512  0.46819825  1  -0.063984  0.00026  -0.247076  -0.418864  0.000169  3.885148  0.0
C  C226  1  0.66236839  0.53180122  0.82961588  1  -0.06393  0.00026  -0.247059  -0.418792  0.000169  3.885009  0.0
C  C227  1  0.66235777  0.46819794  0.17038217  1  -0.063549  0.00026  -0.247063  -0.418836  0.000169  3.885027  0.0
C  C228  1  0.16236511  0.32961818  0.03180371  1  -0.063692  0.00026  -0.247115  -0.418898  0.000169  3.885006  0.0
C  C229  1  0.16237417  0.67038429  0.96819715  1  -0.06396  0.00026  -0.247088  -0.418903  0.000169  3.885137  0.0
C  C230  1  0.83763574  0.96819714  0.32961652  1  -0.0639  0.00026  -0.247087  -0.418824  0.000169  3.88502  0.0
C  C231  1  0.83763222  0.03179776  0.67038554  1  -0.063712  0.00026  -0.247165  -0.418948  0.000169  3.885116  0.0
C  C232  1  0.17772540  0.07337199  0.54850273  1  -0.076513  4.3e-05  -0.243018  -0.412915  8e-06  3.883829  0.0
C  C233  1  0.17772526  0.92662504  0.45149767  1  -0.075644  4.3e-05  -0.243035  -0.412864  8e-06  3.883849  0.0
C  C234  1  0.82227767  0.54850395  0.92662677  1  -0.075854  4.3e-05  -0.243004  -0.413017  8e-06  3.883746  0.0
C  C235  1  0.82226866  0.45149818  0.07337124  1  -0.076526  4.3e-05  -0.243082  -0.412999  8e-06  3.883836  0.0
C  C236  1  0.32226768  0.42663017  0.04850474  1  -0.076689  4.3e-05  -0.243077  -0.413006  8e-06  3.883853  0.0
C  C237  1  0.32227769  0.57337391  0.95149474  1  -0.075775  4.3e-05  -0.243037  -0.413032  8e-06  3.883819  0.0
C  C238  1  0.67772373  0.95149802  0.42662836  1  -0.076314  4.3e-05  -0.243012  -0.413071  8e-06  3.883882  0.0
C  C239  1  0.67773174  0.04850473  0.57337735  1  -0.075512  4.3e-05  -0.243086  -0.412912  8e-06  3.883974  0.0
C  C240  1  0.25137938  0.10694951  0.44411149  1  -0.085407  0.000106  -0.245875  -0.421874  3.6e-05  3.89999  0.0
C  C241  1  0.25137553  0.89304879  0.55588890  1  -0.085554  0.000105  -0.245895  -0.421889  3.6e-05  3.900098  0.0
C  C242  1  0.74862927  0.44411205  0.89305051  1  -0.085487  0.000106  -0.24586  -0.421819  3.6e-05  3.899967  0.0
C  C243  1  0.74861921  0.55588837  0.10694887  1  -0.085577  0.000106  -0.245893  -0.421853  3.6e-05  3.899987  0.0
C  C244  1  0.24862066  0.39305444  0.94411352  1  -0.085746  0.000105  -0.245876  -0.421952  3.6e-05  3.900128  0.0
C  C245  1  0.24862557  0.60695153  0.05588687  1  -0.085411  0.000106  -0.245903  -0.421873  3.6e-05  3.900068  0.0
C  C246  1  0.75137696  0.05588815  0.39304983  1  -0.085418  0.000106  -0.245844  -0.421797  3.6e-05  3.899963  0.0
C  C247  1  0.75137253  0.94410955  0.60695181  1  -0.085574  0.000106  -0.245861  -0.421672  3.6e-05  3.900124  0.0
O  O248  1  0.83651717  0.24620295  0.66443752  1  -1.174691  0.057406  -0.32004  -0.604403  0.029093  2.379248  0.048
O  O249  1  0.83651249  0.75379465  0.33556004  1  -1.17468  0.057406  -0.32001  -0.604337  0.029094  2.379227  0.048
O  O250  1  0.16348842  0.66443853  0.75379291  1  -1.17463  0.057411  -0.320025  -0.604293  0.029096  2.37944  0.048
O  O251  1  0.16348276  0.33556077  0.24620479  1  -1.174697  0.057405  -0.320026  -0.604412  0.029093  2.379228  0.048
O  O252  1  0.66349204  0.25379590  0.16443730  1  -1.174663  0.057403  -0.320121  -0.604496  0.029091  2.379562  0.048
O  O253  1  0.66348908  0.74620822  0.83555939  1  -1.17473  0.057408  -0.320071  -0.604496  0.029096  2.379354  0.048
O  O254  1  0.33651105  0.83556088  0.25379356  1  -1.174679  0.057405  -0.320039  -0.604445  0.029094  2.379302  0.048
O  O255  1  0.33650612  0.16443551  0.74621222  1  -1.174558  0.057407  -0.320072  -0.604393  0.029091  2.379484  0.048
O  O256  1  0.58330445  0.26292352  0.61820891  1  -1.172378  0.005883  -0.308433  -0.513834  0.002446  2.153822  0.005
O  O257  1  0.58330240  0.73707258  0.38179096  1  -1.17251  0.005883  -0.308316  -0.513729  0.002446  2.154178  0.005
O  O258  1  0.41670518  0.61820893  0.73707740  1  -1.172472  0.005884  -0.308336  -0.51373  0.002446  2.15413  0.005
O  O259  1  0.41669009  0.38179414  0.26293469  1  -1.172563  0.005883  -0.308341  -0.513743  0.002446  2.154028  0.005
O  O260  1  0.91670612  0.23707128  0.11820503  1  -1.172519  0.005885  -0.308344  -0.513779  0.002447  2.153825  0.005
O  O261  1  0.91670036  0.76292984  0.88179341  1  -1.172516  0.005883  -0.308315  -0.513742  0.002446  2.154014  0.005
O  O262  1  0.08330072  0.88179454  0.23706998  1  -1.172547  0.005883  -0.308299  -0.513706  0.002446  2.153961  0.005
O  O263  1  0.08330260  0.11820485  0.76293406  1  -1.172607  0.005884  -0.30836  -0.513788  0.002447  2.154043  0.005
O  O264  1  0.81146848  0.23358583  0.34503736  1  -1.170573  0.058789  -0.318064  -0.598308  0.029878  2.378543  0.049
O  O265  1  0.81146566  0.76641361  0.65496020  1  -1.170479  0.058786  -0.318155  -0.59848  0.029877  2.37875  0.049
O  O266  1  0.18853384  0.34503715  0.76641459  1  -1.170814  0.058785  -0.318071  -0.598265  0.029876  2.378607  0.049
O  O267  1  0.18852260  0.65495897  0.23358536  1  -1.170562  0.058789  -0.318123  -0.598387  0.029876  2.378705  0.049
O  O268  1  0.68852631  0.26641483  0.84503896  1  -1.1706  0.058784  -0.318019  -0.598183  0.029875  2.378778  0.049
O  O269  1  0.68852471  0.73358927  0.15496134  1  -1.170516  0.058792  -0.318078  -0.598381  0.02988  2.378345  0.049
O  O270  1  0.31147549  0.15496140  0.26641254  1  -1.170556  0.05879  -0.318076  -0.598418  0.029879  2.378373  0.049
O  O271  1  0.31147306  0.84503548  0.73358422  1  -1.170616  0.058786  -0.318002  -0.598171  0.029877  2.378631  0.049
O  O272  1  0.55947344  0.24777936  0.39306700  1  -1.167204  0.006073  -0.308166  -0.512219  0.002535  2.143169  0.005
O  O273  1  0.55945804  0.75221767  0.60693152  1  -1.167372  0.006072  -0.308196  -0.512397  0.002535  2.143167  0.005
O  O274  1  0.44054265  0.39306516  0.75222612  1  -1.167352  0.006072  -0.30807  -0.512186  0.002534  2.143168  0.005
O  O275  1  0.44052544  0.60693020  0.24777874  1  -1.167154  0.006072  -0.308171  -0.512248  0.002534  2.143165  0.005
O  O276  1  0.94053279  0.25222445  0.89306854  1  -1.167073  0.006073  -0.308157  -0.512208  0.002535  2.1431  0.005
O  O277  1  0.94053242  0.74778566  0.10693170  1  -1.167334  0.006072  -0.30815  -0.512213  0.002534  2.143112  0.005
O  O278  1  0.05947055  0.10693068  0.25221465  1  -1.167295  0.006072  -0.30816  -0.512292  0.002534  2.143127  0.005
O  O279  1  0.05945995  0.89306334  0.74777676  1  -1.167306  0.006072  -0.308126  -0.512202  0.002534  2.143078  0.005
O  O280  1  0.85649618  0.34355031  0.75362362  1  -1.22411  0.060144  -0.562913  -0.766999  0.030515  2.158093  0.048
O  O281  1  0.85648619  0.65644862  0.24637483  1  -1.224333  0.060148  -0.562927  -0.767146  0.030518  2.157912  0.048
O  O282  1  0.14350596  0.75362268  0.65644626  1  -1.224084  0.060142  -0.56292  -0.767091  0.030515  2.157886  0.048
O  O283  1  0.14351123  0.24637394  0.34355370  1  -1.224132  0.060145  -0.562974  -0.76718  0.030517  2.157941  0.048
O  O284  1  0.64351414  0.15644944  0.25362432  1  -1.2245  0.060147  -0.562989  -0.767222  0.030518  2.157899  0.048
O  O285  1  0.64351170  0.84355109  0.74637373  1  -1.224341  0.060148  -0.562958  -0.767056  0.030517  2.15812  0.048
O  O286  1  0.35648599  0.74637447  0.15644736  1  -1.224345  0.060148  -0.562976  -0.767158  0.030518  2.157914  0.048
O  O287  1  0.35649156  0.25362415  0.84355526  1  -1.22429  0.060148  -0.562938  -0.76711  0.030517  2.157926  0.048
O  O288  1  0.67068573  0.16799257  0.75349368  1  -1.276674  0.055694  -0.565686  -0.777766  0.028261  2.159546  0.043
O  O289  1  0.67068430  0.83200658  0.24650752  1  -1.276686  0.055697  -0.565632  -0.777918  0.028262  2.159197  0.043
O  O290  1  0.32931453  0.75349306  0.83200667  1  -1.27668  0.055694  -0.565723  -0.777945  0.028261  2.159271  0.043
O  O291  1  0.32931499  0.24650560  0.16799280  1  -1.276629  0.055695  -0.565637  -0.777867  0.028262  2.159301  0.043
O  O292  1  0.82931051  0.33200673  0.25349523  1  -1.276631  0.055698  -0.565692  -0.777888  0.028264  2.159384  0.043
O  O293  1  0.82931230  0.66799178  0.74650548  1  -1.27665  0.055694  -0.565692  -0.777732  0.02826  2.159634  0.043
O  O294  1  0.17068479  0.74650500  0.33200646  1  -1.276637  0.055696  -0.565692  -0.777857  0.028263  2.159432  0.043
O  O295  1  0.17069068  0.25349430  0.66799440  1  -1.276691  0.055692  -0.565727  -0.777984  0.028263  2.159311  0.043
O  O296  1  0.01289791  0.22754307  0.78436203  1  -1.272546  0.091229  -0.565329  -0.826049  0.047628  2.329298  0.079
O  O297  1  0.01289454  0.77245867  0.21564022  1  -1.272601  0.091226  -0.565319  -0.826067  0.047627  2.329296  0.079
O  O298  1  0.98710195  0.78435728  0.77245639  1  -1.272642  0.091232  -0.565399  -0.826109  0.047632  2.329338  0.079
O  O299  1  0.98710388  0.21563969  0.22754159  1  -1.272585  0.091226  -0.565335  -0.82604  0.047627  2.329326  0.079
O  O300  1  0.48709987  0.27245683  0.28436130  1  -1.272581  0.091228  -0.565379  -0.826114  0.047629  2.329296  0.079
O  O301  1  0.48710371  0.72754435  0.71563995  1  -1.272606  0.091229  -0.565355  -0.826105  0.04763  2.329199  0.079
O  O302  1  0.51289461  0.71563657  0.27245576  1  -1.272596  0.091226  -0.565325  -0.826036  0.047627  2.329331  0.079
O  O303  1  0.51290266  0.28435961  0.72754367  1  -1.272597  0.09123  -0.565377  -0.826108  0.047629  2.32924  0.079
