# generated using pymatgen
data_CuH14C15(N3O)2
_symmetry_space_group_name_H-M   'P 1'
_cell_length_a   8.90786907
_cell_length_b   9.89657378
_cell_length_c   11.32349487
_cell_angle_alpha   74.30423316
_cell_angle_beta   72.24095907
_cell_angle_gamma   66.53242481
_symmetry_Int_Tables_number   1
_chemical_formula_structural   CuH14C15(N3O)2
_chemical_formula_sum   'Cu2 H28 C30 N12 O4'
_cell_volume   859.25645302
_cell_formula_units_Z   2
loop_
 _symmetry_equiv_pos_site_id
 _symmetry_equiv_pos_as_xyz
  1  'x, y, z'
loop_
 _atom_site_type_symbol
 _atom_site_label
 _atom_site_symmetry_multiplicity
 _atom_site_fract_x
 _atom_site_fract_y
 _atom_site_fract_z
 _atom_site_occupancy
 _atom_site_pbe_cm5_charge
 _atom_site_pbe_ddec_charge
 _atom_site_pbe_ddec_spin_density
 _atom_site_pbe_ddec_sum_bond_order
 _atom_site_pbe_magmom
Cu  Cu0  1  0.99999915  0.99999928  0.00000093  1  0.792542  0.652607  -0.744678  2.367048  -0.562
Cu  Cu1  1  0.00000039  0.00000103  0.50000128  1  0.787122  0.644633  0.74638  2.365201  0.564
H  H2  1  0.66270526  0.97944378  0.10150133  1  0.122391  0.102842  -0.001166  0.988172  -0.002
H  H3  1  0.33729246  0.02055419  0.89850348  1  0.122399  0.102824  -0.001166  0.988195  -0.002
H  H4  1  0.37152106  0.15038749  0.18758892  1  0.107424  0.13283  -0.00059  1.041008  -0.001
H  H5  1  0.62847652  0.84961383  0.81241160  1  0.107423  0.132858  -0.00059  1.040986  -0.001
H  H6  1  0.58159585  0.49791304  0.10958793  1  0.109718  0.118744  -0.000688  0.989815  -0.001
H  H7  1  0.41840378  0.50208604  0.89040999  1  0.109723  0.118757  -0.000688  0.989729  -0.001
H  H8  1  0.86281934  0.31272653  0.03194606  1  0.12412  0.103918  -0.00126  0.991354  -0.002
H  H9  1  0.13718148  0.68727256  0.96805245  1  0.124111  0.103913  -0.00126  0.991338  -0.002
H  H10  1  0.19534400  0.43864007  0.15291461  1  0.1048  0.11668  9e-05  0.95946  0.0
H  H11  1  0.80465872  0.56136016  0.84708582  1  0.104807  0.116703  9.1e-05  0.95936  0.0
H  H12  1  0.28039427  0.55917142  0.17895252  1  0.089047  0.087386  -9e-06  1.004952  0.0
H  H13  1  0.71960566  0.44082991  0.82104566  1  0.089048  0.087369  -9e-06  1.004975  0.0
H  H14  1  0.07070145  0.47795696  0.36050804  1  0.092686  0.088508  9e-06  1.009187  0.0
H  H15  1  0.92929686  0.52204548  0.63949204  1  0.092683  0.088485  9e-06  1.009222  0.0
H  H16  1  0.21067129  0.29276288  0.37212864  1  0.090223  0.091339  -7.4e-05  1.030523  0.0
H  H17  1  0.78932584  0.70723955  0.62786996  1  0.090231  0.091314  -7.4e-05  1.030562  0.0
H  H18  1  0.28073121  0.56284277  0.39859236  1  0.089774  0.090161  -3e-06  1.000797  0.0
H  H19  1  0.71927195  0.43715634  0.60140734  1  0.089775  0.090167  -3e-06  1.000784  0.0
H  H20  1  0.19402215  0.44600781  0.52537493  1  0.100292  0.103053  -7.8e-05  1.000942  0.0
H  H21  1  0.80598263  0.55399019  0.47462377  1  0.100286  0.103037  -7.8e-05  1.000953  0.0
H  H22  1  0.36682125  0.16158188  0.56201605  1  0.105716  0.108828  0.000599  1.051282  0.001
H  H23  1  0.63318118  0.83841610  0.43798233  1  0.105708  0.108859  0.000599  1.051227  0.001
H  H24  1  0.65678517  0.99061719  0.58700232  1  0.118847  0.093574  0.001145  1.022996  0.002
H  H25  1  0.34321711  0.00938416  0.41299795  1  0.118836  0.093555  0.001146  1.022994  0.002
H  H26  1  0.86599628  0.30864532  0.37103415  1  0.125151  0.105623  0.001227  0.994984  0.002
H  H27  1  0.13400365  0.69135601  0.62896492  1  0.125175  0.10564  0.001226  0.994991  0.002
H  H28  1  0.58506567  0.49475080  0.34108386  1  0.110842  0.119811  0.000692  0.985906  0.001
H  H29  1  0.41493470  0.50524940  0.65891449  1  0.110862  0.119834  0.000692  0.985913  0.001
C  C30  1  0.89447551  0.91464520  0.79649818  1  0.190071  0.527743  4e-06  4.337984  0.0
C  C31  1  0.10552603  0.08535503  0.20350429  1  0.19007  0.52776  4e-06  4.337909  0.0
C  C32  1  0.96023559  0.04212618  0.75027977  1  0.200573  0.132746  -0.000145  4.024615  0.0
C  C33  1  0.03976478  0.95787404  0.24972123  1  0.200569  0.132745  -0.000145  4.024505  0.0
C  C34  1  0.63757792  0.09494674  0.10732698  1  0.04484  0.092861  -0.000297  3.931735  0.0
C  C35  1  0.36242215  0.90505124  0.89267550  1  0.044825  0.092926  -0.000297  3.931794  0.0
C  C36  1  0.47812029  0.18968863  0.15425946  1  -0.084011  -0.176876  -0.004653  3.897166  -0.005
C  C37  1  0.52187567  0.81031379  0.84574118  1  -0.083989  -0.176929  -0.004653  3.897269  -0.005
C  C38  1  0.45285394  0.33831239  0.15676714  1  0.015142  0.172033  0.002728  3.928191  0.003
C  C39  1  0.54714482  0.66168893  0.84323221  1  0.015139  0.172071  0.002728  3.928307  0.003
C  C40  1  0.59332163  0.38356405  0.11121512  1  -0.088149  -0.193571  -0.004437  3.978028  -0.005
C  C41  1  0.40667830  0.61643728  0.88878219  1  -0.088158  -0.19363  -0.004437  3.97808  -0.005
C  C42  1  0.74983409  0.28275591  0.06640127  1  0.044435  0.08604  -0.000136  3.953698  0.001
C  C43  1  0.25016554  0.71724318  0.93359752  1  0.044454  0.086075  -0.000136  3.953799  0.001
C  C44  1  0.28018302  0.44385350  0.20350955  1  -0.158786  -0.20542  -0.000126  3.939732  0.0
C  C45  1  0.71981338  0.55614780  0.79649038  1  -0.158767  -0.205402  -0.000126  3.939655  0.0
C  C46  1  0.20468657  0.40960526  0.34491526  1  -0.15911  -0.13474  -9.9e-05  3.905829  0.0
C  C47  1  0.79531336  0.59039608  0.65508557  1  -0.159117  -0.134709  -9.9e-05  3.905785  0.0
C  C48  1  0.27955508  0.44802592  0.43183939  1  -0.160326  -0.210671  8.8e-05  3.950616  0.0
C  C49  1  0.72044690  0.55197318  0.56815884  1  -0.160311  -0.210652  8.8e-05  3.950568  0.0
C  C50  1  0.45150405  0.34267746  0.44716237  1  0.015926  0.174729  -0.002676  3.929063  -0.003
C  C51  1  0.54849662  0.65732500  0.55283802  1  0.015905  0.174713  -0.002676  3.929158  -0.003
C  C52  1  0.47435772  0.19824971  0.51744565  1  -0.084411  -0.176914  0.004445  3.922194  0.005
C  C53  1  0.52564309  0.80174936  0.48254757  1  -0.084406  -0.176968  0.004445  3.922287  0.005
C  C54  1  0.63389043  0.10280386  0.53181610  1  0.042357  0.087016  0.000288  3.942814  0.0
C  C55  1  0.36611037  0.89719524  0.46818594  1  0.04237  0.08707  0.000288  3.942866  0.0
C  C56  1  0.75116298  0.28219512  0.41219450  1  0.046015  0.090394  0.000192  3.9396  -0.001
C  C57  1  0.24883592  0.71780283  0.58780386  1  0.045999  0.090395  0.000192  3.939474  -0.001
C  C58  1  0.59470009  0.38341643  0.39509583  1  -0.0843  -0.185226  0.004432  3.964481  0.005
C  C59  1  0.40530352  0.61658155  0.60489962  1  -0.084321  -0.185252  0.004432  3.964522  0.005
N  N60  1  0.99847763  0.10628962  0.82160851  1  -0.251811  -0.221554  -0.055323  3.591822  -0.07
N  N61  1  0.00152039  0.89371059  0.17839482  1  -0.251816  -0.221555  -0.055326  3.591764  -0.07
N  N62  1  0.06257609  0.20959592  0.74386762  1  -0.09693  -0.082556  0.004436  3.165579  0.005
N  N63  1  0.93742149  0.79040540  0.25613466  1  -0.096884  -0.082512  0.004436  3.165579  0.005
N  N64  1  0.06313634  0.20841620  0.62713519  1  -0.085304  -0.05866  -0.0044  3.199263  -0.005
N  N65  1  0.93686241  0.79158513  0.37286681  1  -0.085318  -0.058689  -0.0044  3.199291  -0.005
N  N66  1  0.99969055  0.10430576  0.62976458  1  -0.254216  -0.226955  0.056056  3.587501  0.071
N  N67  1  0.00030820  0.89569558  0.37023742  1  -0.254232  -0.226965  0.056057  3.587427  0.071
N  N68  1  0.77100202  0.14106281  0.06428075  1  -0.353155  -0.226847  -0.068455  3.654283  -0.088
N  N69  1  0.22899644  0.85893627  0.93572010  1  -0.353184  -0.226891  -0.068454  3.654328  -0.088
N  N70  1  0.77013023  0.14407818  0.47958943  1  -0.349127  -0.222893  0.068073  3.641712  0.088
N  N71  1  0.22986970  0.85592315  0.52040876  1  -0.349129  -0.222924  0.068074  3.641636  0.088
O  O72  1  0.87120645  0.86661950  0.91349989  1  -0.340003  -0.575352  0.000111  2.14725  -0.001
O  O73  1  0.12879759  0.13337739  0.08650191  1  -0.34  -0.575368  0.00011  2.147198  -0.001
O  O74  1  0.87182812  0.86838678  0.71110792  1  -0.330588  -0.577244  -0.000851  2.207866  0.0
O  O75  1  0.12817181  0.13161456  0.28889379  1  -0.33059  -0.577242  -0.000851  2.207889  0.0
