# generated using pymatgen
data_AlH6C15O5F2
_symmetry_space_group_name_H-M   'P 1'
_cell_length_a   6.70803895
_cell_length_b   22.35330311
_cell_length_c   24.64852475
_cell_angle_alpha   96.13606094
_cell_angle_beta   89.96872160
_cell_angle_gamma   89.97740412
_symmetry_Int_Tables_number   1
_chemical_formula_structural   AlH6C15O5F2
_chemical_formula_sum   'Al4 H24 C60 O20 F8'
_cell_volume   3674.79247591
_cell_formula_units_Z   4
loop_
 _symmetry_equiv_pos_site_id
 _symmetry_equiv_pos_as_xyz
  1  'x, y, z'
loop_
 _atom_site_type_symbol
 _atom_site_label
 _atom_site_symmetry_multiplicity
 _atom_site_fract_x
 _atom_site_fract_y
 _atom_site_fract_z
 _atom_site_occupancy
 _atom_site_pbe_bader_charge
 _atom_site_pbe_bader_spin_density
 _atom_site_pbe_cm5_charge
 _atom_site_pbe_ddec_charge
 _atom_site_pbe_ddec_spin_density
 _atom_site_pbe_ddec_sum_bond_order
 _atom_site_pbe_magmom
Al  Al0  1  0.20584955  0.74919351  0.75034033  1  2.50093  0  0.403336  1.645007  0  2.577228  0
Al  Al1  1  0.79414981  0.25080649  0.24965971  1  2.500867  0  0.403374  1.645007  0  2.57721  0
Al  Al2  1  0.70585377  0.75083849  0.74968477  1  2.500574  0  0.40317  1.644747  0  2.578037  0
Al  Al3  1  0.29414409  0.24916131  0.25031365  1  2.500568  0  0.403239  1.644864  0  2.577824  0
H  H4  1  0.35468862  0.12768246  0.36617312  1  0.123086  0  0.11812  0.146342  0  0.991609  0
H  H5  1  0.64531669  0.87232454  0.63382937  1  0.123002  0  0.11815  0.146337  0  0.991644  0
H  H6  1  0.85467038  0.37237812  0.13385614  1  0.123524  0  0.118101  0.146316  0  0.991841  0
H  H7  1  0.14532597  0.62764530  0.86616388  1  0.123761  0  0.118191  0.146332  0  0.991771  0
H  H8  1  0.71499399  0.14229847  0.36771987  1  0.094124  0  0.110713  0.119115  0  1.00365  0
H  H9  1  0.28500836  0.85769076  0.63227245  1  0.094104  0  0.110746  0.119099  0  1.003537  0
H  H10  1  0.21505249  0.35763740  0.13224482  1  0.09475  0  0.110762  0.119109  0  1.003236  0
H  H11  1  0.78495136  0.64234584  0.86773852  1  0.094505  0  0.110753  0.119296  0  1.003064  0
H  H12  1  0.69633986  0.07060388  0.43897405  1  0.121397  0  0.102837  0.114114  0  1.030355  0
H  H13  1  0.30367144  0.92938674  0.56101867  1  0.121309  0  0.102812  0.114048  0  1.030315  0
H  H14  1  0.19640659  0.42933628  0.06099509  1  0.121591  0  0.10291  0.114353  0  1.030347  0
H  H15  1  0.80359875  0.57064620  0.93898948  1  0.121646  0  0.102909  0.114299  0  1.030368  0
H  H16  1  0.22536201  0.07935221  0.97474020  1  0.139926  0  0.116915  0.129429  0  0.967889  0
H  H17  1  0.77463287  0.92064765  0.02525862  1  0.139959  0  0.116911  0.129432  0  0.967884  0
H  H18  1  0.73472520  0.42237510  0.52394091  1  0.091995  0  0.1167  0.130546  0  0.967228  0
H  H19  1  0.26527117  0.57762450  0.47605955  1  0.091989  0  0.116692  0.130554  0  0.967232  0
H  H20  1  0.86282654  0.04300994  0.92020054  1  0.093164  0  0.117206  0.127376  0  0.966131  0
H  H21  1  0.13716536  0.95698942  0.07979788  1  0.093229  0  0.117234  0.127433  0  0.966018  0
H  H22  1  0.37482668  0.45649916  0.58093185  1  0.104141  0  0.116602  0.12613  0  0.966591  0
H  H23  1  0.62516970  0.54350044  0.41906861  1  0.104107  0  0.116567  0.12609  0  0.966609  0
H  H24  1  0.45280644  0.82719570  0.77010157  1  0.635147  0  0.357104  0.436795  0  0.844506  0
H  H25  1  0.54719441  0.17280416  0.22989725  1  0.635131  0  0.357139  0.436859  0  0.844568  0
H  H26  1  0.95308159  0.67283209  0.72991702  1  0.635247  0  0.356876  0.436466  0  0.845483  0
H  H27  1  0.04691926  0.32716851  0.27008058  1  0.635254  0  0.356909  0.436412  0  0.845528  0
C  C28  1  0.45690770  0.67387752  0.67246683  1  1.675965  0  0.277655  0.724172  0  4.154495  0
C  C29  1  0.54309017  0.32612198  0.32753281  1  1.675841  0  0.277701  0.724198  0  4.154495  0
C  C30  1  0.95642661  0.82615375  0.82756621  1  1.676379  0  0.277489  0.723939  0  4.15431  0
C  C31  1  0.04356828  0.17384611  0.17243261  1  1.676356  0  0.277518  0.723963  0  4.154308  0
C  C32  1  0.45793635  0.68094706  0.81931831  1  1.572534  0  0.266077  0.636925  0  4.103379  0
C  C33  1  0.54205854  0.31905438  0.18068255  1  1.572011  0  0.266034  0.636841  0  4.103548  0
C  C34  1  0.95798891  0.81906790  0.68069576  1  1.57277  0  0.265972  0.636859  0  4.10392  0
C  C35  1  0.04201492  0.18093101  0.31930266  1  1.572955  0  0.266036  0.636905  0  4.103902  0
C  C36  1  0.19731930  0.07570524  0.42125734  1  0.350774  0  0.106495  0.245819  0  4.027547  0
C  C37  1  0.80269049  0.92429749  0.57874311  1  0.350969  0  0.106515  0.24603  0  4.027158  0
C  C38  1  0.69733073  0.42433328  0.07876086  1  0.351558  0  0.106597  0.246097  0  4.027291  0
C  C39  1  0.30266861  0.57568061  0.92125060  1  0.350777  0  0.106548  0.246352  0  4.027038  0
C  C40  1  0.21071347  0.11537219  0.38206001  1  0.078448  0  -0.090126  -0.221558  0  3.98121  0
C  C41  1  0.78929334  0.88463049  0.61794003  1  0.078637  0  -0.090127  -0.221635  0  3.981375  0
C  C42  1  0.71073128  0.38466596  0.11795464  1  0.077048  0  -0.090264  -0.221894  0  3.981793  0
C  C43  1  0.28926805  0.61534892  0.88205763  1  0.077362  0  -0.090407  -0.22204  0  3.981535  0
C  C44  1  0.03447669  0.13925055  0.36266736  1  -0.050327  0  -0.010122  -0.012995  0  3.978779  0
C  C45  1  0.96552416  0.86074692  0.63733025  1  -0.050088  0  -0.010069  -0.012985  0  3.979061  0
C  C46  1  0.53450590  0.36074858  0.13732730  1  -0.049294  0  -0.009905  -0.012407  0  3.978175  0
C  C47  1  0.46549494  0.63925480  0.86267478  1  -0.04918  0  -0.009954  -0.012502  0  3.978291  0
C  C48  1  0.84959783  0.12307053  0.38342418  1  0.015371  0  -0.085222  -0.107413  0  3.993873  0
C  C49  1  0.15040452  0.87692298  0.61657016  1  0.014763  0  -0.085332  -0.107492  0  3.993882  0
C  C50  1  0.34966144  0.37689450  0.11655630  1  -0.004365  0  -0.085439  -0.107519  0  3.993562  0
C  C51  1  0.65034538  0.62309746  0.88343642  1  -0.004166  0  -0.085374  -0.107641  0  3.993336  0
C  C52  1  0.83933247  0.08342057  0.42291097  1  -0.076496  0  -0.077381  -0.100904  0  3.945494  0
C  C53  1  0.16067584  0.91657337  0.57708337  1  -0.076318  0  -0.077241  -0.100655  0  3.945265  0
C  C54  1  0.33939174  0.41654764  0.07707006  1  -0.063354  0  -0.077407  -0.10139  0  3.946173  0
C  C55  1  0.66061359  0.58344522  0.92292265  1  -0.0632  0  -0.077396  -0.101331  0  3.945898  0
C  C56  1  0.01440337  0.05833087  0.44294280  1  0.233941  0  -0.003317  0.035526  0  4.125622  0
C  C57  1  0.98560643  0.94166844  0.55705521  1  0.233891  0  -0.003395  0.035421  0  4.12565  0
C  C58  1  0.51444528  0.44167495  0.05705981  1  0.238677  0  -0.003333  0.035782  0  4.124942  0
C  C59  1  0.48555706  0.55832941  0.94294309  1  0.238842  0  -0.003401  0.03566  0  4.125132  0
C  C60  1  0.00604798  0.01758687  0.48276493  1  -0.041346  0  -0.036172  -0.076812  0  4.109681  0
C  C61  1  0.99396479  0.98241348  0.51723430  1  -0.290024  0  -0.036176  -0.076941  0  4.109837  0
C  C62  1  0.50606850  0.48241848  0.01723587  1  -0.04213  0  -0.036251  -0.077024  0  4.109394  0
C  C63  1  0.49393682  0.51758634  0.98276703  1  -0.288968  0  -0.03611  -0.076831  0  4.109429  0
C  C64  1  0.92488652  0.02441195  0.95574989  1  -0.035655  0  -0.068793  -0.14327  0  3.621631  0
C  C65  1  0.07510688  0.97558790  0.04424893  1  -0.036075  0  -0.068783  -0.143264  0  3.62156  0
C  C66  1  0.43166169  0.47534214  0.54488126  1  -0.039703  0  -0.067564  -0.140232  0  3.619841  0
C  C67  1  0.56833468  0.52465696  0.45511879  1  -0.039469  0  -0.067527  -0.140141  0  3.61982  0
C  C68  1  0.12449085  0.04414992  0.98547718  1  -0.077112  0  -0.068688  -0.143021  0  3.618782  0
C  C69  1  0.87550404  0.95584949  0.01452165  1  -0.076943  0  -0.068664  -0.142994  0  3.618891  0
C  C70  1  0.62971049  0.45677787  0.51377559  1  -0.016348  0  -0.069227  -0.144733  0  3.61886  0
C  C71  1  0.37028589  0.54322118  0.48622405  1  -0.016296  0  -0.069253  -0.14482  0  3.618823  0
C  C72  1  0.04106820  0.12858651  0.12626509  1  0.178669  0  -0.04073  -0.202561  0  3.972325  0
C  C73  1  0.95892370  0.87141374  0.87373332  1  0.178529  0  -0.040704  -0.202468  0  3.972382  0
C  C74  1  0.54030255  0.37137043  0.37370897  1  0.178902  0  -0.040734  -0.202737  0  3.971953  0
C  C75  1  0.45969382  0.62862868  0.62629108  1  0.179336  0  -0.040698  -0.202684  0  3.971892  0
C  C76  1  0.82051596  0.02316210  0.01201588  1  0.620928  0  0.112291  0.269548  0  3.729698  0
C  C77  1  0.17947743  0.97683726  0.98798254  1  0.620974  0  0.112313  0.269446  0  3.729712  0
C  C78  1  0.32138612  0.47562341  0.48938140  1  0.607221  0  0.112097  0.270026  0  3.727795  0
C  C79  1  0.67860876  0.52437535  0.51061946  1  0.607273  0  0.112145  0.269962  0  3.727969  0
C  C80  1  0.01853919  0.04458206  0.04325158  1  0.100845  0  0.006425  0.069721  0  3.808209  0
C  C81  1  0.98145272  0.95541774  0.95674683  1  0.100894  0  0.006398  0.069592  0  3.808489  0
C  C82  1  0.51794958  0.45532810  0.45677827  1  0.101665  0  0.006221  0.067972  0  3.80932  0
C  C83  1  0.48204680  0.54467140  0.54322137  1  0.10212  0  0.006176  0.067932  0  3.809341  0
C  C84  1  0.03403279  0.08971492  0.08772817  1  -0.431601  0  -0.025073  -0.021538  0  4.086816  0
C  C85  1  0.96596210  0.91028484  0.91226984  1  -0.431462  0  -0.025096  -0.021562  0  4.086966  0
C  C86  1  0.53309833  0.41020203  0.41227780  1  -0.434563  0  -0.025035  -0.020822  0  4.08636  0
C  C87  1  0.46689805  0.58979752  0.58772225  1  -0.435495  0  -0.025077  -0.020858  0  4.086286  0
O  O88  1  0.62541799  0.69768528  0.80183670  1  -1.249948  0  -0.235952  -0.594863  0  2.363796  0
O  O89  1  0.37457839  0.30231313  0.19816131  1  -1.249448  0  -0.23592  -0.594816  0  2.363981  0
O  O90  1  0.12541715  0.80234351  0.69818276  1  -1.250056  0  -0.23573  -0.594527  0  2.364258  0
O  O91  1  0.87458370  0.19765535  0.30181525  1  -1.250365  0  -0.235792  -0.594623  0  2.364275  0
O  O92  1  0.28676180  0.69066576  0.69135830  1  -1.242497  0  -0.22799  -0.584646  0  2.279326  0
O  O93  1  0.71323905  0.30933265  0.30864338  1  -1.242443  0  -0.228021  -0.584638  0  2.279276  0
O  O94  1  0.78637619  0.80936461  0.80866587  1  -1.242516  0  -0.228183  -0.584625  0  2.277997  0
O  O95  1  0.21361869  0.19063350  0.19133337  1  -1.242425  0  -0.228208  -0.584659  0  2.278166  0
O  O96  1  0.28657725  0.69558042  0.80263572  1  -1.259847  0  -0.237544  -0.592749  0  2.334134  0
O  O97  1  0.71341912  0.30442261  0.19736719  1  -1.259783  0  -0.237579  -0.592769  0  2.334062  0
O  O98  1  0.78657716  0.80442670  0.69738114  1  -1.259731  0  -0.237686  -0.59277  0  2.333804  0
O  O99  1  0.21342369  0.19557365  0.30261809  1  -1.259777  0  -0.237639  -0.592721  0  2.333845  0
O  O100  1  0.12582275  0.80746382  0.80953776  1  -1.241706  0  -0.227288  -0.583689  0  2.282594  0
O  O101  1  0.87417065  0.19253728  0.19046025  1  -1.241729  0  -0.22731  -0.583674  0  2.282499  0
O  O102  1  0.62621690  0.69255913  0.69050079  1  -1.24243  0  -0.227437  -0.583741  0  2.28209  0
O  O103  1  0.37378544  0.30744201  0.30949763  1  -1.242455  0  -0.227453  -0.583758  0  2.282113  0
O  O104  1  0.45484638  0.78640805  0.75223822  1  -1.436629  0  -0.448109  -0.994654  0  2.187382  0
O  O105  1  0.54515148  0.21359180  0.24776061  1  -1.436564  0  -0.448168  -0.994748  0  2.187456  0
O  O106  1  0.95494890  0.71361739  0.74778535  1  -1.436588  0  -0.448054  -0.994467  0  2.188561  0
O  O107  1  0.04505046  0.28638246  0.25221348  1  -1.436544  0  -0.448121  -0.994446  0  2.188576  0
F  F108  1  0.36771748  0.05176485  0.43998292  1  -0.63602  0  -0.093499  -0.142127  0  1.36352  0
F  F109  1  0.63229678  0.94824418  0.56002160  1  -0.636128  0  -0.093537  -0.142212  0  1.363333  0
F  F110  1  0.86771022  0.44831098  0.06005711  1  -0.635841  0  -0.093549  -0.142298  0  1.363165  0
F  F111  1  0.13228761  0.55171412  0.93996576  1  -0.636057  0  -0.093456  -0.14237  0  1.363193  0
F  F112  1  0.36235920  0.95232237  0.97513938  1  -0.632194  0  -0.118579  -0.176703  0  1.305003  0
F  F113  1  0.63763569  0.04767708  0.02485986  1  -0.632269  0  -0.118574  -0.176736  0  1.305139  0
F  F114  1  0.86083447  0.55008672  0.52190974  1  -0.635226  0  -0.118383  -0.177445  0  1.303501  0
F  F115  1  0.13916190  0.44991283  0.47809031  1  -0.635068  0  -0.118353  -0.177452  0  1.30351  0
