# generated using pymatgen
data_CsPH24C13O2
_symmetry_space_group_name_H-M   'P 1'
_cell_length_a   5.84129038
_cell_length_b   9.27585369
_cell_length_c   14.39979121
_cell_angle_alpha   82.83435780
_cell_angle_beta   82.66209372
_cell_angle_gamma   77.58192843
_symmetry_Int_Tables_number   1
_chemical_formula_structural   CsPH24C13O2
_chemical_formula_sum   'Cs2 P2 H48 C26 O4'
_cell_volume   751.90858961
_cell_formula_units_Z   2
loop_
 _symmetry_equiv_pos_site_id
 _symmetry_equiv_pos_as_xyz
  1  'x, y, z'
loop_
 _atom_site_type_symbol
 _atom_site_label
 _atom_site_symmetry_multiplicity
 _atom_site_fract_x
 _atom_site_fract_y
 _atom_site_fract_z
 _atom_site_occupancy
 _atom_site_pbe_bader_spin_density
 _atom_site_pbe_cm5_charge
 _atom_site_pbe_ddec_charge
 _atom_site_pbe_ddec_spin_density
 _atom_site_pbe_ddec_sum_bond_order
 _atom_site_pbe_magmom
Cs  Cs0  1  0.18698317  0.16980461  0.03312685  1  0  0.822869  0.843343  0  0.909375  0
Cs  Cs1  1  0.81297656  0.83019765  0.96686638  1  0  0.822871  0.843355  0  0.909387  0
P  P2  1  0.46058692  0.87149116  0.20022029  1  0  -0.230739  -0.354749  0  2.988015  0
P  P3  1  0.53941053  0.12850635  0.79978176  1  0  -0.230728  -0.35478  0  2.988113  0
H  H4  1  0.44496091  0.30228515  0.36382684  1  0  0.085635  0.118932  0  1.016827  0
H  H5  1  0.55505133  0.69770861  0.63617060  1  0  0.085642  0.118967  0  1.016777  0
H  H6  1  0.34924775  0.13239377  0.36767523  1  0  0.084712  0.114776  0  1.036106  0
H  H7  1  0.65075785  0.86759909  0.63232474  1  0  0.0847  0.114743  0  1.036156  0
H  H8  1  0.39486036  0.23857873  0.25832648  1  0  0.082486  0.106131  0  1.044644  0
H  H9  1  0.60514574  0.76141835  0.74166819  1  0  0.082471  0.106105  0  1.044812  0
H  H10  1  0.80238685  0.18575548  0.44579474  1  0  0.084394  0.114285  0  1.023813  0
H  H11  1  0.19762946  0.81423597  0.55420200  1  0  0.084408  0.114319  0  1.023818  0
H  H12  1  0.99821673  0.02565870  0.40630025  1  0  0.086516  0.119206  0  1.023819  0
H  H13  1  0.00179315  0.97433721  0.59369433  1  0  0.086501  0.119199  0  1.02379  0
H  H14  1  0.71088231  0.01294298  0.45977249  1  0  0.082842  0.109474  0  1.042561  0
H  H15  1  0.28914145  0.98705269  0.54022205  1  0  0.082879  0.109526  0  1.042635  0
H  H16  1  0.67290214  0.48960865  0.40389635  1  0  0.082494  0.110665  0  1.02838  0
H  H17  1  0.32712565  0.51039164  0.59610516  1  0  0.082447  0.110493  0  1.028498  0
H  H18  1  0.47896454  0.59003666  0.32152038  1  0  0.080968  0.117838  0  1.020898  0
H  H19  1  0.52104946  0.40995738  0.67848526  1  0  0.080954  0.117763  0  1.020966  0
H  H20  1  0.45797973  0.64696523  0.43611837  1  0  0.083473  0.112324  0  1.030151  0
H  H21  1  0.54203908  0.35303636  0.56388420  1  0  0.083476  0.112316  0  1.029992  0
H  H22  1  0.03480450  0.52514054  0.28958882  1  0  0.084314  0.118946  0  1.008259  0
H  H23  1  0.96520858  0.47485665  0.71041172  1  0  0.084361  0.118991  0  1.008221  0
H  H24  1  0.05887147  0.70425820  0.23472751  1  0  0.080511  0.107547  0  1.058466  0
H  H25  1  0.94113669  0.29573790  0.76527131  1  0  0.08052  0.107516  0  1.058508  0
H  H26  1  0.83907097  0.61597608  0.20530009  1  0  0.078264  0.096053  0  1.071287  0
H  H27  1  0.16093840  0.38401558  0.79469909  1  0  0.078223  0.096009  0  1.071414  0
H  H28  1  0.99251039  0.59953786  0.44931546  1  0  0.081405  0.110063  0  1.029072  0
H  H29  1  0.00749706  0.40046708  0.55068255  1  0  0.0814  0.110082  0  1.029093  0
H  H30  1  0.78581971  0.75928379  0.48368556  1  0  0.082515  0.111943  0  1.037539  0
H  H31  1  0.21418736  0.24072889  0.51631243  1  0  0.082516  0.111997  0  1.037511  0
H  H32  1  0.03440466  0.77857753  0.40131845  1  0  0.085594  0.119699  0  1.028069  0
H  H33  1  0.96560157  0.22143181  0.59867851  1  0  0.085613  0.119817  0  1.028019  0
H  H34  1  0.94635814  0.93454735  0.25450592  1  0  0.089441  0.067557  0  1.041866  0
H  H35  1  0.05365510  0.06545506  0.74548646  1  0  0.089458  0.067543  0  1.041867  0
H  H36  1  0.49140864  0.89522754  0.37037879  1  0  0.085204  0.071418  0  1.01471  0
H  H37  1  0.50860605  0.10477607  0.62961687  1  0  0.085239  0.071429  0  1.014622  0
H  H38  1  0.13374439  0.56707618  0.09550601  1  0  0.112139  0.087075  0  1.012092  0
H  H39  1  0.86620165  0.43293908  0.90450269  1  0  0.112185  0.087089  0  1.011908  0
H  H40  1  0.48913722  0.37087760  0.11932064  1  0  0.100017  0.06194  0  1.023231  0
H  H41  1  0.51081878  0.62912618  0.88068167  1  0  0.099971  0.061819  0  1.023352  0
H  H42  1  0.31374966  0.69112420  0.03449773  1  0  0.099209  0.052056  0  1.049839  0
H  H43  1  0.68622636  0.30887599  0.96550662  1  0  0.099198  0.051916  0  1.049858  0
H  H44  1  0.52661995  0.53904941  0.15984510  1  0  0.108657  0.086634  0  1.005884  0
H  H45  1  0.47334403  0.46094466  0.84016744  1  0  0.108707  0.08671  0  1.005842  0
H  H46  1  0.05503589  0.16845391  0.24744245  1  0  0.075322  0.084485  0  1.096572  0
H  H47  1  0.94497330  0.83155091  0.75255340  1  0  0.075318  0.084449  0  1.096583  0
H  H48  1  0.80617483  0.26195681  0.18759771  1  0  0.078989  0.106366  0  1.074473  0
H  H49  1  0.19382681  0.73805047  0.81240108  1  0  0.078962  0.1063  0  1.074519  0
H  H50  1  0.86097521  0.32515056  0.29267983  1  0  0.085858  0.122635  0  1.02352  0
H  H51  1  0.13903439  0.67484667  0.70732019  1  0  0.085859  0.122622  0  1.023518  0
C  C52  1  0.65011582  0.99882022  0.17007357  1  0  0.032481  0.198886  0  4.169614  0
C  C53  1  0.34988467  0.00118464  0.82991927  1  0  0.032568  0.199022  0  4.168945  0
C  C54  1  0.75413817  0.97940116  0.26441346  1  0  -0.084995  -0.10549  0  3.738385  0
C  C55  1  0.24587203  0.02059377  0.73558466  1  0  -0.085014  -0.105512  0  3.738443  0
C  C56  1  0.61666218  0.85721109  0.31015788  1  0  -0.092728  -0.108332  0  3.717745  0
C  C57  1  0.38334535  0.14278707  0.68983661  1  0  -0.092769  -0.108209  0  3.717481  0
C  C58  1  0.72157188  0.12223387  0.31534673  1  0  -0.015425  0.27388  0  3.759385  0
C  C59  1  0.27844149  0.87776218  0.68465320  1  0  -0.015422  0.273863  0  3.759046  0
C  C60  1  0.46314417  0.20290971  0.32689179  1  0  -0.243975  -0.413957  0  3.887619  0
C  C61  1  0.53687592  0.79708064  0.67310693  1  0  -0.243986  -0.413954  0  3.887696  0
C  C62  1  0.86950823  0.22610650  0.25684500  1  0  -0.265073  -0.425417  0  3.884171  0
C  C63  1  0.13050188  0.77389505  0.74315249  1  0  -0.265015  -0.425231  0  3.884123  0
C  C64  1  0.81292231  0.08378670  0.41239842  1  0  -0.244273  -0.41499  0  3.887537  0
C  C65  1  0.18709799  0.91620911  0.58759838  1  0  -0.244301  -0.415108  0  3.887512  0
C  C66  1  0.75900680  0.70188776  0.34278979  1  0  -0.020151  0.269435  0  3.783401  0
C  C67  1  0.24100618  0.29811604  0.65721012  1  0  -0.020205  0.269261  0  3.783709  0
C  C68  1  0.58237248  0.60121546  0.37800314  1  0  -0.244771  -0.411242  0  3.886412  0
C  C69  1  0.41764204  0.39878293  0.62200067  1  0  -0.244707  -0.410923  0  3.886412  0
C  C70  1  0.93261470  0.63321052  0.26324432  1  0  -0.249156  -0.421018  0  3.902843  0
C  C71  1  0.06739724  0.36678443  0.73675510  1  0  -0.249124  -0.420944  0  3.903023  0
C  C72  1  0.90042850  0.71115387  0.42403049  1  0  -0.246432  -0.414147  0  3.887229  0
C  C73  1  0.09958039  0.28885214  0.57596734  1  0  -0.246423  -0.414321  0  3.887346  0
C  C74  1  0.29736669  0.57368531  0.04991983  1  0  -0.100768  -0.052302  0  3.965509  0
C  C75  1  0.70258730  0.42631993  0.95009080  1  0  -0.100677  -0.051792  0  3.965227  0
C  C76  1  0.50812256  0.48657210  0.09770904  1  0  -0.07997  -0.018935  0  3.919632  0
C  C77  1  0.49183142  0.51343300  0.90229812  1  0  -0.080023  -0.019091  0  3.919839  0
O  O78  1  0.69864993  0.08198217  0.09555581  1  0  -0.535248  -0.608951  0  2.321721  0
O  O79  1  0.30131996  0.91802145  0.90444855  1  0  -0.53539  -0.60912  0  2.320857  0
O  O80  1  0.27763275  0.51416891  0.96414841  1  0  -0.282608  -0.264034  0  2.476753  0
O  O81  1  0.72232062  0.48583844  0.03585927  1  0  -0.282659  -0.264266  0  2.476887  0
