# generated using pymatgen
data_TlHCO2
_symmetry_space_group_name_H-M   'P 1'
_cell_length_a   5.74172504
_cell_length_b   6.10655613
_cell_length_c   9.02890272
_cell_angle_alpha   89.95930777
_cell_angle_beta   90.00076149
_cell_angle_gamma   90.00636855
_symmetry_Int_Tables_number   1
_chemical_formula_structural   TlHCO2
_chemical_formula_sum   'Tl4 H4 C4 O8'
_cell_volume   316.57280575
_cell_formula_units_Z   4
loop_
 _symmetry_equiv_pos_site_id
 _symmetry_equiv_pos_as_xyz
  1  'x, y, z'
loop_
 _atom_site_type_symbol
 _atom_site_label
 _atom_site_symmetry_multiplicity
 _atom_site_fract_x
 _atom_site_fract_y
 _atom_site_fract_z
 _atom_site_occupancy
 _atom_site_hle17_bader_spin_density
 _atom_site_hle17_ddec_charge
 _atom_site_hle17_ddec_spin_density
 _atom_site_hle17_ddec_sum_bond_order
 _atom_site_hle17_magmom
 _atom_site_hse06_10hf_bader_spin_density
 _atom_site_hse06_10hf_ddec_charge
 _atom_site_hse06_10hf_ddec_spin_density
 _atom_site_hse06_10hf_ddec_sum_bond_order
 _atom_site_hse06_10hf_magmom
 _atom_site_hse06_bader_spin_density
 _atom_site_hse06_ddec_charge
 _atom_site_hse06_ddec_spin_density
 _atom_site_hse06_ddec_sum_bond_order
 _atom_site_hse06_magmom
 _atom_site_pbe_bader_spin_density
 _atom_site_pbe_cm5_charge
 _atom_site_pbe_ddec_charge
 _atom_site_pbe_ddec_spin_density
 _atom_site_pbe_ddec_sum_bond_order
 _atom_site_pbe_magmom
Tl  Tl0  1  0.99911120  0.00419385  0.00624840  1  0  0.832239  0  0.814891  0  0  0.720263  0  1.103076  0  0  0.754225  0  1.079067  0  0  0.408729  0.694692  0  1.120423  0
Tl  Tl1  1  0.49892409  0.49590519  0.50617359  1  0  0.831765  0  0.815351  0  0  0.719736  0  1.103521  0  0  0.753583  0  1.07975  0  0  0.408565  0.69412  0  1.120807  0
Tl  Tl2  1  0.50082783  0.50420165  0.00628909  1  0  0.832164  0  0.815286  0  0  0.720156  0  1.103584  0  0  0.75414  0  1.079527  0  0  0.408595  0.694582  0  1.120927  0
Tl  Tl3  1  0.00106220  0.99589503  0.50616001  1  0  0.831801  0  0.815264  0  0  0.719774  0  1.103437  0  0  0.753648  0  1.079619  0  0  0.408638  0.694163  0  1.120716  0
H  H4  1  0.55946607  0.05396254  0.82330947  1  0  -0.032046  0  0.971886  0  0  -0.019149  0  1.053608  0  0  -0.020194  0  1.049756  0  0  0.093157  -0.018483  0  1.056348  0
H  H5  1  0.05941369  0.44645339  0.32340316  1  0  -0.03232  0  0.972647  0  0  -0.019255  0  1.054278  0  0  -0.020212  0  1.050237  0  0  0.093113  -0.018584  0  1.056993  0
H  H6  1  0.94057870  0.55389176  0.82334477  1  0  -0.03228  0  0.971744  0  0  -0.019309  0  1.053448  0  0  -0.020303  0  1.049477  0  0  0.093062  -0.018641  0  1.056186  0
H  H7  1  0.44056638  0.94655781  0.32347497  1  0  -0.032378  0  0.972709  0  0  -0.019373  0  1.054451  0  0  -0.020336  0  1.05042  0  0  0.093069  -0.018696  0  1.057149  0
C  C8  1  0.47862224  0.94579936  0.73813369  1  0  0.566804  0  4.035224  0  0  0.496427  0  4.33035  0  0  0.530108  0  4.325983  0  0  0.131533  0.473597  0  4.331909  0
C  C9  1  0.97805918  0.55408224  0.23804005  1  0  0.565915  0  4.034689  0  0  0.495369  0  4.329933  0  0  0.529061  0  4.325637  0  0  0.130948  0.472542  0  4.331448  0
C  C10  1  0.02144188  0.44577596  0.73809036  1  0  0.56686  0  4.035403  0  0  0.496442  0  4.330552  0  0  0.530127  0  4.326219  0  0  0.13151  0.473608  0  4.332106  0
C  C11  1  0.52188027  0.05415221  0.23806647  1  0  0.566114  0  4.034719  0  0  0.495587  0  4.329913  0  0  0.529276  0  4.325618  0  0  0.13126  0.47276  0  4.331414  0
O  O12  1  0.31890556  0.81782604  0.78058593  1  0  -0.668267  0  2.065245  0  0  -0.585495  0  2.300331  0  0  -0.618675  0  2.298853  0  0  -0.313505  -0.561773  0  2.300276  0
O  O13  1  0.81781544  0.68148033  0.28052392  1  0  -0.667614  0  2.064135  0  0  -0.584685  0  2.299053  0  0  -0.617935  0  2.297682  0  0  -0.312986  -0.560934  0  2.298952  0
O  O14  1  0.18122675  0.31788375  0.78059257  1  0  -0.668593  0  2.065236  0  0  -0.585735  0  2.300216  0  0  -0.61895  0  2.298783  0  0  -0.313587  -0.561999  0  2.300155  0
O  O15  1  0.68206462  0.18161018  0.28055713  1  0  -0.66769  0  2.064548  0  0  -0.584782  0  2.29951  0  0  -0.618022  0  2.298138  0  0  -0.31314  -0.561035  0  2.299411  0
O  O16  1  0.55585799  0.96063260  0.60632032  1  0  -0.698275  0  2.08288  0  0  -0.611584  0  2.325018  0  0  -0.644984  0  2.320741  0  0  -0.319786  -0.587521  0  2.326641  0
O  O17  1  0.05500502  0.53957654  0.10617676  1  0  -0.69809  0  2.08278  0  0  -0.611498  0  2.32508  0  0  -0.644908  0  2.320774  0  0  -0.319722  -0.587495  0  2.326823  0
O  O18  1  0.94422491  0.46055007  0.60632020  1  0  -0.697942  0  2.083658  0  0  -0.61132  0  2.325879  0  0  -0.644684  0  2.321542  0  0  -0.319601  -0.587293  0  2.327566  0
O  O19  1  0.44494290  0.03957597  0.10618991  1  0  -0.698167  0  2.082292  0  0  -0.611569  0  2.324553  0  0  -0.644965  0  2.320244  0  0  -0.319852  -0.587611  0  2.3264  0
