# generated using pymatgen
data_ZnH8C4O7
_symmetry_space_group_name_H-M   'P 1'
_cell_length_a   7.47145510
_cell_length_b   9.55053389
_cell_length_c   10.79788469
_cell_angle_alpha   90.42073269
_cell_angle_beta   90.00116543
_cell_angle_gamma   90.00022335
_symmetry_Int_Tables_number   1
_chemical_formula_structural   ZnH8C4O7
_chemical_formula_sum   'Zn4 H32 C16 O28'
_cell_volume   770.47724540
_cell_formula_units_Z   4
loop_
 _symmetry_equiv_pos_site_id
 _symmetry_equiv_pos_as_xyz
  1  'x, y, z'
loop_
 _atom_site_type_symbol
 _atom_site_label
 _atom_site_symmetry_multiplicity
 _atom_site_fract_x
 _atom_site_fract_y
 _atom_site_fract_z
 _atom_site_occupancy
 _atom_site_hle17_bader_spin_density
 _atom_site_hle17_ddec_charge
 _atom_site_hle17_ddec_spin_density
 _atom_site_hle17_ddec_sum_bond_order
 _atom_site_hle17_magmom
 _atom_site_hse06_10hf_bader_spin_density
 _atom_site_hse06_10hf_ddec_charge
 _atom_site_hse06_10hf_ddec_spin_density
 _atom_site_hse06_10hf_ddec_sum_bond_order
 _atom_site_hse06_10hf_magmom
 _atom_site_hse06_bader_spin_density
 _atom_site_hse06_ddec_charge
 _atom_site_hse06_ddec_spin_density
 _atom_site_hse06_ddec_sum_bond_order
 _atom_site_hse06_magmom
 _atom_site_pbe_bader_spin_density
 _atom_site_pbe_cm5_charge
 _atom_site_pbe_ddec_charge
 _atom_site_pbe_ddec_spin_density
 _atom_site_pbe_ddec_sum_bond_order
 _atom_site_pbe_magmom
Zn  Zn0  1  0.83522910  0.72104943  0.57362043  1  0  1.176528  0  1.696402  0  0  1.012282  0  2.144466  0  0  1.059999  0  2.085032  0  0  0.672654  0.978516  0  2.185481  0
Zn  Zn1  1  0.33523812  0.77893942  0.92639007  1  0  1.176471  0  1.69658  0  0  1.012244  0  2.14466  0  0  1.059953  0  2.085226  0  0  0.672597  0.978478  0  2.185673  0
Zn  Zn2  1  0.16476872  0.27895070  0.42638031  1  0  1.176523  0  1.696404  0  0  1.01232  0  2.144461  0  0  1.060038  0  2.085025  0  0  0.672667  0.978558  0  2.185477  0
Zn  Zn3  1  0.66475435  0.22105327  0.07361414  1  0  1.176436  0  1.69671  0  0  1.012188  0  2.144795  0  0  1.059906  0  2.085354  0  0  0.672603  0.978423  0  2.185807  0
H  H4  1  0.73526498  0.60122757  0.25366469  1  0  0.066189  0  0.939093  0  0  0.070093  0  1.010454  0  0  0.073231  0  1.007341  0  0  0.11494  0.067753  0  1.012874  0
H  H5  1  0.23525459  0.89876873  0.24632678  1  0  0.066238  0  0.93912  0  0  0.070102  0  1.010513  0  0  0.073242  0  1.007396  0  0  0.114923  0.067759  0  1.012943  0
H  H6  1  0.26474489  0.39876031  0.74632549  1  0  0.066206  0  0.939089  0  0  0.070087  0  1.01049  0  0  0.073226  0  1.007373  0  0  0.114919  0.067745  0  1.012917  0
H  H7  1  0.76473520  0.10122602  0.75367843  1  0  0.066262  0  0.939115  0  0  0.070086  0  1.010526  0  0  0.073225  0  1.00741  0  0  0.114906  0.067746  0  1.012944  0
H  H8  1  0.40615729  0.54584823  0.41526211  1  0  0.131915  0  0.953201  0  0  0.14275  0  1.014032  0  0  0.14599  0  1.011998  0  0  0.104169  0.140366  0  1.015653  0
H  H9  1  0.90616317  0.95416487  0.08471373  1  0  0.131937  0  0.953127  0  0  0.142708  0  1.014051  0  0  0.145948  0  1.012024  0  0  0.104156  0.140322  0  1.015673  0
H  H10  1  0.59385257  0.45415929  0.58473700  1  0  0.13192  0  0.953178  0  0  0.142717  0  1.014048  0  0  0.145957  0  1.012012  0  0  0.104134  0.140332  0  1.015669  0
H  H11  1  0.09383599  0.04583639  0.91528426  1  0  0.13192  0  0.953135  0  0  0.142738  0  1.014043  0  0  0.145977  0  1.012013  0  0  0.104169  0.140351  0  1.015666  0
H  H12  1  0.39388183  0.61096554  0.26241698  1  0  0.12194  0  0.960935  0  0  0.131999  0  1.028254  0  0  0.134581  0  1.027558  0  0  0.107376  0.13  0  1.029167  0
H  H13  1  0.89386778  0.88904223  0.23756038  1  0  0.121874  0  0.960747  0  0  0.131885  0  1.028173  0  0  0.134461  0  1.027489  0  0  0.107336  0.129888  0  1.029088  0
H  H14  1  0.60612937  0.38903365  0.73758003  1  0  0.121997  0  0.960882  0  0  0.132031  0  1.028214  0  0  0.134573  0  1.027561  0  0  0.107355  0.130032  0  1.029129  0
H  H15  1  0.10611934  0.11096727  0.76244249  1  0  0.121889  0  0.96071  0  0  0.131941  0  1.028126  0  0  0.134525  0  1.027429  0  0  0.107332  0.129944  0  1.029041  0
H  H16  1  0.95494510  0.50277329  0.72741838  1  0  0.437707  0  0.859226  0  0  0.402185  0  0.927529  0  0  0.41472  0  0.909533  0  0  0.298573  0.393402  0  0.940014  0
H  H17  1  0.45493599  0.99721943  0.77258187  1  0  0.437756  0  0.859175  0  0  0.402224  0  0.927498  0  0  0.41476  0  0.9095  0  0  0.298548  0.393438  0  0.939988  0
H  H18  1  0.04505941  0.49722678  0.27258421  1  0  0.437637  0  0.859326  0  0  0.402116  0  0.927628  0  0  0.414653  0  0.909629  0  0  0.298558  0.393333  0  0.940113  0
H  H19  1  0.54506184  0.00278285  0.22741708  1  0  0.437733  0  0.859178  0  0  0.402198  0  0.92751  0  0  0.414735  0  0.909512  0  0  0.298574  0.393413  0  0.94  0
H  H20  1  0.05256184  0.65841479  0.73706035  1  0  0.430672  0  0.870163  0  0  0.395429  0  0.940455  0  0  0.407721  0  0.922797  0  0  0.296154  0.38687  0  0.952672  0
H  H21  1  0.55255231  0.84157855  0.76294170  1  0  0.430628  0  0.870225  0  0  0.395376  0  0.940542  0  0  0.407672  0  0.922878  0  0  0.296085  0.386818  0  0.952758  0
H  H22  1  0.94745338  0.34158248  0.26293104  1  0  0.430686  0  0.8701  0  0  0.395429  0  0.940453  0  0  0.407723  0  0.922791  0  0  0.296164  0.38687  0  0.952671  0
H  H23  1  0.44744283  0.15842463  0.23706191  1  0  0.430645  0  0.870178  0  0  0.395385  0  0.940526  0  0  0.407681  0  0.922863  0  0  0.296139  0.386828  0  0.952741  0
H  H24  1  0.08141330  0.73216326  0.38193889  1  0  0.416959  0  0.89218  0  0  0.382267  0  0.962697  0  0  0.39308  0  0.947268  0  0  0.287163  0.374543  0  0.973731  0
H  H25  1  0.58143394  0.76784991  0.11806576  1  0  0.416925  0  0.892193  0  0  0.382238  0  0.962696  0  0  0.39305  0  0.947268  0  0  0.287121  0.374513  0  0.973732  0
H  H26  1  0.91857782  0.26783992  0.61806472  1  0  0.41696  0  0.892142  0  0  0.382264  0  0.962661  0  0  0.393076  0  0.947233  0  0  0.287148  0.374539  0  0.973697  0
H  H27  1  0.41856121  0.23216055  0.88193993  1  0  0.417037  0  0.892036  0  0  0.382332  0  0.96256  0  0  0.393144  0  0.947131  0  0  0.287172  0.374604  0  0.9736  0
H  H28  1  0.11940758  0.85896063  0.47411542  1  0  0.431963  0  0.812395  0  0  0.412446  0  0.871402  0  0  0.421265  0  0.861082  0  0  0.319569  0.406125  0  0.878894  0
H  H29  1  0.61941549  0.64104516  0.02589510  1  0  0.432051  0  0.8123  0  0  0.412515  0  0.871344  0  0  0.421334  0  0.861022  0  0  0.31962  0.406192  0  0.878842  0
H  H30  1  0.88059559  0.14104587  0.52588273  1  0  0.432031  0  0.812362  0  0  0.412515  0  0.871359  0  0  0.421334  0  0.861039  0  0  0.319596  0.406193  0  0.878855  0
H  H31  1  0.38059304  0.35896968  0.97410423  1  0  0.431904  0  0.812474  0  0  0.412357  0  0.871538  0  0  0.421176  0  0.861217  0  0  0.319503  0.40603  0  0.879042  0
H  H32  1  0.84937858  0.49685074  0.40530872  1  0  0.399245  0  0.879324  0  0  0.373515  0  0.945985  0  0  0.384508  0  0.934537  0  0  0.303465  0.365809  0  0.953964  0
H  H33  1  0.34937779  0.00314229  0.09468799  1  0  0.399324  0  0.879279  0  0  0.373591  0  0.945933  0  0  0.384581  0  0.934489  0  0  0.303496  0.365884  0  0.953912  0
H  H34  1  0.15063128  0.50314325  0.59468720  1  0  0.399363  0  0.879169  0  0  0.373594  0  0.945881  0  0  0.384583  0  0.93444  0  0  0.30353  0.36589  0  0.953856  0
H  H35  1  0.65061468  0.99685465  0.90531451  1  0  0.39932  0  0.879196  0  0  0.373594  0  0.945836  0  0  0.384585  0  0.934391  0  0  0.303551  0.365888  0  0.953816  0
C  C36  1  0.65844457  0.62009003  0.33915201  1  0  0.128541  0  3.632659  0  0  0.099753  0  3.890403  0  0  0.102696  0  3.897473  0  0  -0.006934  0.097555  0  3.88595  0
C  C37  1  0.15844495  0.87990405  0.16083461  1  0  0.128227  0  3.633122  0  0  0.099534  0  3.890732  0  0  0.102473  0  3.897799  0  0  -0.007002  0.097334  0  3.886278  0
C  C38  1  0.34155995  0.37990413  0.66083835  1  0  0.128566  0  3.632889  0  0  0.099811  0  3.890571  0  0  0.102757  0  3.897627  0  0  -0.006901  0.09761  0  3.886116  0
C  C39  1  0.84154617  0.12008547  0.83917044  1  0  0.128085  0  3.63323  0  0  0.099515  0  3.890665  0  0  0.102459  0  3.89773  0  0  -0.006955  0.097315  0  3.886211  0
C  C40  1  0.64022381  0.77902450  0.35212004  1  0  0.639656  0  3.855436  0  0  0.586529  0  4.161234  0  0  0.619119  0  4.154333  0  0  0.213377  0.564183  0  4.165576  0
C  C41  1  0.14021632  0.72097100  0.14788675  1  0  0.639693  0  3.855195  0  0  0.586599  0  4.160869  0  0  0.619197  0  4.153962  0  0  0.213522  0.56425  0  4.165209  0
C  C42  1  0.35978472  0.22097676  0.64787795  1  0  0.639594  0  3.855523  0  0  0.586498  0  4.161256  0  0  0.619087  0  4.154358  0  0  0.213353  0.56415  0  4.165599  0
C  C43  1  0.85977347  0.27902681  0.85212133  1  0  0.639735  0  3.855536  0  0  0.586681  0  4.161124  0  0  0.619265  0  4.154232  0  0  0.213368  0.564335  0  4.165457  0
C  C44  1  0.47605402  0.54937265  0.32628168  1  0  -0.335017  0  3.648468  0  0  -0.379767  0  3.898085  0  0  -0.386439  0  3.903468  0  0  -0.175417  -0.375028  0  3.894785  0
C  C45  1  0.97605580  0.95063113  0.17369857  1  0  -0.334814  0  3.648252  0  0  -0.379517  0  3.897904  0  0  -0.386198  0  3.90331  0  0  -0.175301  -0.37478  0  3.894595  0
C  C46  1  0.52395049  0.45062547  0.67371622  1  0  -0.335125  0  3.648416  0  0  -0.379813  0  3.897979  0  0  -0.386459  0  3.903384  0  0  -0.17534  -0.375077  0  3.894675  0
C  C47  1  0.02394335  0.04936906  0.82630032  1  0  -0.334682  0  3.648231  0  0  -0.379553  0  3.898008  0  0  -0.386227  0  3.903391  0  0  -0.175274  -0.374819  0  3.894702  0
C  C48  1  0.49121986  0.40512311  0.26817673  1  0  0.749239  0  3.769432  0  0  0.699994  0  4.065082  0  0  0.734818  0  4.056948  0  0  0.226914  0.676143  0  4.070166  0
C  C49  1  0.99122288  0.09488657  0.23180579  1  0  0.749298  0  3.769469  0  0  0.700015  0  4.065153  0  0  0.734837  0  4.057019  0  0  0.226995  0.676164  0  4.070237  0
C  C50  1  0.50878197  0.59487694  0.73182678  1  0  0.749272  0  3.769332  0  0  0.699993  0  4.065028  0  0  0.734821  0  4.056885  0  0  0.226858  0.676145  0  4.070108  0
C  C51  1  0.00878297  0.90512103  0.76819054  1  0  0.749266  0  3.769413  0  0  0.699922  0  4.065224  0  0  0.73474  0  4.057094  0  0  0.226924  0.676071  0  4.070307  0
O  O52  1  0.75736641  0.56318270  0.44114627  1  0  -0.584321  0  2.156342  0  0  -0.512579  0  2.396956  0  0  -0.533112  0  2.383314  0  0  -0.38592  -0.498417  0  2.406316  0
O  O53  1  0.25736944  0.93680844  0.05884535  1  0  -0.584299  0  2.156526  0  0  -0.512582  0  2.397146  0  0  -0.533104  0  2.383497  0  0  -0.38593  -0.498417  0  2.4065  0
O  O54  1  0.24264747  0.43681658  0.55884795  1  0  -0.584357  0  2.156297  0  0  -0.5126  0  2.396944  0  0  -0.533127  0  2.383292  0  0  -0.385963  -0.49844  0  2.406308  0
O  O55  1  0.74262570  0.06318329  0.94115606  1  0  -0.5842  0  2.156548  0  0  -0.512507  0  2.397114  0  0  -0.533037  0  2.383474  0  0  -0.385996  -0.498346  0  2.40647  0
O  O56  1  0.69861025  0.84163350  0.44724947  1  0  -0.602157  0  2.015523  0  0  -0.545519  0  2.26578  0  0  -0.570566  0  2.251001  0  0  -0.313153  -0.52796  0  2.275141  0
O  O57  1  0.19864113  0.65835364  0.05276344  1  0  -0.602204  0  2.015134  0  0  -0.545592  0  2.265369  0  0  -0.570643  0  2.250592  0  0  -0.313279  -0.528031  0  2.274728  0
O  O58  1  0.30137820  0.15836131  0.55275389  1  0  -0.60217  0  2.015398  0  0  -0.545568  0  2.265643  0  0  -0.570615  0  2.250866  0  0  -0.31322  -0.528011  0  2.275008  0
O  O59  1  0.80134197  0.34164420  0.94724371  1  0  -0.602257  0  2.015421  0  0  -0.545665  0  2.265661  0  0  -0.570713  0  2.250883  0  0  -0.31323  -0.528109  0  2.275024  0
O  O60  1  0.56835040  0.83964142  0.25973043  1  0  -0.639714  0  2.050275  0  0  -0.57166  0  2.270094  0  0  -0.599502  0  2.260539  0  0  -0.309559  -0.552034  0  2.276097  0
O  O61  1  0.06831319  0.66036775  0.24026650  1  0  -0.639666  0  2.050222  0  0  -0.571638  0  2.270024  0  0  -0.599484  0  2.260474  0  0  -0.309617  -0.552017  0  2.276022  0
O  O62  1  0.43167152  0.16035690  0.74026098  1  0  -0.639761  0  2.050257  0  0  -0.571704  0  2.270044  0  0  -0.599544  0  2.260487  0  0  -0.309526  -0.552079  0  2.276046  0
O  O63  1  0.93167660  0.33963006  0.75974158  1  0  -0.639756  0  2.050346  0  0  -0.571737  0  2.270105  0  0  -0.599575  0  2.260554  0  0  -0.309557  -0.55211  0  2.276092  0
O  O64  1  0.39523755  0.30389264  0.30800407  1  0  -0.659801  0  2.050485  0  0  -0.587597  0  2.296432  0  0  -0.616273  0  2.281763  0  0  -0.306103  -0.567615  0  2.305863  0
O  O65  1  0.89524259  0.19611459  0.19197888  1  0  -0.659936  0  2.050573  0  0  -0.5877  0  2.29656  0  0  -0.616352  0  2.281861  0  0  -0.306191  -0.567718  0  2.305994  0
O  O66  1  0.60476429  0.69610834  0.69200318  1  0  -0.659793  0  2.050406  0  0  -0.587582  0  2.296367  0  0  -0.616262  0  2.281704  0  0  -0.306094  -0.567601  0  2.305798  0
O  O67  1  0.10476326  0.80388902  0.80801084  1  0  -0.65986  0  2.050449  0  0  -0.587634  0  2.296483  0  0  -0.616278  0  2.281783  0  0  -0.306146  -0.567654  0  2.305922  0
O  O68  1  0.60002463  0.39383238  0.17819741  1  0  -0.650486  0  2.028221  0  0  -0.580812  0  2.283878  0  0  -0.609006  0  2.269477  0  0  -0.317451  -0.561252  0  2.293374  0
O  O69  1  0.10002434  0.10617252  0.32179339  1  0  -0.650398  0  2.02809  0  0  -0.580747  0  2.28378  0  0  -0.608942  0  2.269381  0  0  -0.317454  -0.561189  0  2.293278  0
O  O70  1  0.39997453  0.60616039  0.82180403  1  0  -0.650541  0  2.028192  0  0  -0.580852  0  2.28387  0  0  -0.609044  0  2.269466  0  0  -0.317448  -0.561291  0  2.293366  0
O  O71  1  0.89997616  0.89382982  0.67820371  1  0  -0.650526  0  2.028116  0  0  -0.580769  0  2.283781  0  0  -0.608965  0  2.269386  0  0  -0.317472  -0.561209  0  2.293278  0
O  O72  1  0.99917293  0.58601069  0.67852063  1  0  -0.840061  0  1.96994  0  0  -0.765757  0  2.180873  0  0  -0.7913  0  2.144121  0  0  -0.554424  -0.747333  0  2.205587  0
O  O73  1  0.49916215  0.91398211  0.82148209  1  0  -0.840085  0  1.969971  0  0  -0.765771  0  2.180883  0  0  -0.791336  0  2.144165  0  0  -0.554326  -0.747338  0  2.20558  0
O  O74  1  0.00083694  0.41398434  0.32147532  1  0  -0.840022  0  1.969984  0  0  -0.765707  0  2.180925  0  0  -0.791266  0  2.144188  0  0  -0.554415  -0.747273  0  2.20562  0
O  O75  1  0.50082630  0.08602005  0.17852056  1  0  -0.840061  0  1.969943  0  0  -0.765736  0  2.18087  0  0  -0.79129  0  2.144127  0  0  -0.554395  -0.747304  0  2.205567  0
O  O76  1  0.08865023  0.75980069  0.47165357  1  0  -0.818962  0  1.845189  0  0  -0.765483  0  2.037983  0  0  -0.78546  0  2.008217  0  0  -0.575331  -0.751552  0  2.058947  0
O  O77  1  0.58866139  0.74020412  0.02835093  1  0  -0.819007  0  1.845112  0  0  -0.765516  0  2.037957  0  0  -0.785491  0  2.008192  0  0  -0.575349  -0.751589  0  2.058922  0
O  O78  1  0.91134223  0.24020674  0.52834831  1  0  -0.819025  0  1.845128  0  0  -0.765532  0  2.037916  0  0  -0.785508  0  2.008151  0  0  -0.575344  -0.751603  0  2.058884  0
O  O79  1  0.41132438  0.25980639  0.97165291  1  0  -0.818899  0  1.845131  0  0  -0.765385  0  2.038001  0  0  -0.785361  0  2.008241  0  0  -0.575255  -0.751456  0  2.058968  0
