# generated using pymatgen
data_ZnH11C13N3O4
_symmetry_space_group_name_H-M   'P 1'
_cell_length_a   11.61362777
_cell_length_b   13.12829391
_cell_length_c   14.06900000
_cell_angle_alpha   90.00000000
_cell_angle_beta   93.15834069
_cell_angle_gamma   90.00000000
_symmetry_Int_Tables_number   1
_chemical_formula_structural   ZnH11C13N3O4
_chemical_formula_sum   'Zn4 H44 C52 N12 O16'
_cell_volume   2141.80173535
_cell_formula_units_Z   4
loop_
 _symmetry_equiv_pos_site_id
 _symmetry_equiv_pos_as_xyz
  1  'x, y, z'
loop_
 _atom_site_type_symbol
 _atom_site_label
 _atom_site_symmetry_multiplicity
 _atom_site_fract_x
 _atom_site_fract_y
 _atom_site_fract_z
 _atom_site_occupancy
 _atom_site_hle17_bader_spin_density
 _atom_site_hle17_ddec_charge
 _atom_site_hle17_ddec_spin_density
 _atom_site_hle17_ddec_sum_bond_order
 _atom_site_hle17_magmom
 _atom_site_hse06_10hf_bader_spin_density
 _atom_site_hse06_10hf_ddec_charge
 _atom_site_hse06_10hf_ddec_spin_density
 _atom_site_hse06_10hf_ddec_sum_bond_order
 _atom_site_hse06_10hf_magmom
 _atom_site_hse06_bader_spin_density
 _atom_site_hse06_ddec_charge
 _atom_site_hse06_ddec_spin_density
 _atom_site_hse06_ddec_sum_bond_order
 _atom_site_hse06_magmom
 _atom_site_pbe_bader_charge
 _atom_site_pbe_bader_spin_density
 _atom_site_pbe_cm5_charge
 _atom_site_pbe_ddec_charge
 _atom_site_pbe_ddec_spin_density
 _atom_site_pbe_ddec_sum_bond_order
 _atom_site_pbe_magmom
Zn  Zn0  1  0.44372848  0.56483348  0.41420027  1  0  0.981585  0  1.909562  0  0  0.795038  0  2.363968  0  0  0.842932  0  2.311599  0  1.291143  0  0.685357  0.76161  0  2.39958  0
Zn  Zn1  1  0.05626860  0.06483478  0.08579885  1  0  0.981635  0  1.909518  0  0  0.795082  0  2.363919  0  0  0.842978  0  2.311548  0  1.291154  0  0.685366  0.761646  0  2.39953  0
Zn  Zn2  1  0.55626827  0.43516622  0.58579880  1  0  0.981588  0  1.9096  0  0  0.795038  0  2.364009  0  0  0.842932  0  2.311639  0  1.291104  0  0.685353  0.761608  0  2.399622  0
Zn  Zn3  1  0.94372901  0.93516569  0.91420026  1  0  0.981663  0  1.909515  0  0  0.795098  0  2.363917  0  0  0.842991  0  2.311548  0  1.291152  0  0.685372  0.761661  0  2.399531  0
H  H4  1  0.95901275  0.23292897  0.34495863  1  0  0.339007  0  0.957893  0  0  0.300547  0  1.05797  0  0  0.312552  0  1.045699  0  0.628473  0  0.28434  0.292221  0  1.066263  0
H  H5  1  0.54098540  0.73292844  0.15504118  1  0  0.338986  0  0.957877  0  0  0.300537  0  1.057947  0  0  0.312541  0  1.045676  0  0.628418  0  0.284332  0.292211  0  1.066237  0
H  H6  1  0.04098573  0.76707225  0.65504052  1  0  0.338991  0  0.95788  0  0  0.300547  0  1.057941  0  0  0.312551  0  1.04567  0  0.628464  0  0.284348  0.292222  0  1.066229  0
H  H7  1  0.45901394  0.26707278  0.84495872  1  0  0.338994  0  0.957863  0  0  0.300551  0  1.057921  0  0  0.312555  0  1.045649  0  0.628462  0  0.284344  0.292224  0  1.066212  0
H  H8  1  0.52618028  0.69464929  0.56591237  1  0  0.404275  0  0.860736  0  0  0.383318  0  0.927664  0  0  0.390661  0  0.917952  0  0.602676  0  0.300387  0.378153  0  0.933486  0
H  H9  1  0.97381959  0.19464982  0.93408680  1  0  0.404282  0  0.86073  0  0  0.383323  0  0.92766  0  0  0.390668  0  0.917945  0  0.602665  0  0.300384  0.378158  0  0.933484  0
H  H10  1  0.47381906  0.30534965  0.43408753  1  0  0.404275  0  0.860761  0  0  0.383325  0  0.927671  0  0  0.390669  0  0.917944  0  0.602538  0  0.300404  0.378161  0  0.933493  0
H  H11  1  0.02617974  0.80535065  0.06591239  1  0  0.404258  0  0.860766  0  0  0.383303  0  0.927689  0  0  0.390646  0  0.917973  0  0.602537  0  0.300408  0.378138  0  0.933513  0
H  H12  1  0.46894151  0.75091631  0.47933730  1  0  0.407269  0  0.86171  0  0  0.386507  0  0.92508  0  0  0.394955  0  0.912603  0  0.6194  0  0.297421  0.380537  0  0.93391  0
H  H13  1  0.03105729  0.25091684  0.02066261  1  0  0.40725  0  0.861689  0  0  0.386487  0  0.925099  0  0  0.394935  0  0.912623  0  0.619439  0  0.297396  0.380517  0  0.93393  0
H  H14  1  0.53105955  0.24908263  0.52066268  1  0  0.407238  0  0.861731  0  0  0.386478  0  0.925116  0  0  0.394926  0  0.91264  0  0.6194  0  0.297413  0.380511  0  0.933941  0
H  H15  1  0.96894032  0.74908210  0.97933721  1  0  0.407231  0  0.861733  0  0  0.386467  0  0.92513  0  0  0.394916  0  0.912654  0  0.619396  0  0.297414  0.3805  0  0.933956  0
H  H16  1  0.73935918  0.32699603  0.49067280  1  0  0.141141  0  0.971138  0  0  0.149521  0  1.035542  0  0  0.154383  0  1.032214  0  0.122699  0  0.101977  0.146128  0  1.037942  0
H  H17  1  0.76063896  0.82699702  0.00932630  1  0  0.141156  0  0.971124  0  0  0.149542  0  1.035523  0  0  0.154404  0  1.032195  0  0.122684  0  0.10199  0.146148  0  1.037924  0
H  H18  1  0.26063843  0.67300291  0.50932631  1  0  0.141153  0  0.971157  0  0  0.149555  0  1.035532  0  0  0.154417  0  1.032204  0  0.122703  0  0.101994  0.146162  0  1.03793  0
H  H19  1  0.23936124  0.17300268  0.99067293  1  0  0.141177  0  0.971107  0  0  0.149563  0  1.035506  0  0  0.154426  0  1.032177  0  0.122674  0  0.101997  0.146169  0  1.037907  0
H  H20  1  0.92156359  0.35652310  0.23262355  1  0  0.113798  0  0.962986  0  0  0.121876  0  1.024378  0  0  0.125039  0  1.024704  0  0.09085  0  0.098679  0.119668  0  1.024347  0
H  H21  1  0.57843628  0.85652028  0.26737776  1  0  0.11383  0  0.96298  0  0  0.121904  0  1.02437  0  0  0.125066  0  1.024699  0  0.090817  0  0.098678  0.119695  0  1.024339  0
H  H22  1  0.07843661  0.64347965  0.76737781  1  0  0.113827  0  0.962983  0  0  0.1219  0  1.024381  0  0  0.125062  0  1.024709  0  0.090824  0  0.098696  0.119691  0  1.02435  0
H  H23  1  0.42156219  0.14347942  0.73262139  1  0  0.113837  0  0.962975  0  0  0.121905  0  1.024376  0  0  0.125066  0  1.024706  0  0.090852  0  0.09867  0.119696  0  1.024345  0
H  H24  1  0.78991374  0.49612082  0.18028100  1  0  0.089826  0  0.936667  0  0  0.103949  0  0.98921  0  0  0.106643  0  0.986923  0  0.056703  0  0.103816  0.101994  0  0.990838  0
H  H25  1  0.71008613  0.99611725  0.31972173  1  0  0.089814  0  0.936683  0  0  0.103936  0  0.989232  0  0  0.106631  0  0.986942  0  0.056684  0  0.103835  0.10198  0  0.99086  0
H  H26  1  0.21008560  0.50388269  0.81972174  1  0  0.089811  0  0.936665  0  0  0.103935  0  0.989213  0  0  0.106629  0  0.986926  0  0.056679  0  0.103833  0.101979  0  0.990842  0
H  H27  1  0.28991407  0.00388169  0.68027821  1  0  0.089802  0  0.936662  0  0  0.103928  0  0.98921  0  0  0.106621  0  0.986924  0  0.056672  0  0.103824  0.101972  0  0.990838  0
H  H28  1  0.64461693  0.60192132  0.19354637  1  0  0.077058  0  0.935901  0  0  0.089019  0  0.999268  0  0  0.09241  0  0.993509  0  0.111646  0  0.118662  0.086539  0  1.003293  0
H  H29  1  0.85538552  0.10191652  0.30645932  1  0  0.077105  0  0.935852  0  0  0.089061  0  0.999215  0  0  0.092454  0  0.993455  0  0.111602  0  0.118671  0.086579  0  1.003239  0
H  H30  1  0.35538499  0.39808295  0.80645862  1  0  0.077079  0  0.93586  0  0  0.089041  0  0.999219  0  0  0.092434  0  0.99346  0  0.1116  0  0.118678  0.086562  0  1.003242  0
H  H31  1  0.14461381  0.89808166  0.69354129  1  0  0.077117  0  0.935808  0  0  0.089072  0  0.999178  0  0  0.092468  0  0.993417  0  0.111606  0  0.118682  0.086591  0  1.003202  0
H  H32  1  0.19202073  0.81398543  0.35166936  1  0  0.126306  0  0.933115  0  0  0.135925  0  0.987858  0  0  0.140365  0  0.985259  0  0.117634  0  0.115719  0.13266  0  0.98998  0
H  H33  1  0.30797808  0.31398215  0.14832629  1  0  0.126428  0  0.933184  0  0  0.136015  0  0.987944  0  0  0.140455  0  0.985349  0  0.117551  0  0.115777  0.132749  0  0.990066  0
H  H34  1  0.80797947  0.18601732  0.64832632  1  0  0.126416  0  0.933207  0  0  0.136007  0  0.987965  0  0  0.140446  0  0.985372  0  0.117548  0  0.115775  0.13274  0  0.990087  0
H  H35  1  0.69202126  0.68601450  0.85167006  1  0  0.126315  0  0.933105  0  0  0.135939  0  0.987838  0  0  0.140379  0  0.985239  0  0.117628  0  0.115722  0.132673  0  0.989961  0
H  H36  1  0.07001646  0.94825802  0.26867017  1  0  0.07895  0  0.947474  0  0  0.086228  0  1.009846  0  0  0.088434  0  1.008628  0  0.097697  0  0.117123  0.084472  0  1.011069  0
H  H37  1  0.42998580  0.44825779  0.23132563  1  0  0.07897  0  0.947401  0  0  0.086241  0  1.009786  0  0  0.088449  0  1.008566  0  0.097631  0  0.11713  0.084485  0  1.011008  0
H  H38  1  0.92998633  0.05174244  0.73132775  1  0  0.078963  0  0.947403  0  0  0.086237  0  1.009789  0  0  0.088444  0  1.008568  0  0.097637  0  0.117134  0.08448  0  1.011011  0
H  H39  1  0.57001354  0.55173963  0.76867143  1  0  0.078959  0  0.947401  0  0  0.086246  0  1.009773  0  0  0.088453  0  1.008553  0  0.097634  0  0.117141  0.08449  0  1.010994  0
H  H40  1  0.27041250  0.94337087  0.03412225  1  0  0.086852  0  0.93408  0  0  0.096489  0  0.991912  0  0  0.098836  0  0.990595  0  0.117638  0  0.121401  0.094735  0  0.992897  0
H  H41  1  0.22958890  0.44337444  0.46587778  1  0  0.086858  0  0.934065  0  0  0.096497  0  0.991899  0  0  0.098845  0  0.99058  0  0.117549  0  0.121408  0.094744  0  0.992884  0
H  H42  1  0.72958770  0.05662807  0.96587769  1  0  0.086862  0  0.934087  0  0  0.096498  0  0.991927  0  0  0.098846  0  0.990608  0  0.117639  0  0.121399  0.094744  0  0.992913  0
H  H43  1  0.77041217  0.55662678  0.53412362  1  0  0.086847  0  0.93412  0  0  0.096513  0  0.991922  0  0  0.098861  0  0.990603  0  0.117728  0  0.121416  0.094759  0  0.992906  0
H  H44  1  0.39947266  0.81069026  0.10585018  1  0  0.117697  0  0.962447  0  0  0.128115  0  1.019238  0  0  0.131992  0  1.017224  0  0.143695  0  0.1154  0.125337  0  1.020934  0
H  H45  1  0.10052701  0.31069003  0.39415119  1  0  0.117692  0  0.962438  0  0  0.128104  0  1.019233  0  0  0.131982  0  1.017219  0  0.143676  0  0.115398  0.125326  0  1.020928  0
H  H46  1  0.60052841  0.18931097  0.89414909  1  0  0.117706  0  0.962469  0  0  0.128097  0  1.019283  0  0  0.131975  0  1.017271  0  0.14382  0  0.11541  0.125321  0  1.020974  0
H  H47  1  0.89947060  0.68930739  0.60585005  1  0  0.11773  0  0.962406  0  0  0.128131  0  1.019216  0  0  0.132009  0  1.017202  0  0.143932  0  0.11541  0.125353  0  1.020914  0
C  C48  1  0.67170820  0.44200793  0.39285084  1  0  0.361843  0  3.847002  0  0  0.342422  0  4.108637  0  0  0.361517  0  4.124532  0  0.569059  0  0.084622  0.329783  0  4.097349  0
C  C49  1  0.82829167  0.94200664  0.10715117  1  0  0.361838  0  3.846952  0  0  0.342484  0  4.10858  0  0  0.361577  0  4.124475  0  0.569148  0  0.084603  0.32984  0  4.0973  0
C  C50  1  0.32829114  0.55799330  0.60715048  1  0  0.361867  0  3.846972  0  0  0.34251  0  4.108588  0  0  0.361606  0  4.124483  0  0.569156  0  0.084628  0.329867  0  4.097301  0
C  C51  1  0.17170853  0.05799306  0.89284876  1  0  0.361868  0  3.846876  0  0  0.342517  0  4.108497  0  0  0.361611  0  4.124392  0  0.569166  0  0.084593  0.32987  0  4.097217  0
C  C52  1  0.74900131  0.36446701  0.42238718  1  0  -0.366861  0  3.703548  0  0  -0.394181  0  3.95969  0  0  -0.408244  0  3.977039  0  -0.000594  0  -0.14213  -0.384791  0  3.947687  0
C  C53  1  0.75099856  0.86446648  0.07761342  1  0  -0.366849  0  3.703545  0  0  -0.394144  0  3.959673  0  0  -0.408206  0  3.977021  0  -0.000568  0  -0.142101  -0.384756  0  3.947675  0
C  C54  1  0.25099802  0.63553346  0.57761343  1  0  -0.366888  0  3.70355  0  0  -0.394232  0  3.95967  0  0  -0.408294  0  3.977017  0  -0.000576  0  -0.142119  -0.384839  0  3.947668  0
C  C55  1  0.24900251  0.13553322  0.92238585  1  0  -0.3669  0  3.703554  0  0  -0.394208  0  3.95967  0  0  -0.408271  0  3.977019  0  -0.000525  0  -0.142118  -0.38482  0  3.947674  0
C  C56  1  0.83767509  0.33299986  0.36550813  1  0  0.389332  0  3.839742  0  0  0.38359  0  4.097862  0  0  0.400582  0  4.11254  0  0.480009  0  0.086093  0.372381  0  4.087501  0
C  C57  1  0.66232651  0.83299704  0.13449467  1  0  0.389316  0  3.839621  0  0  0.383497  0  4.097864  0  0  0.400489  0  4.11254  0  0.479992  0  0.086029  0.372287  0  4.087505  0
C  C58  1  0.16232597  0.66700289  0.63449469  1  0  0.389329  0  3.839843  0  0  0.383583  0  4.097976  0  0  0.400575  0  4.112651  0  0.47997  0  0.086043  0.372373  0  4.087616  0
C  C59  1  0.33767369  0.16700266  0.86550526  1  0  0.389269  0  3.839875  0  0  0.383488  0  4.098061  0  0  0.400483  0  4.112737  0  0.479974  0  0.086  0.372279  0  4.087701  0
C  C60  1  0.85288035  0.38103733  0.27700570  1  0  -0.251636  0  3.797678  0  0  -0.273786  0  4.054445  0  0  -0.286214  0  4.077501  0  -0.050507  0  -0.131613  -0.265737  0  4.038962  0
C  C61  1  0.64712038  0.88103603  0.22299636  1  0  -0.251653  0  3.797626  0  0  -0.273766  0  4.0544  0  0  -0.286196  0  4.077458  0  -0.050438  0  -0.13153  -0.265717  0  4.038918  0
C  C62  1  0.14712072  0.61896466  0.72299570  1  0  -0.251714  0  3.797687  0  0  -0.27385  0  4.054447  0  0  -0.286277  0  4.077503  0  -0.050433  0  -0.131623  -0.265799  0  4.038964  0
C  C63  1  0.35287809  0.11896443  0.77700279  1  0  -0.25169  0  3.797657  0  0  -0.273809  0  4.054427  0  0  -0.286236  0  4.077481  0  -0.050456  0  -0.131546  -0.26576  0  4.038944  0
C  C64  1  0.77873746  0.45832764  0.24828148  1  0  -0.05021  0  3.822271  0  0  -0.072007  0  4.07329  0  0  -0.066295  0  4.095125  0  -0.022935  0  -0.088449  -0.075369  0  4.058017  0
C  C65  1  0.72126499  0.95832407  0.25172208  1  0  -0.050194  0  3.822279  0  0  -0.071942  0  4.073337  0  0  -0.066231  0  4.09517  0  -0.022982  0  -0.088477  -0.075304  0  4.058065  0
C  C66  1  0.22126446  0.54167511  0.75172209  1  0  -0.050136  0  3.822239  0  0  -0.071899  0  4.073293  0  0  -0.066186  0  4.095124  0  -0.022988  0  -0.088435  -0.07526  0  4.05802  0
C  C67  1  0.27873520  0.04167487  0.74827786  1  0  -0.050138  0  3.822263  0  0  -0.071897  0  4.073317  0  0  -0.066185  0  4.09515  0  -0.022989  0  -0.088435  -0.07526  0  4.058045  0
C  C68  1  0.68676427  0.49157873  0.30286177  1  0  -0.128031  0  3.838014  0  0  -0.114138  0  4.089563  0  0  -0.130613  0  4.119282  0  -0.004978  0  -0.047064  -0.103386  0  4.069279  0
C  C69  1  0.81323646  0.99157591  0.19714100  1  0  -0.127993  0  3.838006  0  0  -0.114281  0  4.089782  0  0  -0.130754  0  4.119503  0  -0.004993  0  -0.047122  -0.103529  0  4.069503  0
C  C70  1  0.31323507  0.50842402  0.69714097  1  0  -0.128069  0  3.838066  0  0  -0.114315  0  4.089798  0  0  -0.130792  0  4.119515  0  -0.004943  0  -0.047142  -0.103564  0  4.069515  0
C  C71  1  0.18676374  0.00842303  0.80285894  1  0  -0.128008  0  3.837962  0  0  -0.114269  0  4.089704  0  0  -0.130743  0  4.119424  0  -0.004995  0  -0.047092  -0.103517  0  4.069425  0
C  C72  1  0.61751877  0.57178869  0.26165150  1  0  0.120191  0  3.69425  0  0  0.075072  0  3.956732  0  0  0.09179  0  3.966139  0  0.519892  0  0.062266  0.064194  0  3.949997  0
C  C73  1  0.88248110  0.07178541  0.23835123  1  0  0.120056  0  3.694416  0  0  0.074989  0  3.956932  0  0  0.091705  0  3.966341  0  0.519913  0  0.062221  0.064113  0  3.950196  0
C  C74  1  0.38248057  0.42821482  0.73835124  1  0  0.120114  0  3.694374  0  0  0.07503  0  3.956902  0  0  0.091748  0  3.966311  0  0.519871  0  0.062231  0.064152  0  3.950165  0
C  C75  1  0.11751823  0.92821429  0.76164938  1  0  0.12008  0  3.694405  0  0  0.074986  0  3.956922  0  0  0.091701  0  3.96633  0  0.519942  0  0.062196  0.06411  0  3.950185  0
C  C76  1  0.37795487  0.72246097  0.28749931  1  0  0.450694  0  3.872806  0  0  0.411057  0  4.158774  0  0  0.437015  0  4.162528  0  1.267521  0  0.209058  0.393847  0  4.155277  0
C  C77  1  0.12204566  0.22245998  0.21250210  1  0  0.450796  0  3.872749  0  0  0.411131  0  4.158721  0  0  0.437086  0  4.162478  0  1.267374  0  0.209093  0.393925  0  4.155221  0
C  C78  1  0.62204533  0.27754101  0.71250134  1  0  0.450779  0  3.872773  0  0  0.411073  0  4.158837  0  0  0.437027  0  4.162596  0  1.267384  0  0.209071  0.393869  0  4.155335  0
C  C79  1  0.87795454  0.77753896  0.78749784  1  0  0.450757  0  3.872747  0  0  0.411104  0  4.158712  0  0  0.437059  0  4.16247  0  1.267501  0  0.209087  0.393895  0  4.155215  0
C  C80  1  0.30713382  0.80186962  0.23661258  1  0  0.032801  0  3.736469  0  0  0.047063  0  3.972794  0  0  0.047641  0  3.992221  0  -0.050602  0  0.012208  0.046477  0  3.959752  0
C  C81  1  0.19286930  0.30186862  0.26338682  1  0  0.032838  0  3.736651  0  0  0.047163  0  3.972871  0  0  0.047745  0  3.992299  0  -0.050496  0  0.012219  0.046571  0  3.959829  0
C  C82  1  0.69286983  0.19813161  0.76338539  1  0  0.032957  0  3.736447  0  0  0.047253  0  3.972729  0  0  0.047836  0  3.99215  0  -0.050486  0  0.012261  0.046657  0  3.959687  0
C  C83  1  0.80713349  0.69813032  0.73661324  1  0  0.032743  0  3.736531  0  0  0.047035  0  3.972813  0  0  0.047615  0  3.992239  0  -0.050639  0  0.012171  0.046447  0  3.959772  0
C  C84  1  0.21207163  0.84171485  0.28156699  1  0  -0.131618  0  3.705975  0  0  -0.151361  0  3.947013  0  0  -0.156901  0  3.966439  0  0.07503  0  -0.078274  -0.147848  0  3.934251  0
C  C85  1  0.28792890  0.34171538  0.21842945  1  0  -0.131831  0  3.706171  0  0  -0.151571  0  3.947204  0  0  -0.157113  0  3.966631  0  0.075066  0  -0.07836  -0.148052  0  3.934441  0
C  C86  1  0.78793030  0.15828485  0.71842948  1  0  -0.131886  0  3.706201  0  0  -0.151613  0  3.947256  0  0  -0.157155  0  3.966681  0  0.075095  0  -0.078359  -0.148092  0  3.934491  0
C  C87  1  0.71207216  0.65828356  0.78156769  1  0  -0.13165  0  3.705912  0  0  -0.151404  0  3.946945  0  0  -0.156946  0  3.966371  0  0.074847  0  -0.07827  -0.147889  0  3.934184  0
C  C88  1  0.14443444  0.91576637  0.23566335  1  0  0.116976  0  3.725673  0  0  0.089185  0  3.976202  0  0  0.095223  0  3.994353  0  0.437189  0  0.043825  0.085062  0  3.964193  0
C  C89  1  0.35556781  0.41576613  0.26433458  1  0  0.116971  0  3.725589  0  0  0.089185  0  3.976113  0  0  0.095223  0  3.994265  0  0.437198  0  0.043808  0.08506  0  3.964103  0
C  C90  1  0.85556921  0.08423486  0.76433603  1  0  0.117052  0  3.725604  0  0  0.089261  0  3.976135  0  0  0.0953  0  3.994286  0  0.437148  0  0.043796  0.085135  0  3.964127  0
C  C91  1  0.64443325  0.58423052  0.73566397  1  0  0.117023  0  3.725511  0  0  0.089214  0  3.976063  0  0  0.095252  0  3.994213  0  0.437458  0  0.043841  0.085088  0  3.964054  0
C  C92  1  0.25655167  0.91328013  0.10477340  1  0  0.14415  0  3.679261  0  0  0.116881  0  3.925934  0  0  0.123823  0  3.94227  0  0.466019  0  0.054352  0.112286  0  3.915095  0
C  C93  1  0.24344800  0.41328142  0.39522584  1  0  0.14411  0  3.679256  0  0  0.116812  0  3.925947  0  0  0.123756  0  3.942283  0  0.466142  0  0.054331  0.112217  0  3.915104  0
C  C94  1  0.74344681  0.08671957  0.89522646  1  0  0.144068  0  3.679289  0  0  0.116773  0  3.925974  0  0  0.123717  0  3.942311  0  0.465634  0  0.054306  0.112177  0  3.915134  0
C  C95  1  0.75655220  0.58671675  0.60477552  1  0  0.144046  0  3.679424  0  0  0.116744  0  3.926109  0  0  0.123685  0  3.942448  0  0.465937  0  0.054285  0.112151  0  3.915267  0
C  C96  1  0.32852743  0.83900087  0.14571265  1  0  -0.128419  0  3.685777  0  0  -0.148175  0  3.927126  0  0  -0.153492  0  3.946035  0  -0.055672  0  -0.072684  -0.145012  0  3.915033  0
C  C97  1  0.17147224  0.33899988  0.35428730  1  0  -0.128399  0  3.6858  0  0  -0.148156  0  3.927117  0  0  -0.153473  0  3.946026  0  -0.055586  0  -0.07267  -0.144987  0  3.915025  0
C  C98  1  0.67147536  0.16100188  0.85428670  1  0  -0.128435  0  3.685806  0  0  -0.148152  0  3.927129  0  0  -0.153472  0  3.946039  0  -0.055296  0  -0.072683  -0.144983  0  3.915038  0
C  C99  1  0.82852623  0.66099754  0.64571327  1  0  -0.128378  0  3.685775  0  0  -0.148129  0  3.927117  0  0  -0.153446  0  3.946027  0  -0.055851  0  -0.072666  -0.144962  0  3.915022  0
N  N100  1  0.52492208  0.61074044  0.29639108  1  0  -0.222808  0  3.349982  0  0  -0.155045  0  3.640892  0  0  -0.170692  0  3.656829  0  -0.839529  0  -0.257176  -0.144522  0  3.629825  0
N  N101  1  0.97507692  0.11073792  0.20361090  1  0  -0.222765  0  3.35003  0  0  -0.15498  0  3.640895  0  0  -0.170624  0  3.656831  0  -0.839518  0  -0.257159  -0.144457  0  3.629827  0
N  N102  1  0.47507639  0.38926155  0.70361162  1  0  -0.222737  0  3.350027  0  0  -0.154964  0  3.640915  0  0  -0.170609  0  3.656852  0  -0.839515  0  -0.257162  -0.144441  0  3.629846  0
N  N103  1  0.02492328  0.88926102  0.79638833  1  0  -0.222877  0  3.350082  0  0  -0.155066  0  3.640938  0  0  -0.170707  0  3.656872  0  -0.839536  0  -0.257201  -0.144543  0  3.62987  0
N  N104  1  0.46828353  0.68560165  0.24373271  1  0  -0.376427  0  3.083946  0  0  -0.337517  0  3.352375  0  0  -0.358398  0  3.370638  0  -0.774293  0  -0.248435  -0.323432  0  3.339623  0
N  N105  1  0.03171873  0.18559914  0.25626949  1  0  -0.376483  0  3.083903  0  0  -0.337579  0  3.35234  0  0  -0.358463  0  3.370606  0  -0.77435  0  -0.248441  -0.323496  0  3.339589  0
N  N106  1  0.53171840  0.31440110  0.75626873  1  0  -0.376516  0  3.083956  0  0  -0.337599  0  3.352418  0  0  -0.358483  0  3.370684  0  -0.774327  0  -0.248442  -0.323515  0  3.339666  0
N  N107  1  0.96828147  0.81439904  0.74373115  1  0  -0.376388  0  3.083849  0  0  -0.337496  0  3.352267  0  0  -0.358381  0  3.370534  0  -0.774336  0  -0.248388  -0.323413  0  3.339514  0
N  N108  1  0.16583753  0.95167354  0.14863122  1  0  -0.32646  0  3.286017  0  0  -0.25004  0  3.557233  0  0  -0.266471  0  3.571678  0  -1.259909  0  -0.326875  -0.238955  0  3.547369  0
N  N109  1  0.33416300  0.45167484  0.35136664  1  0  -0.326426  0  3.286071  0  0  -0.249981  0  3.55728  0  0  -0.266414  0  3.571725  0  -1.259878  0  -0.326866  -0.238894  0  3.547412  0
N  N110  1  0.83416353  0.04832616  0.85136805  1  0  -0.32647  0  3.286012  0  0  -0.25003  0  3.557226  0  0  -0.266462  0  3.571672  0  -1.259857  0  -0.32686  -0.238945  0  3.547363  0
N  N111  1  0.66583720  0.54832258  0.64863259  1  0  -0.32642  0  3.286124  0  0  -0.249989  0  3.55735  0  0  -0.26642  0  3.571796  0  -1.259963  0  -0.32687  -0.238902  0  3.547481  0
O  O112  1  0.90672138  0.25615743  0.39741800  1  0  -0.520316  0  2.103074  0  0  -0.471016  0  2.314063  0  0  -0.490855  0  2.30191  0  -1.18476  0  -0.362643  -0.456862  0  2.321744  0
O  O113  1  0.59327848  0.75615842  0.10258331  1  0  -0.520287  0  2.103019  0  0  -0.470977  0  2.314039  0  0  -0.490814  0  2.301884  0  -1.184742  0  -0.362624  -0.456822  0  2.321721  0
O  O114  1  0.09327882  0.74384227  0.60258265  1  0  -0.520266  0  2.103222  0  0  -0.47098  0  2.314208  0  0  -0.490819  0  2.302054  0  -1.18478  0  -0.362615  -0.456826  0  2.321889  0
O  O115  1  0.40672085  0.24384204  0.89741659  1  0  -0.520215  0  2.103209  0  0  -0.470923  0  2.314207  0  0  -0.490759  0  2.302051  0  -1.184759  0  -0.362587  -0.456767  0  2.321889  0
O  O116  1  0.54242727  0.72215934  0.50376409  1  0  -0.790392  0  1.762887  0  0  -0.751658  0  1.91599  0  0  -0.767437  0  1.892532  0  -1.216445  0  -0.591545  -0.740447  0  1.931314  0
O  O117  1  0.95757259  0.22215834  0.99623580  1  0  -0.790376  0  1.76287  0  0  -0.751648  0  1.916012  0  0  -0.767429  0  1.892552  0  -1.216477  0  -0.591516  -0.74044  0  1.931339  0
O  O118  1  0.45757292  0.27783808  0.49623514  1  0  -0.79036  0  1.762932  0  0  -0.751635  0  1.916046  0  0  -0.767415  0  1.892572  0  -1.216283  0  -0.591558  -0.740426  0  1.931368  0
O  O119  1  0.04242674  0.77783755  0.00376552  1  0  -0.790342  0  1.762932  0  0  -0.751614  0  1.916058  0  0  -0.767394  0  1.892595  0  -1.216316  0  -0.591568  -0.740408  0  1.931382  0
O  O120  1  0.58615447  0.46828324  0.44756885  1  0  -0.662017  0  2.218131  0  0  -0.56627  0  2.509512  0  0  -0.597586  0  2.496486  0  -1.186742  0  -0.343308  -0.543928  0  2.517253  0
O  O121  1  0.91384367  0.96828423  0.05243095  1  0  -0.662056  0  2.218122  0  0  -0.566291  0  2.509455  0  0  -0.597609  0  2.49643  0  -1.186827  0  -0.343284  -0.543924  0  2.517143  0
O  O122  1  0.41384314  0.53171494  0.55243168  1  0  -0.662017  0  2.218091  0  0  -0.566253  0  2.509415  0  0  -0.597572  0  2.496391  0  -1.186796  0  -0.343264  -0.54391  0  2.517164  0
O  O123  1  0.08615566  0.03171547  0.94756823  1  0  -0.66209  0  2.218114  0  0  -0.566333  0  2.50945  0  0  -0.597651  0  2.496426  0  -1.186788  0  -0.343275  -0.543959  0  2.517132  0
O  O124  1  0.34717957  0.69421359  0.37037501  1  0  -0.624553  0  2.056098  0  0  -0.556622  0  2.304556  0  0  -0.583611  0  2.293637  0  -1.167954  0  -0.322513  -0.537814  0  2.31125  0
O  O125  1  0.15281838  0.19421335  0.12962557  1  0  -0.624615  0  2.05605  0  0  -0.556669  0  2.304509  0  0  -0.583657  0  2.293591  0  -1.167926  0  -0.322533  -0.537862  0  2.311203  0
O  O126  1  0.65281718  0.30578688  0.62962477  1  0  -0.624599  0  2.056138  0  0  -0.556628  0  2.304616  0  0  -0.583615  0  2.293699  0  -1.167945  0  -0.32251  -0.537822  0  2.311309  0
O  O127  1  0.84718096  0.80578635  0.87037432  1  0  -0.62461  0  2.056038  0  0  -0.556652  0  2.304481  0  0  -0.58364  0  2.293564  0  -1.167903  0  -0.32254  -0.537845  0  2.311176  0
