# generated using pymatgen
data_Cd3H10(C9O7)2
_symmetry_space_group_name_H-M   'P 1'
_cell_length_a   6.28885703
_cell_length_b   9.67157457
_cell_length_c   9.79346343
_cell_angle_alpha   63.66382021
_cell_angle_beta   81.92598974
_cell_angle_gamma   77.94275115
_symmetry_Int_Tables_number   1
_chemical_formula_structural   Cd3H10(C9O7)2
_chemical_formula_sum   'Cd3 H10 C18 O14'
_cell_volume   521.28935638
_cell_formula_units_Z   1
loop_
 _symmetry_equiv_pos_site_id
 _symmetry_equiv_pos_as_xyz
  1  'x, y, z'
loop_
 _atom_site_type_symbol
 _atom_site_label
 _atom_site_symmetry_multiplicity
 _atom_site_fract_x
 _atom_site_fract_y
 _atom_site_fract_z
 _atom_site_occupancy
 _atom_site_pbe_bader_spin_density
 _atom_site_pbe_cm5_charge
 _atom_site_pbe_ddec_charge
 _atom_site_pbe_ddec_spin_density
 _atom_site_pbe_ddec_sum_bond_order
 _atom_site_pbe_magmom
Cd  Cd0  1  0.21104797  0.43626853  0.36010531  1  0  0.78133  1.038096  0  2.005782  0
Cd  Cd1  1  0.78895410  0.56373190  0.63989605  1  0  0.781334  1.038099  0  2.005766  0
Cd  Cd2  1  0.50000342  0.49999920  0.00000135  1  0  0.790652  1.101749  0  2.062309  0
H  H3  1  0.14325630  0.39054356  0.90538273  1  0  0.102304  0.094115  0  1.058916  0
H  H4  1  0.85674567  0.60945688  0.09461659  1  0  0.102282  0.094068  0  1.058858  0
H  H5  1  0.29934444  0.97978526  0.82096643  1  0  0.115313  0.128229  0  0.989872  0
H  H6  1  0.70064920  0.02021648  0.17903220  1  0  0.115295  0.128176  0  0.98995  0
H  H7  1  0.19204923  0.93474618  0.28259405  1  0  0.120051  0.13536  0  0.96923  0
H  H8  1  0.80794975  0.06525314  0.71740609  1  0  0.12005  0.135369  0  0.969227  0
H  H9  1  0.31692941  0.53581392  0.69960571  1  0  0.290635  0.391012  0  0.946305  0
H  H10  1  0.68307615  0.46418528  0.30039683  1  0  0.290637  0.391034  0  0.946282  0
H  H11  1  0.27789401  0.69914579  0.70003365  1  0  0.308987  0.418892  0  0.88686  0
H  H12  1  0.72210838  0.30085346  0.29997024  1  0  0.308959  0.418854  0  0.886922  0
C  C13  1  0.12414732  0.25085621  0.20791441  1  0  0.213988  0.594314  0  4.163015  0
C  C14  1  0.87585489  0.74914306  0.79208540  1  0  0.213972  0.594344  0  4.163025  0
C  C15  1  0.22193861  0.29762755  0.67800076  1  0  0.209057  0.58349  0  4.173185  0
C  C16  1  0.77806015  0.70237294  0.32199888  1  0  0.209085  0.583508  0  4.173217  0
C  C17  1  0.29167142  0.76574233  0.11214567  1  0  0.212784  0.588678  0  4.209581  0
C  C18  1  0.70832568  0.23425819  0.88785312  1  0  0.212788  0.588649  0  4.209555  0
C  C19  1  0.17122679  0.17105564  0.10430165  1  0  -0.01242  -0.024362  0  3.955242  0
C  C20  1  0.82877220  0.82894368  0.89569849  1  0  -0.012421  -0.024412  0  3.955322  0
C  C21  1  0.17902136  0.26399153  0.94720904  1  0  -0.076967  -0.098048  0  3.942758  0
C  C22  1  0.82098014  0.73601125  0.05278931  1  0  -0.076959  -0.098007  0  3.942759  0
C  C23  1  0.22325634  0.19644634  0.84453685  1  0  -0.022001  -0.049896  0  3.998524  0
C  C24  1  0.77674241  0.80355415  0.15546279  1  0  -0.021976  -0.049852  0  3.998505  0
C  C25  1  0.26376754  0.03340233  0.90026855  1  0  -0.062312  -0.077147  0  3.900929  0
C  C26  1  0.73622638  0.96659823  0.09973158  1  0  -0.062315  -0.07713  0  3.901002  0
C  C27  1  0.25386213  0.93957133  0.05727393  1  0  -0.017488  -0.050971  0  3.974375  0
C  C28  1  0.74613502  0.06042918  0.94272588  1  0  -0.017531  -0.051004  0  3.974406  0
C  C29  1  0.20412852  0.00810308  0.16018864  1  0  -0.052322  -0.065185  0  3.847735  0
C  C30  1  0.79586858  0.99189743  0.83981015  1  0  -0.052271  -0.065132  0  3.847659  0
O  O31  1  0.26895230  0.23439249  0.58622664  1  0  -0.300843  -0.493367  0  2.197451  0
O  O32  1  0.73104669  0.76560683  0.41377349  1  0  -0.300813  -0.49334  0  2.197446  0
O  O33  1  0.17067552  0.44824411  0.62974550  1  0  -0.332874  -0.617059  0  2.29666  0
O  O34  1  0.82932641  0.55175633  0.37025281  1  0  -0.332904  -0.617074  0  2.29669  0
O  O35  1  0.00985283  0.19996208  0.32898725  1  0  -0.304086  -0.521354  0  2.099898  0
O  O36  1  0.99014796  0.80003605  0.67101219  1  0  -0.304089  -0.521349  0  2.099906  0
O  O37  1  0.20805066  0.37898204  0.16168136  1  0  -0.344454  -0.616835  0  2.374455  0
O  O38  1  0.79195718  0.62101364  0.83832146  1  0  -0.344444  -0.616877  0  2.374431  0
O  O39  1  0.33111918  0.71678108  0.00822131  1  0  -0.330949  -0.576595  0  2.359839  0
O  O40  1  0.66887820  0.28321826  0.99177899  1  0  -0.330972  -0.576599  0  2.359797  0
O  O41  1  0.27902682  0.68136373  0.25556914  1  0  -0.323543  -0.550994  0  2.274681  0
O  O42  1  0.72097193  0.31863676  0.74443051  1  0  -0.323528  -0.550968  0  2.27467  0
O  O43  1  0.38518308  0.60093556  0.73130799  1  0  -0.569521  -0.781243  0  2.09442  0
O  O44  1  0.61482064  0.39906484  0.26869423  1  0  -0.569497  -0.781237  0  2.094444  0
