# generated using pymatgen
data_NiH7C7NO6
_symmetry_space_group_name_H-M   'P 1'
_cell_length_a   7.15550836
_cell_length_b   9.20506597
_cell_length_c   13.03795610
_cell_angle_alpha   89.99958747
_cell_angle_beta   90.00020625
_cell_angle_gamma   90.00014350
_symmetry_Int_Tables_number   1
_chemical_formula_structural   NiH7C7NO6
_chemical_formula_sum   'Ni4 H28 C28 N4 O24'
_cell_volume   858.77009669
_cell_formula_units_Z   4
loop_
 _symmetry_equiv_pos_site_id
 _symmetry_equiv_pos_as_xyz
  1  'x, y, z'
loop_
 _atom_site_type_symbol
 _atom_site_label
 _atom_site_symmetry_multiplicity
 _atom_site_fract_x
 _atom_site_fract_y
 _atom_site_fract_z
 _atom_site_occupancy
 _atom_site_hle17_ddec_charge
 _atom_site_hle17_ddec_spin_density
 _atom_site_hle17_ddec_sum_bond_order
 _atom_site_hle17_magmom
 _atom_site_hse06_10hf_ddec_charge
 _atom_site_hse06_10hf_ddec_spin_density
 _atom_site_hse06_10hf_ddec_sum_bond_order
 _atom_site_hse06_10hf_magmom
 _atom_site_hse06_ddec_charge
 _atom_site_hse06_ddec_spin_density
 _atom_site_hse06_ddec_sum_bond_order
 _atom_site_hse06_magmom
 _atom_site_pbe_cm5_charge
 _atom_site_pbe_ddec_charge
 _atom_site_pbe_ddec_spin_density
 _atom_site_pbe_ddec_sum_bond_order
 _atom_site_pbe_magmom
Ni  Ni0  1  0.11443592  0.12524617  0.26146332  1  0.938179  -1.766489  1.850033  -1.525  0.945436  -1.825282  2.234361  -1.649  1.033647  -1.877463  2.164623  -1.734  0.628988  0.872929  -1.775264  2.295796  -1.572
Ni  Ni1  1  0.38556542  0.87475737  0.76145947  1  0.938239  -1.766524  1.850069  -1.525  0.945506  -1.825277  2.234416  -1.649  1.033738  -1.87745  2.164614  -1.734  0.628999  0.872989  -1.775262  2.295861  -1.572
Ni  Ni2  1  0.88556563  0.62524347  0.23853743  1  0.938215  -1.766524  1.850203  -1.525  0.945501  -1.825274  2.234528  -1.649  1.033694  -1.87745  2.164795  -1.734  0.628985  0.873004  -1.775262  2.295942  -1.572
Ni  Ni3  1  0.61443720  0.37475368  0.73853872  1  0.938208  -1.766498  1.850095  -1.525  0.9455  -1.825274  2.234439  -1.649  1.033703  -1.877456  2.164699  -1.734  0.629028  0.87299  -1.775249  2.295874  -1.572
H  H4  1  0.58911970  0.90363213  0.48938092  1  0.111938  -0.000594  0.979923  -0.001  0.11625  -0.000527  1.047816  -0.001  0.120532  -0.000352  1.04421  0.0  0.112826  0.112995  -0.00068  1.050986  -0.001
H  H5  1  0.91088048  0.09635605  0.98937740  1  0.111681  -0.000593  0.980059  -0.001  0.116092  -0.000527  1.047874  -0.001  0.120376  -0.000352  1.044263  0.0  0.112792  0.112835  -0.00068  1.051046  -0.001
H  H6  1  0.41087993  0.40364331  0.01062373  1  0.111678  -0.000593  0.980066  -0.001  0.116084  -0.000527  1.04788  -0.001  0.12037  -0.000352  1.044266  0.0  0.112784  0.112826  -0.00068  1.051059  -0.001
H  H7  1  0.08911148  0.59636920  0.51062380  1  0.111795  -0.000593  0.979956  -0.001  0.116141  -0.000527  1.047839  -0.001  0.120428  -0.000352  1.044225  0.0  0.112772  0.112885  -0.00068  1.051008  -0.001
H  H8  1  0.84462920  0.09220323  0.46550842  1  0.114253  1.2e-05  0.928896  0.0  0.12381  0.000134  0.987454  0.0  0.127113  0.000152  0.985054  0.0  0.116166  0.121316  0.000106  0.989628  0.0
H  H9  1  0.65535965  0.90778845  0.96549624  1  0.11424  1.1e-05  0.928806  0.0  0.123731  0.000135  0.987407  0.0  0.127039  0.000152  0.985008  0.0  0.116139  0.121235  0.000107  0.989578  0.0
H  H10  1  0.15537085  0.59221193  0.03450247  1  0.114196  1.1e-05  0.928904  0.0  0.123718  0.000135  0.987466  0.0  0.127025  0.000152  0.985068  0.0  0.116154  0.121217  0.000107  0.989637  0.0
H  H11  1  0.34462770  0.40779817  0.53449027  1  0.114149  1.1e-05  0.928904  0.0  0.123722  0.000135  0.987468  0.0  0.127025  0.000152  0.985068  0.0  0.116135  0.121232  0.000106  0.989637  0.0
H  H12  1  0.45509135  0.33553063  0.27989852  1  0.103899  -0.001056  0.926695  -0.002  0.108724  -0.000825  0.992175  -0.001  0.111681  -0.00055  0.988956  -0.001  0.124501  0.106342  -0.00108  0.995021  -0.002
H  H13  1  0.04491151  0.66447055  0.77989430  1  0.103873  -0.001056  0.926761  -0.002  0.10869  -0.000825  0.992246  -0.001  0.111647  -0.00055  0.989029  -0.001  0.124498  0.106308  -0.00108  0.99509  -0.002
H  H14  1  0.54491785  0.83552852  0.22010801  1  0.103882  -0.001056  0.926723  -0.002  0.108687  -0.000825  0.992227  -0.001  0.11165  -0.000549  0.988994  -0.001  0.124487  0.106301  -0.001079  0.99507  -0.002
H  H15  1  0.95509604  0.16446122  0.72009810  1  0.103822  -0.001057  0.926824  -0.002  0.108667  -0.000825  0.992283  -0.001  0.111623  -0.00055  0.989068  -0.001  0.12448  0.106286  -0.00108  0.995128  -0.002
H  H16  1  0.88679717  0.97178778  0.16705599  1  0.418055  0.000756  0.8757  0.001  0.391065  0.000189  0.943647  0.0  0.402783  0.000334  0.926898  0.0  0.293961  0.382592  -3e-06  0.955661  0.0
H  H17  1  0.61320242  0.02821551  0.66705374  1  0.418101  0.000757  0.875595  0.001  0.391125  0.00019  0.943539  0.0  0.402842  0.000334  0.926793  0.0  0.294004  0.382649  -3e-06  0.95556  0.0
H  H18  1  0.11319848  0.47178652  0.33294676  1  0.418113  0.000757  0.875545  0.001  0.391161  0.00019  0.943483  0.0  0.402878  0.000334  0.926737  0.0  0.294041  0.382688  -3e-06  0.9555  0.0
H  H19  1  0.38680051  0.52821197  0.83294628  1  0.41812  0.000756  0.875635  0.001  0.391143  0.000189  0.943535  0.0  0.402859  0.000334  0.926788  0.0  0.294022  0.38267  -3e-06  0.955549  0.0
H  H20  1  0.81587978  0.13449021  0.13828828  1  0.418542  0.000624  0.866769  0.001  0.392179  4.1e-05  0.933678  0.0  0.40307  0.000158  0.91793  0.0  0.296436  0.384201  -9e-05  0.945203  0.0
H  H21  1  0.68411824  0.86551444  0.63828636  1  0.418457  0.000623  0.866916  0.001  0.392134  4e-05  0.933725  0.0  0.403025  0.000158  0.917978  0.0  0.296419  0.384161  -9e-05  0.945239  0.0
H  H22  1  0.18411202  0.63449251  0.36171472  1  0.418457  0.000624  0.866854  0.001  0.39215  4.1e-05  0.933685  0.0  0.40304  0.000158  0.917941  0.0  0.296442  0.384177  -8.9e-05  0.945198  0.0
H  H23  1  0.31588714  0.36550787  0.86171495  1  0.418431  0.000624  0.86688  0.001  0.392107  4.1e-05  0.933738  0.0  0.402997  0.000158  0.917992  0.0  0.296425  0.384134  -9e-05  0.945254  0.0
H  H24  1  0.08468818  0.34577964  0.14107343  1  0.418562  0.000437  0.894587  0.001  0.390063  -0.000126  0.955172  0.0  0.402342  5.8e-05  0.937854  0.0  0.291589  0.381092  -0.000319  0.96775  0.0
H  H25  1  0.41530543  0.65421855  0.64107388  1  0.418522  0.000437  0.894639  0.001  0.390028  -0.000126  0.955217  0.0  0.402307  5.8e-05  0.937897  0.0  0.291541  0.381058  -0.000319  0.967796  0.0
H  H26  1  0.91530987  0.84578343  0.35892385  1  0.418565  0.000437  0.894569  0.001  0.390071  -0.000126  0.955143  0.0  0.402351  5.8e-05  0.937822  0.0  0.291575  0.381106  -0.000319  0.967714  0.0
H  H27  1  0.58469230  0.15421690  0.85892701  1  0.418528  0.000437  0.894634  0.001  0.390035  -0.000126  0.955206  0.0  0.402312  5.8e-05  0.937892  0.0  0.291569  0.381068  -0.000319  0.967781  0.0
H  H28  1  0.20781394  0.22901065  0.08288454  1  0.424033  0.000602  0.86728  0.001  0.398539  -4.7e-05  0.928797  0.0  0.409308  4.3e-05  0.913359  0.0  0.297865  0.390745  -0.000144  0.939901  0.0
H  H29  1  0.29218630  0.77099137  0.58288257  1  0.423997  0.000602  0.86731  0.001  0.398519  -4.7e-05  0.928823  0.0  0.409287  4.2e-05  0.913387  0.0  0.297835  0.390721  -0.000144  0.939934  0.0
H  H30  1  0.79218514  0.72901254  0.41711336  1  0.423911  0.000601  0.867429  0.001  0.398439  -4.7e-05  0.928922  0.0  0.409205  4.2e-05  0.913488  0.0  0.297822  0.39064  -0.000145  0.94004  0.0
H  H31  1  0.70781460  0.27098722  0.91711770  1  0.424058  0.000602  0.867263  0.001  0.398572  -4.7e-05  0.928753  0.0  0.409338  4.3e-05  0.913318  0.0  0.297856  0.390779  -0.000144  0.939862  0.0
C  C32  1  0.23728842  0.91625023  0.40719815  1  0.632667  0.004537  3.873645  0.003  0.577944  0.000233  4.178644  0.0  0.613153  0.000274  4.170132  0.0  0.223853  0.553184  0.000302  4.184089  0.0
C  C33  1  0.26269985  0.08375622  0.90719976  1  0.632685  0.004535  3.873897  0.003  0.578045  0.000233  4.178883  0.0  0.613253  0.000274  4.170372  0.0  0.223781  0.553283  0.000303  4.184341  0.0
C  C34  1  0.76270007  0.41624176  0.09279952  1  0.632744  0.004534  3.873903  0.003  0.578033  0.000233  4.178893  0.0  0.613253  0.000274  4.170361  0.0  0.223815  0.553251  0.000303  4.184386  0.0
C  C35  1  0.73729627  0.58375031  0.59280764  1  0.632622  0.004535  3.873791  0.003  0.577896  0.000233  4.178838  0.0  0.613102  0.000275  4.170333  0.0  0.223805  0.553145  0.000303  4.184268  0.0
C  C36  1  0.39434222  0.02400261  0.39929530  1  0.090585  0.01106  3.721589  0.007  0.092568  0.001848  3.97335  0.001  0.095184  0.002955  3.992595  0.002  0.111024  0.089732  -0.000378  3.961199  -0.001
C  C37  1  0.10565717  0.97598871  0.89928803  1  0.090551  0.01109  3.721262  0.007  0.092256  0.001852  3.973447  0.001  0.094871  0.002956  3.992692  0.002  0.110958  0.089415  -0.000372  3.961302  -0.001
C  C38  1  0.60565761  0.52401265  0.10070675  1  0.090378  0.011103  3.721485  0.007  0.092315  0.001854  3.97336  0.001  0.094928  0.002958  3.992601  0.002  0.11096  0.089476  -0.000369  3.961225  -0.001
C  C39  1  0.89433878  0.47599454  0.60070963  1  0.090472  0.011104  3.721721  0.007  0.092421  0.00185  3.973596  0.001  0.09504  0.002955  3.992838  0.002  0.111024  0.089581  -0.000375  3.961441  -0.001
C  C40  1  0.56653415  0.00296197  0.44604826  1  -0.085699  -0.00684  3.678977  -0.008  -0.106404  -0.002268  3.930085  -0.002  -0.109673  -0.002091  3.945842  -0.002  -0.068525  -0.104713  -0.002583  3.921309  -0.003
C  C41  1  0.93346436  0.99702881  0.94604463  1  -0.085343  -0.006855  3.679161  -0.008  -0.106094  -0.002269  3.930314  -0.002  -0.109364  -0.002091  3.946083  -0.002  -0.068543  -0.104406  -0.002584  3.921531  -0.003
C  C42  1  0.43346002  0.50297104  0.05395160  1  -0.085399  -0.006863  3.679174  -0.008  -0.106199  -0.002269  3.930271  -0.002  -0.10947  -0.002091  3.946037  -0.002  -0.068575  -0.104516  -0.002584  3.921501  -0.003
C  C43  1  0.06652886  0.49703779  0.55395445  1  -0.085466  -0.006865  3.678872  -0.008  -0.106167  -0.002268  3.93001  -0.002  -0.109438  -0.00209  3.945771  -0.002  -0.068449  -0.104479  -0.002583  3.921231  -0.003
C  C44  1  0.70607572  0.10683758  0.43257363  1  0.020427  0.013522  3.623354  0.008  -0.013534  0.002258  3.87857  0.001  -0.006914  0.00305  3.891241  0.002  -0.051988  -0.019055  0.003123  3.871792  0.001
C  C45  1  0.79392830  0.89315224  0.93256335  1  0.020336  0.01355  3.623679  0.008  -0.013485  0.002262  3.878724  0.001  -0.006873  0.003051  3.891409  0.002  -0.051873  -0.019014  0.003127  3.871943  0.001
C  C46  1  0.29392996  0.60684733  0.06743182  1  0.020445  0.013564  3.623931  0.008  -0.013408  0.002264  3.879026  0.001  -0.006793  0.003053  3.891706  0.002  -0.051917  -0.01893  0.00313  3.872228  0.001
C  C47  1  0.20607158  0.39316028  0.56742631  1  0.020557  0.013572  3.623211  0.008  -0.013453  0.002261  3.878502  0.001  -0.006835  0.003051  3.891178  0.002  -0.051939  -0.018975  0.003126  3.871728  0.001
C  C48  1  0.66812035  0.22882393  0.37258840  1  -0.083785  -0.012942  3.694203  -0.017  -0.062049  -0.004641  3.931734  -0.007  -0.073114  -0.003596  3.951078  -0.005  -0.000851  -0.055161  -0.005768  3.920245  -0.008
C  C49  1  0.83188749  0.77117192  0.87257809  1  -0.083776  -0.01296  3.694479  -0.017  -0.061991  -0.004643  3.931874  -0.007  -0.073064  -0.003597  3.951219  -0.005  -0.000898  -0.0551  -0.005771  3.920363  -0.008
C  C50  1  0.33188571  0.72882447  0.12741563  1  -0.083757  -0.012966  3.694469  -0.017  -0.062019  -0.004644  3.931912  -0.007  -0.073091  -0.003597  3.951261  -0.005  -0.000874  -0.055125  -0.005771  3.920389  -0.008
C  C51  1  0.16811900  0.27117386  0.62741222  1  -0.083781  -0.012967  3.69422  -0.017  -0.062001  -0.004642  3.931762  -0.007  -0.073077  -0.003596  3.951099  -0.005  -0.000884  -0.055121  -0.005769  3.920286  -0.008
C  C52  1  0.49007279  0.24311936  0.32854140  1  0.146811  0.017188  3.610543  0.011  0.110584  0.004503  3.864742  0.003  0.122123  0.005451  3.878568  0.003  0.06746  0.102189  0.003217  3.856115  0.002
C  C53  1  0.00993176  0.75687483  0.82853125  1  0.146703  0.017218  3.610695  0.011  0.110449  0.004504  3.864895  0.003  0.121985  0.005449  3.878724  0.003  0.06735  0.102053  0.003219  3.856255  0.002
C  C54  1  0.50993611  0.74312525  0.17146486  1  0.146806  0.017234  3.610427  0.011  0.110588  0.004507  3.864642  0.003  0.122125  0.005452  3.878471  0.003  0.067455  0.10219  0.003221  3.856002  0.002
C  C55  1  0.99007329  0.25687582  0.67145913  1  0.146762  0.017233  3.610658  0.011  0.110546  0.004504  3.864867  0.003  0.122085  0.00545  3.878692  0.003  0.067451  0.102151  0.003218  3.856236  0.002
C  C56  1  0.81253088  0.34203250  0.34904085  1  0.653232  0.007128  3.873668  0.006  0.609577  -0.002207  4.176453  -0.003  0.647602  -0.00142  4.170853  -0.002  0.217058  0.582098  -0.003173  4.178724  -0.003
C  C57  1  0.68747542  0.65795488  0.84903620  1  0.65328  0.007124  3.873661  0.006  0.609611  -0.002208  4.176456  -0.003  0.647657  -0.001421  4.170816  -0.002  0.217157  0.582129  -0.003175  4.178733  -0.003
C  C58  1  0.18748672  0.84204882  0.15096488  1  0.653381  0.007125  3.873759  0.006  0.609722  -0.002208  4.176554  -0.003  0.647761  -0.001421  4.170926  -0.002  0.21728  0.582241  -0.003174  4.178827  -0.003
C  C59  1  0.31253211  0.15796449  0.65095470  1  0.653212  0.007128  3.873633  0.006  0.609503  -0.002208  4.176541  -0.003  0.647562  -0.001421  4.170879  -0.002  0.217133  0.582027  -0.003175  4.178818  -0.003
N  N60  1  0.35784028  0.14231597  0.34090926  1  -0.293503  -0.058686  3.310868  -0.092  -0.262507  -0.036014  3.603451  -0.058  -0.289805  -0.028051  3.623263  -0.048  -0.320626  -0.242344  -0.042929  3.59017  -0.066
N  N61  1  0.14216015  0.85768135  0.84090192  1  -0.293339  -0.058696  3.310565  -0.092  -0.262272  -0.036013  3.603238  -0.058  -0.289568  -0.028049  3.623043  -0.048  -0.320523  -0.242113  -0.042928  3.589952  -0.066
N  N62  1  0.64217111  0.64231682  0.15909370  1  -0.293388  -0.058698  3.310714  -0.092  -0.262406  -0.036012  3.603338  -0.058  -0.289698  -0.028049  3.623147  -0.048  -0.320619  -0.242253  -0.042926  3.590051  -0.066
N  N63  1  0.85783822  0.35768111  0.65909406  1  -0.293387  -0.058703  3.310771  -0.092  -0.262448  -0.036013  3.603461  -0.058  -0.289743  -0.02805  3.623267  -0.048  -0.320631  -0.242282  -0.042929  3.590172  -0.066
O  O64  1  0.08067755  0.95963724  0.36924944  1  -0.607558  -0.040226  2.139904  -0.069  -0.562816  -0.027212  2.395856  -0.048  -0.600076  -0.02024  2.385742  -0.038  -0.294418  -0.534162  -0.033912  2.402252  -0.057
O  O65  1  0.41931886  0.04036415  0.86924317  1  -0.607609  -0.040229  2.139648  -0.069  -0.562875  -0.027213  2.395583  -0.048  -0.600144  -0.020241  2.385469  -0.038  -0.294391  -0.534213  -0.033913  2.401982  -0.057
O  O66  1  0.91932085  0.45963197  0.13075721  1  -0.607501  -0.040228  2.139578  -0.069  -0.56279  -0.027213  2.395546  -0.048  -0.600057  -0.020241  2.385431  -0.038  -0.294391  -0.53412  -0.033913  2.40195  -0.057
O  O67  1  0.58067991  0.54036516  0.63075295  1  -0.607532  -0.040227  2.139815  -0.069  -0.562809  -0.027213  2.395788  -0.048  -0.600069  -0.020241  2.385677  -0.038  -0.294423  -0.534157  -0.033915  2.40218  -0.057
O  O68  1  0.26362889  0.79302879  0.44661036  1  -0.600494  -0.004879  1.958141  -0.008  -0.54213  -0.00295  2.169907  -0.005  -0.56462  -0.001537  2.15725  -0.003  -0.301937  -0.526615  -0.004751  2.17912  -0.007
O  O69  1  0.23636241  0.20695990  0.94661203  1  -0.600521  -0.004873  1.958777  -0.008  -0.542092  -0.002948  2.170453  -0.005  -0.564574  -0.001536  2.157788  -0.003  -0.301868  -0.526577  -0.004747  2.179673  -0.007
O  O70  1  0.73635501  0.29303803  0.05339027  1  -0.600553  -0.004872  1.958763  -0.008  -0.542109  -0.002947  2.170483  -0.005  -0.564593  -0.001535  2.157811  -0.003  -0.301858  -0.526585  -0.004746  2.179717  -0.007
O  O71  1  0.76363549  0.70697072  0.55339395  1  -0.600503  -0.004877  1.958293  -0.008  -0.542087  -0.002949  2.170007  -0.005  -0.564576  -0.001536  2.157356  -0.003  -0.301935  -0.526578  -0.00475  2.179218  -0.007
O  O72  1  0.74962006  0.46918750  0.33290832  1  -0.59005  -0.059859  2.025136  -0.1  -0.569408  -0.035066  2.285194  -0.061  -0.608439  -0.024309  2.278998  -0.045  -0.300197  -0.537618  -0.045746  2.287875  -0.076
O  O73  1  0.75037496  0.53081742  0.83290140  1  -0.589947  -0.059836  2.025494  -0.1  -0.569297  -0.035059  2.285561  -0.061  -0.608328  -0.024305  2.279349  -0.045  -0.300155  -0.537519  -0.045736  2.288259  -0.076
O  O74  1  0.25038257  0.96917663  0.16710211  1  -0.589923  -0.059821  2.025955  -0.1  -0.569274  -0.035054  2.286025  -0.061  -0.608299  -0.024303  2.279817  -0.045  -0.30023  -0.537501  -0.045729  2.288721  -0.076
O  O75  1  0.24962797  0.03081588  0.66709324  1  -0.590041  -0.059852  2.025178  -0.1  -0.569391  -0.035064  2.285297  -0.061  -0.608436  -0.024308  2.279077  -0.045  -0.300246  -0.537601  -0.045742  2.287988  -0.076
O  O76  1  0.98561985  0.30685967  0.34575380  1  -0.633513  -0.028276  2.055046  -0.049  -0.598836  -0.019526  2.316427  -0.034  -0.635857  -0.013652  2.308494  -0.026  -0.303172  -0.569319  -0.025482  2.320699  -0.042
O  O77  1  0.51437246  0.69314296  0.84574783  1  -0.633638  -0.02828  2.054757  -0.049  -0.598967  -0.019527  2.316135  -0.034  -0.636003  -0.013654  2.308185  -0.026  -0.303287  -0.569428  -0.025484  2.320374  -0.042
O  O78  1  0.01437249  0.80685279  0.15425059  1  -0.63382  -0.02829  2.054494  -0.049  -0.599135  -0.019531  2.315869  -0.034  -0.636169  -0.013656  2.307933  -0.026  -0.303344  -0.569589  -0.025488  2.320092  -0.042
O  O79  1  0.48562400  0.19314745  0.65424365  1  -0.633521  -0.028275  2.055046  -0.049  -0.598798  -0.019524  2.316395  -0.034  -0.635831  -0.013651  2.308443  -0.026  -0.303183  -0.569271  -0.025479  2.320659  -0.042
O  O80  1  0.85249080  0.06918897  0.19490549  1  -0.796806  -0.033099  1.927335  -0.056  -0.765125  -0.023603  2.128765  -0.04  -0.794  -0.017739  2.096147  -0.032  -0.5669  -0.742152  -0.029192  2.152523  -0.046
O  O81  1  0.64750477  0.93081078  0.69490392  1  -0.796778  -0.033098  1.927448  -0.056  -0.76512  -0.023604  2.128882  -0.04  -0.793997  -0.01774  2.096255  -0.032  -0.566931  -0.742151  -0.029194  2.152639  -0.046
O  O82  1  0.14750218  0.56919501  0.30509402  1  -0.796789  -0.0331  1.92735  -0.056  -0.765184  -0.023605  2.128833  -0.04  -0.794055  -0.01774  2.09621  -0.032  -0.566987  -0.74222  -0.029194  2.152587  -0.046
O  O83  1  0.35249663  0.43080810  0.80509628  1  -0.796785  -0.033099  1.927441  -0.056  -0.765128  -0.023603  2.128871  -0.04  -0.794  -0.017739  2.096249  -0.032  -0.566954  -0.74216  -0.029193  2.152626  -0.046
O  O84  1  0.18780446  0.27263193  0.15133301  1  -0.799742  -0.042963  1.964217  -0.073  -0.773993  -0.028928  2.178274  -0.05  -0.806107  -0.021488  2.144864  -0.04  -0.573075  -0.748325  -0.035275  2.20224  -0.058
O  O85  1  0.31219620  0.72737594  0.65133362  1  -0.799699  -0.042958  1.964336  -0.073  -0.773938  -0.028927  2.178366  -0.05  -0.806046  -0.021487  2.144927  -0.04  -0.57302  -0.748274  -0.035273  2.202338  -0.058
O  O86  1  0.81219615  0.77262692  0.34866235  1  -0.799668  -0.042957  1.964392  -0.073  -0.773888  -0.028927  2.178382  -0.05  -0.805993  -0.021488  2.144969  -0.04  -0.573022  -0.748238  -0.035274  2.202339  -0.058
O  O87  1  0.68780596  0.22736916  0.84866765  1  -0.799744  -0.04296  1.964266  -0.073  -0.77402  -0.028928  2.178342  -0.05  -0.806129  -0.021488  2.14493  -0.04  -0.573063  -0.748358  -0.035274  2.202302  -0.058
