# generated using pymatgen
data_MnH8C19(NO3)2
_symmetry_space_group_name_H-M   'P 1'
_cell_length_a   4.96709262
_cell_length_b   20.40618266
_cell_length_c   24.82692457
_cell_angle_alpha   89.99992174
_cell_angle_beta   89.99990432
_cell_angle_gamma   95.58594692
_symmetry_Int_Tables_number   1
_chemical_formula_structural   MnH8C19(NO3)2
_chemical_formula_sum   'Mn4 H32 C76 N8 O24'
_cell_volume   2504.49234313
_cell_formula_units_Z   4
loop_
 _symmetry_equiv_pos_site_id
 _symmetry_equiv_pos_as_xyz
  1  'x, y, z'
loop_
 _atom_site_type_symbol
 _atom_site_label
 _atom_site_symmetry_multiplicity
 _atom_site_fract_x
 _atom_site_fract_y
 _atom_site_fract_z
 _atom_site_occupancy
 _atom_site_pbe_bader_charge
 _atom_site_pbe_bader_spin_density
 _atom_site_pbe_cm5_charge
 _atom_site_pbe_ddec_charge
 _atom_site_pbe_ddec_spin_density
 _atom_site_pbe_ddec_sum_bond_order
 _atom_site_pbe_magmom
Mn  Mn0  1  0.17379394  0.06076969  0.96136549  1  1.560637  4.489957  0.63622  1.03242  4.61827  2.401514  4.433
Mn  Mn1  1  0.32620355  0.43923016  0.46136494  1  1.560672  4.489956  0.636188  1.032333  4.618283  2.401666  4.433
Mn  Mn2  1  0.82620485  0.93923026  0.03863481  1  1.560652  4.489949  0.636214  1.032424  4.618268  2.40154  4.433
Mn  Mn3  1  0.67379322  0.56076980  0.53863455  1  1.560611  4.489966  0.63621  1.032368  4.618274  2.401585  4.433
H  H4  1  0.68857698  0.34175302  0.40879459  1  0.13732  0.001332  0.123109  0.095973  0.000431  1.014376  0.001
H  H5  1  0.71120715  0.27349399  0.32431457  1  0.138659  0.000514  0.119399  0.148445  0.000246  0.989979  0.0
H  H6  1  0.06637198  0.37694100  0.25945439  1  0.154933  0.000472  0.117445  0.151244  0.000232  1.022454  0.0
H  H7  1  0.07226455  0.44118627  0.34590686  1  0.106595  0.001309  0.120255  0.089237  0.000498  1.001844  0.001
H  H8  1  0.95122568  0.31795506  0.12131392  1  0.103223  7.3e-05  0.113505  0.118021  2e-05  0.981553  0.0
H  H9  1  0.00915292  0.24241112  0.04313972  1  0.097458  0.00028  0.112907  0.12255  -4.6e-05  0.978235  0.0
H  H10  1  0.98752254  0.03147668  0.14171008  1  0.103222  0.000588  0.106705  0.107518  0.000172  1.037555  0.0
H  H11  1  0.91409614  0.11255909  0.21441740  1  0.098139  0.000119  0.114477  0.119259  1.6e-05  0.977403  0.0
H  H12  1  0.81142502  0.15824590  0.90879498  1  0.137205  0.001332  0.123069  0.095968  0.000431  1.014414  0.001
H  H13  1  0.78879361  0.22650509  0.82431489  1  0.138679  0.000514  0.119408  0.148472  0.000246  0.989961  0.0
H  H14  1  0.43363320  0.12305873  0.75945478  1  0.154913  0.000472  0.117469  0.151261  0.000232  1.022404  0.0
H  H15  1  0.42773541  0.05881231  0.84590692  1  0.106631  0.001309  0.120285  0.089275  0.000498  1.001873  0.001
H  H16  1  0.54877351  0.18204588  0.62131518  1  0.103224  7.3e-05  0.113499  0.117995  2e-05  0.981536  0.0
H  H17  1  0.49084216  0.25758902  0.54314035  1  0.09731  0.00028  0.112932  0.122547  -4.6e-05  0.978263  0.0
H  H18  1  0.51247224  0.46852373  0.64171063  1  0.103225  0.000588  0.106712  0.107538  0.000172  1.037534  0.0
H  H19  1  0.58590582  0.38744068  0.71441681  1  0.098135  0.000119  0.114477  0.119249  1.6e-05  0.977425  0.0
H  H20  1  0.31141840  0.65824349  0.59120531  1  0.137198  0.001331  0.123099  0.095975  0.000431  1.014428  0.001
H  H21  1  0.28879084  0.72650400  0.67568452  1  0.138711  0.000514  0.119416  0.148487  0.000246  0.989935  0.0
H  H22  1  0.93363104  0.62305944  0.74054430  1  0.154953  0.000472  0.11746  0.151211  0.000232  1.022449  0.0
H  H23  1  0.92773565  0.55881220  0.65409344  1  0.106633  0.001309  0.120291  0.089303  0.000498  1.001851  0.001
H  H24  1  0.04877713  0.68204490  0.87868516  1  0.103237  7.3e-05  0.113505  0.118007  2e-05  0.981523  0.0
H  H25  1  0.99084346  0.75758785  0.95685977  1  0.097465  0.00028  0.112952  0.122616  -4.6e-05  0.978186  0.0
H  H26  1  0.01246820  0.96852327  0.85829022  1  0.103243  0.000588  0.106712  0.107513  0.000172  1.037566  0.0
H  H27  1  0.08590304  0.88744185  0.78558370  1  0.09816  0.000119  0.114491  0.119244  1.6e-05  0.977481  0.0
H  H28  1  0.18858020  0.84175504  0.09120612  1  0.13721  0.001332  0.123089  0.095974  0.000431  1.014425  0.001
H  H29  1  0.21121141  0.77349536  0.17568621  1  0.138678  0.000515  0.119427  0.148474  0.000246  0.989981  0.0
H  H30  1  0.56637324  0.87694023  0.24054552  1  0.154948  0.000472  0.117463  0.151263  0.000232  1.022431  0.0
H  H31  1  0.57226298  0.94118666  0.15409297  1  0.106647  0.001309  0.120288  0.089276  0.000498  1.001828  0.001
H  H32  1  0.45122568  0.81795505  0.37868672  1  0.103223  7.3e-05  0.113504  0.117982  2e-05  0.981589  0.0
H  H33  1  0.50915643  0.74241044  0.45685995  1  0.09746  0.00028  0.112901  0.122524  -4.6e-05  0.978292  0.0
H  H34  1  0.48752513  0.53147771  0.35828927  1  0.103238  0.000588  0.106713  0.107556  0.000172  1.037531  0.0
H  H35  1  0.41409779  0.61256124  0.28558349  1  0.098149  0.000119  0.114461  0.119262  1.6e-05  0.977402  0.0
C  C36  1  0.55394694  0.34764585  0.37482060  1  0.490644  0.009116  0.056443  0.110491  0.007015  3.926918  0.006
C  C37  1  0.56553395  0.30988761  0.32834205  1  -0.001319  -0.00104  -0.071681  -0.19509  -0.001677  3.904004  -0.001
C  C38  1  0.38852659  0.32056514  0.28639729  1  0.251283  0.007888  0.115164  0.249005  0.006229  3.993041  0.005
C  C39  1  0.20890769  0.36844092  0.29148089  1  0.020344  -0.000887  -0.074979  -0.198391  -0.00147  3.911338  -0.001
C  C40  1  0.21071550  0.40359941  0.33950373  1  0.488835  0.008995  0.053351  0.105039  0.006999  3.952745  0.006
C  C41  1  0.59491357  0.30092602  0.20012077  1  1.327584  0.001708  0.244907  0.452573  0.001456  4.099522  0.001
C  C42  1  0.61973156  0.25615276  0.15436966  1  0.006353  0.004131  -0.017628  -0.089188  0.003257  4.027835  0.003
C  C43  1  0.44995639  0.19629727  0.15004579  1  -0.024066  -0.00038  0.005817  0.035839  -0.000591  3.979411  -0.001
C  C44  1  0.24312830  0.18087149  0.18887222  1  -0.017594  0.008061  -0.017038  -0.092654  0.006388  4.026654  0.005
C  C45  1  0.20453013  0.22557159  0.23420968  1  1.321729  0.002865  0.244743  0.45316  0.002334  4.092765  0.001
C  C46  1  0.82096889  0.27216447  0.11654536  1  -0.045639  0.001297  -0.070219  -0.068773  0.00102  3.978327  0.0
C  C47  1  0.85293569  0.22992246  0.07321178  1  -0.026695  0.004853  -0.079755  -0.099787  0.003715  3.973527  0.003
C  C48  1  0.68755752  0.17133798  0.06692874  1  -0.025605  0.004106  0.010363  -0.034963  0.002546  3.871739  0.002
C  C49  1  0.48710699  0.15160701  0.10655512  1  0.042465  0.005591  0.011199  0.038618  0.004079  3.908683  0.004
C  C50  1  0.32284445  0.08999997  0.10641582  1  -0.028007  0.004114  0.010276  -0.036313  0.001728  3.889173  0.001
C  C51  1  0.11654829  0.07760851  0.14393238  1  -0.005379  0.008568  -0.081265  -0.102319  0.006425  3.966041  0.005
C  C52  1  0.07447815  0.12280224  0.18475700  1  0.038552  0.000698  -0.065327  -0.054202  0.000356  3.95279  0.0
C  C53  1  0.38086563  0.03333852  0.07117506  1  1.568503  0.046264  0.240664  0.606764  0.04382  4.147674  0.039
C  C54  1  0.72705084  0.13571595  0.01473582  1  1.62192  0.026219  0.232147  0.609721  0.025283  4.180119  0.024
C  C55  1  0.94604692  0.15235215  0.87482056  1  0.49076  0.009116  0.05653  0.110568  0.007015  3.926869  0.006
C  C56  1  0.93446677  0.19011146  0.82834156  1  -0.000724  -0.00104  -0.071759  -0.195215  -0.001677  3.903956  -0.001
C  C57  1  0.11147814  0.17943405  0.78639732  1  0.25049  0.007888  0.115247  0.249067  0.006229  3.993009  0.005
C  C58  1  0.29109478  0.13155777  0.79148132  1  0.020532  -0.000887  -0.074985  -0.198311  -0.00147  3.911398  -0.001
C  C59  1  0.28928290  0.09640017  0.83950339  1  0.488766  0.008994  0.053297  0.104948  0.006998  3.952956  0.006
C  C60  1  0.90509074  0.19907428  0.70012190  1  1.327621  0.001708  0.244911  0.452561  0.001456  4.099602  0.001
C  C61  1  0.88027297  0.24384713  0.65436993  1  0.006353  0.004132  -0.017641  -0.08919  0.003257  4.027922  0.003
C  C62  1  0.05004797  0.30370317  0.65004610  1  -0.024138  -0.000379  0.005798  0.035743  -0.000591  3.97954  -0.001
C  C63  1  0.25686927  0.31912788  0.68887125  1  -0.017545  0.00806  -0.01701  -0.092572  0.006387  4.026419  0.005
C  C64  1  0.29547689  0.27442720  0.73421075  1  1.32116  0.002865  0.244699  0.453148  0.002334  4.092637  0.001
C  C65  1  0.67903235  0.22783648  0.61654652  1  -0.045452  0.001298  -0.07017  -0.068639  0.00102  3.978192  0.0
C  C66  1  0.64705992  0.27007857  0.57321291  1  -0.02672  0.004853  -0.079799  -0.099878  0.003716  3.973532  0.003
C  C67  1  0.81244137  0.32866109  0.56692894  1  -0.025634  0.004106  0.010345  -0.034952  0.002546  3.871721  0.002
C  C68  1  0.01289294  0.34839154  0.60655540  1  0.042447  0.00559  0.011202  0.038653  0.004079  3.908758  0.004
C  C69  1  0.17715327  0.40999809  0.60641678  1  -0.027911  0.004114  0.010233  -0.036396  0.001728  3.889145  0.001
C  C70  1  0.38344808  0.42239194  0.64393407  1  -0.005366  0.008566  -0.081247  -0.102267  0.006423  3.965912  0.005
C  C71  1  0.42552388  0.37719813  0.68475710  1  0.038522  0.000698  -0.065362  -0.054264  0.000356  3.952683  0.0
C  C72  1  0.11913060  0.46666009  0.57117598  1  1.568495  0.046256  0.240652  0.606801  0.043811  4.147755  0.039
C  C73  1  0.77294711  0.36428470  0.51473720  1  1.621886  0.026221  0.232128  0.609747  0.025284  4.180065  0.024
C  C74  1  0.44604903  0.65235213  0.62517889  1  0.490749  0.009116  0.056448  0.110445  0.007015  3.926964  0.006
C  C75  1  0.43446625  0.69011086  0.67165784  1  -0.000741  -0.001041  -0.071732  -0.195144  -0.001678  3.903917  -0.001
C  C76  1  0.61148005  0.67943432  0.71360260  1  0.250509  0.007889  0.115225  0.249029  0.006229  3.993074  0.005
C  C77  1  0.79109492  0.63155854  0.70851780  1  0.020446  -0.000887  -0.07496  -0.198216  -0.00147  3.911428  -0.001
C  C78  1  0.78927665  0.59639907  0.66049657  1  0.488846  0.008995  0.053264  0.104856  0.006999  3.952954  0.006
C  C79  1  0.40509810  0.69907590  0.79987711  1  1.327428  0.001709  0.245024  0.452785  0.001457  4.099442  0.001
C  C80  1  0.38027891  0.74384621  0.84562943  1  0.006361  0.004132  -0.017658  -0.089225  0.003257  4.027898  0.003
C  C81  1  0.55004844  0.80370269  0.84995371  1  -0.024169  -0.00038  0.005805  0.035813  -0.000591  3.979326  -0.001
C  C82  1  0.75686827  0.81912797  0.81112686  1  -0.017461  0.00806  -0.017034  -0.092704  0.006388  4.026458  0.005
C  C83  1  0.79548094  0.77442885  0.76578740  1  1.321319  0.002866  0.244804  0.453425  0.002334  4.092348  0.001
C  C84  1  0.17903976  0.72783499  0.88345454  1  -0.045657  0.001298  -0.070219  -0.068721  0.00102  3.978382  0.0
C  C85  1  0.14706673  0.77007651  0.92678771  1  -0.026695  0.004853  -0.079777  -0.099914  0.003715  3.97364  0.003
C  C86  1  0.31244671  0.82866049  0.93307156  1  -0.025606  0.004107  0.010322  -0.034966  0.002547  3.871763  0.002
C  C87  1  0.51289140  0.84839196  0.89344437  1  0.042465  0.005591  0.011202  0.038612  0.004079  3.908691  0.004
C  C88  1  0.67715192  0.90999900  0.89358408  1  -0.027992  0.004114  0.010266  -0.036298  0.001728  3.889161  0.001
C  C89  1  0.88344627  0.92239096  0.85606751  1  -0.005389  0.008567  -0.081254  -0.102296  0.006424  3.966066  0.005
C  C90  1  0.92551903  0.87719870  0.81524250  1  0.038528  0.000698  -0.065365  -0.054207  0.000356  3.952781  0.0
C  C91  1  0.61912712  0.96666143  0.92882483  1  1.56853  0.046264  0.240648  0.606744  0.043821  4.147689  0.039
C  C92  1  0.27294735  0.86428253  0.98526407  1  1.621707  0.026222  0.232213  0.609819  0.025282  4.180062  0.024
C  C93  1  0.05395368  0.84764731  0.12518014  1  0.490814  0.009115  0.056437  0.110454  0.007015  3.927026  0.006
C  C94  1  0.06554046  0.80988948  0.17165873  1  -0.000791  -0.00104  -0.071691  -0.195064  -0.001677  3.904022  -0.001
C  C95  1  0.88853091  0.82056640  0.21360338  1  0.250666  0.007888  0.1152  0.249022  0.006229  3.992949  0.005
C  C96  1  0.70890985  0.86844169  0.20851858  1  0.02034  -0.000887  -0.074949  -0.198322  -0.00147  3.911285  -0.001
C  C97  1  0.71071991  0.90359978  0.16049610  1  0.488789  0.008994  0.053285  0.104961  0.006998  3.95277  0.006
C  C98  1  0.09491045  0.80092666  0.29987961  1  1.327371  0.001709  0.244874  0.4525  0.001457  4.099556  0.001
C  C99  1  0.11972259  0.75615479  0.34563198  1  0.006417  0.004131  -0.017671  -0.089102  0.003257  4.027752  0.003
C  C100  1  0.94994940  0.69629827  0.34995500  1  -0.024118  -0.000379  0.005799  0.035707  -0.000591  3.979496  -0.001
C  C101  1  0.74312428  0.68087404  0.31112905  1  -0.017553  0.00806  -0.017006  -0.092561  0.006388  4.026579  0.005
C  C102  1  0.70451827  0.72557374  0.26578995  1  1.321117  0.002866  0.244696  0.453179  0.002334  4.092649  0.001
C  C103  1  0.32096321  0.77216544  0.38345498  1  -0.045819  0.001298  -0.070166  -0.068668  0.00102  3.978267  0.0
C  C104  1  0.35293504  0.72992188  0.42678779  1  -0.02652  0.004853  -0.079733  -0.099799  0.003716  3.973577  0.003
C  C105  1  0.18755741  0.67133887  0.43307176  1  -0.02583  0.004107  0.010352  -0.034932  0.002547  3.871745  0.002
C  C106  1  0.98710202  0.65160891  0.39344571  1  0.042545  0.005591  0.011183  0.038611  0.004079  3.908718  0.004
C  C107  1  0.82284330  0.59000138  0.39358392  1  -0.027986  0.004115  0.010258  -0.036375  0.001729  3.889186  0.001
C  C108  1  0.61654970  0.57761048  0.35606663  1  -0.005304  0.008567  -0.081275  -0.102317  0.006424  3.966106  0.005
C  C109  1  0.57447389  0.62280429  0.31524360  1  0.038457  0.000698  -0.065323  -0.054282  0.000356  3.952695  0.0
C  C110  1  0.88086819  0.53333986  0.42882472  1  1.568613  0.046262  0.240646  0.60678  0.04382  4.147702  0.039
C  C111  1  0.22705187  0.63571575  0.48526430  1  1.62185  0.026223  0.232147  0.609725  0.025284  4.180073  0.024
N  N112  1  0.37852010  0.39361147  0.38074321  1  -1.272539  0.051832  -0.319418  -0.272999  0.036058  3.508436  0.015
N  N113  1  0.39461218  0.28126492  0.23832611  1  -1.17317  0.000699  -0.230123  -0.228261  0.000126  3.581465  0.0
N  N114  1  0.12147974  0.10638755  0.88074332  1  -1.272522  0.051831  -0.31946  -0.273079  0.036059  3.508452  0.015
N  N115  1  0.10538896  0.21873436  0.73832651  1  -1.172505  0.000699  -0.230151  -0.228297  0.000126  3.581561  0.0
N  N116  1  0.62147789  0.60638652  0.61925668  1  -1.272573  0.05183  -0.319444  -0.272998  0.036056  3.508466  0.015
N  N117  1  0.60539305  0.71873602  0.76167177  1  -1.172689  0.000699  -0.230137  -0.228387  0.000126  3.581519  0.0
N  N118  1  0.87852268  0.89361142  0.11925657  1  -1.272567  0.051831  -0.319445  -0.273065  0.036058  3.508446  0.015
N  N119  1  0.89461164  0.78126510  0.26167379  1  -1.17227  0.000699  -0.230152  -0.22831  0.000126  3.581431  0.0
O  O120  1  0.19510771  0.00804139  0.03938986  1  -1.227643  0.09115  -0.299317  -0.582729  0.067368  2.462457  0.031
O  O121  1  0.61075809  0.01253560  0.07718948  1  -1.177611  0.070622  -0.281021  -0.536601  0.050384  2.348254  0.034
O  O122  1  0.52322078  0.11877646  0.98541388  1  -1.208184  0.072331  -0.30891  -0.570163  0.052686  2.36986  0.036
O  O123  1  0.97101336  0.13111541  0.00151989  1  -1.186188  0.069614  -0.304846  -0.560941  0.049387  2.370978  0.035
O  O124  1  0.73984952  0.35309729  0.20629144  1  -1.128633  0.002679  -0.283146  -0.460554  0.002014  2.121196  0.002
O  O125  1  0.02164447  0.21624416  0.26784376  1  -1.130154  0.004269  -0.284434  -0.461953  0.003229  2.099033  0.003
O  O126  1  0.30487915  0.49195827  0.53938988  1  -1.227497  0.091138  -0.299253  -0.582716  0.067366  2.462609  0.031
O  O127  1  0.88924050  0.48746296  0.57718988  1  -1.177747  0.07062  -0.281037  -0.536612  0.050381  2.348246  0.034
O  O128  1  0.97677488  0.38122330  0.48541335  1  -1.208124  0.072332  -0.308915  -0.570162  0.052685  2.369854  0.036
O  O129  1  0.52898692  0.36888576  0.50151974  1  -1.186176  0.069612  -0.304791  -0.560898  0.049385  2.370976  0.035
O  O130  1  0.76015070  0.14690300  0.70629227  1  -1.128614  0.002679  -0.283137  -0.460538  0.002014  2.121246  0.002
O  O131  1  0.47836224  0.28375457  0.76784396  1  -1.130289  0.004268  -0.284368  -0.461916  0.003228  2.099004  0.003
O  O132  1  0.80488283  0.99195808  0.96061124  1  -1.227568  0.091149  -0.299286  -0.582735  0.067366  2.462521  0.031
O  O133  1  0.38923667  0.98746436  0.92281082  1  -1.177677  0.070622  -0.281013  -0.536575  0.050384  2.348182  0.034
O  O134  1  0.47677780  0.88122300  0.01458601  1  -1.207943  0.072326  -0.308958  -0.570254  0.052685  2.369917  0.036
O  O135  1  0.02898361  0.86888504  0.99847920  1  -1.186174  0.069611  -0.304825  -0.560895  0.049385  2.370919  0.035
O  O136  1  0.26016134  0.64690266  0.79370765  1  -1.128528  0.002679  -0.283217  -0.460665  0.002014  2.121246  0.002
O  O137  1  0.97836096  0.78375727  0.73215371  1  -1.130251  0.004269  -0.284472  -0.462079  0.003228  2.098831  0.003
O  O138  1  0.69511400  0.50804267  0.46061122  1  -1.227611  0.09115  -0.29927  -0.582693  0.067364  2.462479  0.031
O  O139  1  0.11075567  0.51253551  0.42281123  1  -1.177713  0.070625  -0.281017  -0.536583  0.050384  2.348303  0.034
O  O140  1  0.02322189  0.61877665  0.51458654  1  -1.207973  0.072327  -0.30889  -0.570129  0.052684  2.36985  0.036
O  O141  1  0.47101408  0.63111469  0.49848016  1  -1.186192  0.069615  -0.304854  -0.560936  0.049387  2.370945  0.035
O  O142  1  0.23985050  0.85309794  0.29370924  1  -1.128639  0.002679  -0.283088  -0.460512  0.002014  2.12126  0.002
O  O143  1  0.52163513  0.71624686  0.23215513  1  -1.130323  0.004269  -0.284399  -0.461966  0.003228  2.098908  0.003
