# generated using pymatgen
data_Zn8H11C82N12(O2F)13
_symmetry_space_group_name_H-M   'P 1'
_cell_length_a   18.31899446
_cell_length_b   18.35605105
_cell_length_c   18.30068186
_cell_angle_alpha   90.17549192
_cell_angle_beta   119.58328199
_cell_angle_gamma   120.02210518
_symmetry_Int_Tables_number   1
_chemical_formula_structural   Zn8H11C82N12(O2F)13
_chemical_formula_sum   'Zn8 H11 C82 N12 O26 F13'
_cell_volume   4370.61237023
_cell_formula_units_Z   1
loop_
 _symmetry_equiv_pos_site_id
 _symmetry_equiv_pos_as_xyz
  1  'x, y, z'
loop_
 _atom_site_type_symbol
 _atom_site_label
 _atom_site_symmetry_multiplicity
 _atom_site_fract_x
 _atom_site_fract_y
 _atom_site_fract_z
 _atom_site_occupancy
 _atom_site_pbe_bader_charge
 _atom_site_pbe_bader_spin_density
 _atom_site_pbe_cm5_charge
 _atom_site_pbe_ddec_charge
 _atom_site_pbe_ddec_spin_density
 _atom_site_pbe_ddec_sum_bond_order
 _atom_site_pbe_magmom
Zn  Zn0  1  0.08995663  0.13383964  0.54477625  1  1.316241  0  0.685282  0.990586  0  2.291646  0
Zn  Zn1  1  0.09213734  0.96142005  0.54932059  1  1.318594  0  0.68795  0.992627  0  2.312747  0
Zn  Zn2  1  0.91469139  0.95515116  0.37324382  1  1.318664  0  0.688252  0.989845  0  2.323412  0
Zn  Zn3  1  0.91099566  0.95519139  0.54400804  1  1.324429  0  0.683495  0.979133  0  2.339364  0
Zn  Zn4  1  0.91478803  0.37009627  0.95594713  1  1.310365  0  0.685609  0.982885  0  2.323134  0
Zn  Zn5  1  0.08605399  0.54353872  0.13226349  1  1.328381  0  0.683035  0.981599  0  2.335822  0
Zn  Zn6  1  0.91420413  0.54364289  0.95835750  1  1.319085  0  0.680885  0.983382  0  2.336079  0
Zn  Zn7  1  0.09431996  0.54575124  0.96194671  1  1.319011  0  0.677482  0.967815  0  2.361655  0
H  H8  1  0.32914462  0.37143941  0.28178300  1  0.158409  0  0.133624  0.188053  0  0.960222  0
H  H9  1  0.68656511  0.97813104  0.40708821  1  0.094336  0  0.101705  0.1076  0  1.012517  0
H  H10  1  0.58557366  0.02801414  0.41005172  1  0.035451  0  0.101495  0.094448  0  0.994777  0
H  H11  1  0.39410383  0.92428930  0.32151026  1  0.106527  0  0.102946  0.109602  0  1.01986  0
H  H12  1  0.30426170  0.77265869  0.22593610  1  0.072496  0  0.102545  0.109812  0  1.012751  0
H  H13  1  0.41047087  0.61124691  0.14689845  1  0.124486  0  0.119428  0.131087  0  0.97137  0
H  H14  1  0.66839554  0.44511317  0.55207678  1  0.13151  0  0.135141  0.16651  0  0.949597  0
H  H15  1  0.83166253  0.22105476  0.67377336  1  0.141224  0  0.127753  0.136359  0  0.947452  0
H  H16  1  0.59163016  0.13764910  0.58439631  1  0.074092  0  0.111378  0.114322  0  0.986485  0
H  H17  1  0.68984894  0.25642650  0.72570301  1  0.112828  0  0.103674  0.114919  0  1.022903  0
H  H18  1  0.60122373  0.37805766  0.87546560  1  0.14763  0  0.129877  0.158461  0  0.952017  0
C  C19  1  0.98906970  0.85502723  0.63173530  1  1.62272  0  0.229503  0.596591  0  4.232298  0
C  C20  1  0.90794602  0.23477757  0.70780047  1  -0.022382  0  -0.040583  -0.075398  0  3.561263  0
C  C21  1  0.93278295  0.16511419  0.73696573  1  0.130921  0  0.039208  0.055955  0  3.733106  0
C  C22  1  0.03018014  0.23916832  0.83152150  1  0.113763  0  0.049154  0.051468  0  3.69092  0
C  C23  1  0.09938633  0.26958375  0.79424065  1  0.082832  0  0.035144  -0.011291  0  3.744785  0
C  C24  1  0.00189504  0.19601970  0.70079861  1  0.041118  0  0.030558  -0.046916  0  3.577312  0
C  C25  1  0.17268179  0.22646407  0.33997492  1  0.139869  0  -0.008438  -0.128774  0  4.060415  0
C  C26  1  0.25619108  0.27635266  0.33453942  1  0.434519  0  0.131308  0.316714  0  4.043752  0
C  C27  1  0.26268337  0.33411716  0.28485281  1  0.140767  0  -0.093182  -0.327023  0  3.961838  0
C  C28  1  0.18067216  0.33988297  0.23858637  1  0.494595  0  0.130656  0.3119  0  4.004267  0
C  C29  1  0.09302405  0.29425352  0.24179507  1  0.086107  0  -0.005316  -0.078643  0  3.972569  0
C  C30  1  0.99671337  0.13600989  0.36137708  1  1.631753  0  0.232199  0.631587  0  4.194556  0
C  C31  1  0.09010849  0.23706398  0.29567571  1  0.094792  0  0.026942  0.104457  0  3.924311  0
C  C32  1  0.00464628  0.19208069  0.30181276  1  0.083782  0  -0.011915  -0.178398  0  3.935497  0
C  C33  1  0.92480114  0.20014284  0.25217241  1  0.472688  0  0.12904  0.259143  0  4.021611  0
C  C34  1  0.92394348  0.25301338  0.19610192  1  0.162519  0  0.01101  -0.051742  0  4.063811  0
C  C35  1  0.00948111  0.30167288  0.19300376  1  0.046499  0  0.020895  -0.023777  0  3.863712  0
C  C36  1  0.60311012  0.93271517  0.36728825  1  -0.054029  0  -0.086285  -0.122159  0  3.965558  0
C  C37  1  0.54643502  0.96034296  0.36917676  1  0.001626  0  -0.085567  -0.072866  0  4.025807  0
C  C38  1  0.43802171  0.90214844  0.31827241  1  0.073675  0  -0.080388  -0.061513  0  3.988996  0
C  C39  1  0.38779247  0.81718150  0.26485732  1  -0.111223  0  -0.087422  -0.126308  0  3.959302  0
C  C40  1  0.44339485  0.78675774  0.25998602  1  0.00019  0  0.006742  0.063723  0  3.950156  0
C  C41  1  0.27782098  0.14093653  0.64163436  1  1.617018  0  0.234593  0.636738  0  4.16643  0
C  C42  1  0.55382042  0.84539111  0.31315939  1  -0.006876  0  0.005513  0.066884  0  3.94623  0
C  C43  1  0.60984799  0.81572385  0.30705317  1  -0.013904  0  0.011026  -0.08415  0  3.861621  0
C  C44  1  0.55853073  0.73260140  0.24708119  1  0.125627  0  0.014333  0.050849  0  4.063195  0
C  C45  1  0.44966197  0.67579008  0.19359903  1  0.038203  0  -0.068364  -0.128761  0  3.938422  0
C  C46  1  0.39408568  0.70149665  0.20113696  1  -0.059917  0  -0.004141  -0.058919  0  3.956009  0
C  C47  1  0.80718362  0.65968325  0.55563583  1  0.16999  0  0.026674  -0.008569  0  3.991618  0
C  C48  1  0.72392771  0.57037889  0.52431553  1  0.093961  0  0.031397  0.073786  0  4.054242  0
C  C49  1  0.73128571  0.51524456  0.57732277  1  0.103445  0  -0.073493  -0.233089  0  3.946808  0
C  C50  1  0.81964274  0.55129690  0.66097493  1  0.446964  0  0.121664  0.272612  0  4.023998  0
C  C51  1  0.90359469  0.64285502  0.70012885  1  0.022964  0  0.009695  -0.014175  0  3.961243  0
C  C52  1  0.72476165  0.87286842  0.36468892  1  1.583872  0  0.236064  0.618224  0  4.173586  0
C  C53  1  0.89815464  0.69847991  0.64488910  1  0.063912  0  0.019743  0.040732  0  3.913924  0
C  C54  1  0.98318498  0.78963105  0.68206228  1  0.060428  0  0.022498  -0.042054  0  3.846664  0
C  C55  1  0.06858851  0.82427581  0.76970939  1  0.112659  0  0.018933  -0.03625  0  4.05173  0
C  C56  1  0.06987753  0.76800009  0.82211808  1  0.515342  0  0.131028  0.254077  0  4.016721  0
C  C57  1  0.99028082  0.67935867  0.78982478  1  0.118334  0  -0.008942  -0.153089  0  3.944131  0
C  C58  1  0.90847663  0.66374873  0.34366800  1  0.543669  0  0.117097  0.177676  0  4.032328  0
C  C59  1  0.86076024  0.57342980  0.32987847  1  0.601466  0  0.090652  0.063364  0  4.121702  0
C  C60  1  0.85385425  0.52107555  0.26753106  1  0.581808  0  0.120838  0.188176  0  4.076348  0
C  C61  1  0.89597382  0.55862767  0.22057153  1  0.193853  0  -0.0071  -0.107058  0  4.073275  0
C  C62  1  0.95026726  0.65357085  0.23762002  1  0.024707  0  0.015101  0.072895  0  3.939381  0
C  C63  1  0.00621316  0.86115174  0.37258165  1  1.660828  0  0.236231  0.634355  0  4.188059  0
C  C64  1  0.95441970  0.70706141  0.29920808  1  0.070071  0  -0.001698  -0.02916  0  3.994382  0
C  C65  1  0.00257429  0.80018437  0.31333765  1  0.068297  0  -0.006342  -0.128966  0  3.927296  0
C  C66  1  0.04603677  0.83836116  0.26838700  1  0.542269  0  0.108823  0.172137  0  4.073913  0
C  C67  1  0.04525035  0.78713362  0.21040014  1  0.545118  0  0.111386  0.184109  0  4.068868  0
C  C68  1  0.99926499  0.69697233  0.19511157  1  0.118739  0  -0.015301  -0.165958  0  3.958686  0
C  C69  1  0.39270832  0.11085520  0.58162505  1  0.533014  0  0.124693  0.225257  0  3.982046  0
C  C70  1  0.44315485  0.09587436  0.55320159  1  0.169558  0  -0.004831  -0.049973  0  4.120219  0
C  C71  1  0.55231761  0.14985001  0.60670777  1  -0.07046  0  -0.080176  -0.100252  0  4.015129  0
C  C72  1  0.60634095  0.21597104  0.68476818  1  0.001063  0  -0.093569  -0.140839  0  4.007814  0
C  C73  1  0.55553610  0.23256287  0.71415656  1  -0.031377  0  0.007672  0.075222  0  3.946508  0
C  C74  1  0.00375239  0.13853428  0.64441940  1  1.634049  0  0.231235  0.603742  0  4.208555  0
C  C75  1  0.44466987  0.17842095  0.66152685  1  0.082865  0  0.001812  -0.025256  0  3.96024  0
C  C76  1  0.39265184  0.19613486  0.68900023  1  0.082667  0  -0.008487  -0.153772  0  3.903616  0
C  C77  1  0.45162893  0.26802119  0.76466792  1  0.485021  0  0.117  0.285959  0  4.049052  0
C  C78  1  0.55920807  0.32271109  0.81624261  1  0.055862  0  -0.070246  -0.184549  0  3.93702  0
C  C79  1  0.61063426  0.30432270  0.79269618  1  -0.052218  0  0.001125  -0.040056  0  3.920886  0
C  C80  1  0.27963939  0.63836956  0.14327094  1  1.609904  0  0.237854  0.624333  0  4.158683  0
C  C81  1  0.72555893  0.36216750  0.85412388  1  1.617852  0  0.238942  0.621876  0  4.145331  0
C  C82  1  0.00827988  0.36189143  0.13708428  1  1.634524  0  0.234297  0.611172  0  4.201722  0
C  C83  1  0.99718879  0.62862526  0.85488179  1  1.63327  0  0.228636  0.624003  0  4.217595  0
C  C84  1  0.00762309  0.64853990  0.13640618  1  1.631834  0  0.233611  0.633736  0  4.188982  0
C  C85  1  0.97522349  0.26484967  0.66960645  1  0.071453  0  0.023444  -0.002552  0  3.76444  0
C  C86  1  0.00267392  0.36510083  0.85802876  1  1.616995  0  0.228427  0.613664  0  4.203716  0
C  C87  1  0.07189001  0.33793311  0.76386929  1  0.699383  0  0.136845  0.249711  0  3.705791  0
C  C88  1  0.00363326  0.30828291  0.80021460  1  0.03665  0  0.008197  -0.101064  0  3.641284  0
C  C89  1  0.83628167  0.25503725  0.14538250  1  0.852604  0  0.173438  0.238508  0  4.024529  0
C  C90  1  0.61108909  0.70044697  0.23733939  1  0.823594  0  0.173697  0.242665  0  4.021602  0
C  C91  1  0.15304349  0.91597433  0.80803029  1  0.865638  0  0.177916  0.238079  0  4.015182  0
C  C92  1  0.94515136  0.27546687  0.58456022  1  0.860125  0  0.171549  0.229341  0  4.003618  0
C  C93  1  0.79823147  0.70880666  0.49571802  1  0.79546  0  0.185392  0.233945  0  4.025843  0
C  C94  1  0.62926452  0.53283669  0.43920469  1  0.859748  0  0.187576  0.235499  0  3.992988  0
C  C95  1  0.87865948  0.49994903  0.15387272  1  0.857013  0  0.186241  0.279036  0  4.019688  0
C  C96  1  0.38510838  0.02824633  0.47085243  1  0.873002  0  0.181062  0.254512  0  4.032552  0
C  C97  1  0.85921874  0.07528801  0.72295349  1  0.872314  0  0.17389  0.221345  0  3.993692  0
C  C98  1  0.05902063  0.22865945  0.91648529  1  0.853945  0  0.17923  0.225204  0  3.987425  0
C  C99  1  0.19802394  0.28582442  0.83878629  1  0.881617  0  0.174123  0.223701  0  3.99519  0
C  C100  1  0.16854065  0.16242522  0.38394696  1  0.867946  0  0.180464  0.266786  0  4.039815  0
N  N101  1  0.76316812  0.25483347  0.10334949  1  -1.062765  0  -0.285246  -0.314673  0  2.679852  0
N  N102  1  0.64831325  0.66938640  0.22581737  1  -1.098116  0  -0.31842  -0.361743  0  2.683793  0
N  N103  1  0.22107673  0.99141377  0.83873002  1  -1.065685  0  -0.275273  -0.29986  0  2.641346  0
N  N104  1  0.91873401  0.28333780  0.51433070  1  -1.068208  0  -0.288953  -0.319779  0  2.660947  0
N  N105  1  0.79156796  0.74843186  0.44574274  1  -1.057623  0  -0.267124  -0.310882  0  2.801648  0
N  N106  1  0.54858366  0.49914971  0.37205412  1  -1.087273  0  -0.279822  -0.319789  0  2.671821  0
N  N107  1  0.86469548  0.45402138  0.09725885  1  -1.133649  0  -0.294786  -0.368372  0  2.80707  0
N  N108  1  0.33892022  0.97353315  0.40318539  1  -1.13272  0  -0.298574  -0.358142  0  2.738054  0
N  N109  1  0.79714704  0.00282389  0.71202350  1  -1.063422  0  -0.28259  -0.307044  0  2.652723  0
N  N110  1  0.08302371  0.22228919  0.98697327  1  -1.047051  0  -0.275664  -0.302518  0  2.658914  0
N  N111  1  0.27908962  0.29930631  0.87608100  1  -1.028368  0  -0.265842  -0.286669  0  2.660086  0
N  N112  1  0.15982661  0.10677768  0.41676224  1  -1.128261  0  -0.292942  -0.359438  0  2.827154  0
O  O113  1  0.00263898  0.00279995  0.50453222  1  -1.203828  0  -0.568983  -1.039025  0  2.50984  0
O  O114  1  0.23612596  0.18188604  0.61109588  1  -1.148952  0  -0.302017  -0.534906  0  2.336535  0
O  O115  1  0.76787122  0.90165681  0.44832959  1  -1.158268  0  -0.30771  -0.545591  0  2.35941  0
O  O116  1  0.04525876  0.87109784  0.60454924  1  -1.134264  0  -0.292988  -0.51701  0  2.330287  0
O  O117  1  0.93531943  0.05251865  0.32221398  1  -1.162371  0  -0.297362  -0.522483  0  2.322237  0
O  O118  1  0.00238653  0.50087658  0.00108180  1  -1.220524  0  -0.569911  -1.037763  0  2.530647  0
O  O119  1  0.23864051  0.61305063  0.05967630  1  -1.168981  0  -0.312097  -0.540134  0  2.318373  0
O  O120  1  0.76992232  0.32253510  0.87440175  1  -1.175924  0  -0.302669  -0.532594  0  2.351981  0
O  O121  1  0.05920450  0.44377023  0.17939696  1  -1.143742  0  -0.298484  -0.524509  0  2.336636  0
O  O122  1  0.94019742  0.61376693  0.88093041  1  -1.136433  0  -0.302577  -0.528395  0  2.3222  0
O  O123  1  0.07375610  0.63146906  0.17735428  1  -1.151048  0  -0.301147  -0.529112  0  2.315918  0
O  O124  1  0.94109402  0.88853790  0.62564628  1  -1.145396  0  -0.29618  -0.517335  0  2.319377  0
O  O125  1  0.07154583  0.44808879  0.88750201  1  -1.153458  0  -0.299193  -0.51735  0  2.324302  0
O  O126  1  0.94870856  0.63029234  0.05320624  1  -1.158555  0  -0.300918  -0.523338  0  2.315194  0
O  O127  1  0.93342553  0.32281333  0.87197586  1  -1.156797  0  -0.303502  -0.532512  0  2.291913  0
O  O128  1  0.95311421  0.32281663  0.05365309  1  -1.151961  0  -0.298019  -0.523162  0  2.330005  0
O  O129  1  0.06165011  0.60974391  0.87836681  1  -1.140567  0  -0.304684  -0.529998  0  2.319567  0
O  O130  1  0.23342891  0.61518295  0.18154695  1  -1.177287  0  -0.305481  -0.539632  0  2.339878  0
O  O131  1  0.76801970  0.44566046  0.88143070  1  -1.152411  0  -0.306143  -0.539276  0  2.329543  0
O  O132  1  0.05133917  0.17911595  0.44387284  1  -1.143768  0  -0.302418  -0.531517  0  2.301216  0
O  O133  1  0.23451853  0.06030414  0.63940759  1  -1.153309  0  -0.306393  -0.535005  0  2.329487  0
O  O134  1  0.76845043  0.88688679  0.32490402  1  -1.154605  0  -0.295162  -0.522049  0  2.349546  0
O  O135  1  0.07635628  0.89121789  0.45508136  1  -1.147011  0  -0.300818  -0.528449  0  2.341059  0
O  O136  1  0.94193537  0.05543308  0.62355841  1  -1.15616  0  -0.291245  -0.508507  0  2.334937  0
O  O137  1  0.93954646  0.87735644  0.33143122  1  -1.140815  0  -0.296014  -0.518328  0  2.326632  0
O  O138  1  0.06658597  0.18118256  0.62378721  1  -1.152873  0  -0.295376  -0.520207  0  2.297687  0
F  F139  1  0.14072727  0.42249537  0.77634578  1  -0.614832  0  -0.082063  -0.116929  0  1.332378  0
F  F140  1  0.18372253  0.39175914  0.18645633  1  -0.622637  0  -0.071761  -0.107532  0  1.366678  0
F  F141  1  0.82682061  0.49580416  0.70844168  1  -0.622629  0  -0.079479  -0.116836  0  1.359373  0
F  F142  1  0.15154916  0.80439103  0.90755644  1  -0.610207  0  -0.068857  -0.098234  0  1.341667  0
F  F143  1  0.09095949  0.92593065  0.27955905  1  -0.615329  0  -0.075716  -0.092459  0  1.375961  0
F  F144  1  0.91093541  0.71081919  0.40224766  1  -0.611497  0  -0.062338  -0.077226  0  1.438895  0
F  F145  1  0.81978825  0.53519957  0.37467253  1  -0.607332  0  -0.08369  -0.089332  0  1.365552  0
F  F146  1  0.80408618  0.43303371  0.25325107  1  -0.603797  0  -0.065536  -0.081164  0  1.358761  0
F  F147  1  0.09219724  0.82857440  0.17062043  1  -0.611649  0  -0.07858  -0.096918  0  1.34682  0
F  F148  1  0.40507236  0.28640498  0.79278066  1  -0.619729  0  -0.083845  -0.118586  0  1.345791  0
F  F149  1  0.28934376  0.05918368  0.52837441  1  -0.636465  0  -0.066436  -0.095725  0  1.484965  0
F  F150  1  0.84352043  0.15714824  0.25746701  1  -0.612534  0  -0.071254  -0.101705  0  1.343222  0
F  F151  1  0.33434538  0.26735532  0.37787136  1  -0.617547  0  -0.081505  -0.121427  0  1.316303  0
