# generated using pymatgen
data_CdH12C14(NO2)2
_symmetry_space_group_name_H-M   'P 1'
_cell_length_a   4.42744998
_cell_length_b   8.95974569
_cell_length_c   15.81793179
_cell_angle_alpha   105.39420625
_cell_angle_beta   89.99993113
_cell_angle_gamma   90.00001280
_symmetry_Int_Tables_number   1
_chemical_formula_structural   CdH12C14(NO2)2
_chemical_formula_sum   'Cd2 H24 C28 N4 O8'
_cell_volume   604.96625586
_cell_formula_units_Z   2
loop_
 _symmetry_equiv_pos_site_id
 _symmetry_equiv_pos_as_xyz
  1  'x, y, z'
loop_
 _atom_site_type_symbol
 _atom_site_label
 _atom_site_symmetry_multiplicity
 _atom_site_fract_x
 _atom_site_fract_y
 _atom_site_fract_z
 _atom_site_occupancy
 _atom_site_hle17_bader_spin_density
 _atom_site_hle17_ddec_charge
 _atom_site_hle17_ddec_spin_density
 _atom_site_hle17_ddec_sum_bond_order
 _atom_site_hle17_magmom
 _atom_site_hse06_10hf_bader_spin_density
 _atom_site_hse06_10hf_ddec_charge
 _atom_site_hse06_10hf_ddec_spin_density
 _atom_site_hse06_10hf_ddec_sum_bond_order
 _atom_site_hse06_10hf_magmom
 _atom_site_hse06_bader_spin_density
 _atom_site_hse06_ddec_charge
 _atom_site_hse06_ddec_spin_density
 _atom_site_hse06_ddec_sum_bond_order
 _atom_site_hse06_magmom
 _atom_site_pbe_bader_spin_density
 _atom_site_pbe_cm5_charge
 _atom_site_pbe_ddec_charge
 _atom_site_pbe_ddec_spin_density
 _atom_site_pbe_ddec_sum_bond_order
 _atom_site_pbe_magmom
Cd  Cd0  1  0.99999915  0.99999973  0.49999982  1  0  1.173914  0  1.652765  0  0  1.004085  0  2.100086  0  0  1.054721  0  2.047924  0  0  0.776659  0.968235  0  2.135834  0
Cd  Cd1  1  0.49999898  0.50000080  0.00000031  1  0  1.173892  0  1.652794  0  0  1.004066  0  2.100115  0  0  1.054699  0  2.047956  0  0  0.776652  0.968214  0  2.135868  0
H  H2  1  0.40731948  0.76626261  0.43240675  1  0  0.313131  0  0.91204  0  0  0.297477  0  0.976624  0  0  0.303453  0  0.972921  0  0  0.296629  0.29318  0  0.979376  0
H  H3  1  0.90732139  0.73373792  0.06759341  1  0  0.313125  0  0.91202  0  0  0.297459  0  0.976615  0  0  0.303435  0  0.972912  0  0  0.296622  0.293163  0  0.979366  0
H  H4  1  0.59267859  0.23373756  0.56759327  1  0  0.313141  0  0.912016  0  0  0.297473  0  0.97661  0  0  0.303449  0  0.972907  0  0  0.296637  0.293177  0  0.979362  0
H  H5  1  0.09267894  0.26626226  0.93240661  1  0  0.313151  0  0.911975  0  0  0.297488  0  0.976568  0  0  0.303464  0  0.972865  0  0  0.296638  0.293191  0  0.979321  0
H  H6  1  0.21358927  0.71952601  0.51153885  1  0  0.307806  0  0.892093  0  0  0.298714  0  0.946119  0  0  0.303503  0  0.94386  0  0  0.303234  0.295235  0  0.947868  0
H  H7  1  0.71358939  0.78047426  0.98846159  1  0  0.307817  0  0.892085  0  0  0.298728  0  0.946103  0  0  0.303517  0  0.943844  0  0  0.303243  0.295248  0  0.947853  0
H  H8  1  0.78640880  0.28047415  0.48846180  1  0  0.307821  0  0.892072  0  0  0.298731  0  0.946087  0  0  0.30352  0  0.943828  0  0  0.303251  0.295252  0  0.947836  0
H  H9  1  0.28641094  0.21952592  0.01153843  1  0  0.30782  0  0.892065  0  0  0.29873  0  0.946089  0  0  0.303519  0  0.943829  0  0  0.303239  0.29525  0  0.947839  0
H  H10  1  0.25579690  0.68522917  0.27881551  1  0  0.118929  0  0.948939  0  0  0.127226  0  1.013017  0  0  0.130229  0  1.012022  0  0  0.108235  0.125007  0  1.013887  0
H  H11  1  0.75580045  0.81477251  0.22118614  1  0  0.118931  0  0.94894  0  0  0.127221  0  1.013026  0  0  0.130225  0  1.012031  0  0  0.108229  0.125004  0  1.013893  0
H  H12  1  0.74419891  0.31477099  0.72118577  1  0  0.118939  0  0.948993  0  0  0.127234  0  1.013073  0  0  0.130238  0  1.012077  0  0  0.108237  0.125015  0  1.013941  0
H  H13  1  0.24420214  0.18522767  0.77881388  1  0  0.118948  0  0.948945  0  0  0.127235  0  1.013028  0  0  0.130239  0  1.012032  0  0  0.108234  0.125017  0  1.013895  0
H  H14  1  0.59370028  0.32221704  0.21397835  1  0  0.094756  0  0.970574  0  0  0.10223  0  1.038702  0  0  0.104968  0  1.038195  0  0  0.097794  0.100167  0  1.039199  0
H  H15  1  0.09370122  0.17778535  0.28602230  1  0  0.094803  0  0.970555  0  0  0.102264  0  1.038695  0  0  0.105002  0  1.038188  0  0  0.097825  0.100201  0  1.039193  0
H  H16  1  0.40629779  0.67778314  0.78602167  1  0  0.0948  0  0.970558  0  0  0.102264  0  1.038694  0  0  0.105002  0  1.038186  0  0  0.097805  0.100201  0  1.039192  0
H  H17  1  0.90629911  0.82221482  0.71397772  1  0  0.094802  0  0.970577  0  0  0.10228  0  1.038698  0  0  0.10502  0  1.038188  0  0  0.097827  0.100206  0  1.039205  0
H  H18  1  0.49145824  0.35498417  0.37257067  1  0  0.09069  0  0.972191  0  0  0.099508  0  1.037909  0  0  0.102249  0  1.036973  0  0  0.096548  0.097585  0  1.038481  0
H  H19  1  0.99146438  0.14501705  0.12742966  1  0  0.090678  0  0.972185  0  0  0.099511  0  1.037892  0  0  0.102254  0  1.036952  0  0  0.096528  0.097576  0  1.038478  0
H  H20  1  0.50853983  0.64501601  0.62742935  1  0  0.090674  0  0.972192  0  0  0.099492  0  1.037912  0  0  0.102234  0  1.036977  0  0  0.096533  0.09757  0  1.038485  0
H  H21  1  0.00853821  0.85498428  0.87257054  1  0  0.090676  0  0.972191  0  0  0.099494  0  1.037911  0  0  0.102235  0  1.036975  0  0  0.096544  0.09757  0  1.038486  0
H  H22  1  0.76710204  0.55926606  0.48511418  1  0  0.098094  0  0.964927  0  0  0.109795  0  1.027613  0  0  0.112579  0  1.026365  0  0  0.10027  0.107808  0  1.028514  0
H  H23  1  0.26710878  0.94073563  0.01488683  1  0  0.098137  0  0.964893  0  0  0.109838  0  1.027573  0  0  0.112622  0  1.026322  0  0  0.100287  0.10785  0  1.028474  0
H  H24  1  0.23289377  0.44073411  0.51488647  1  0  0.098129  0  0.964867  0  0  0.109825  0  1.027556  0  0  0.112612  0  1.026299  0  0  0.100283  0.107837  0  1.028457  0
H  H25  1  0.73289607  0.05926685  0.98511418  1  0  0.098139  0  0.964869  0  0  0.109838  0  1.027554  0  0  0.112619  0  1.026312  0  0  0.100279  0.10785  0  1.028455  0
C  C26  1  0.03314479  0.63298401  0.38939909  1  0  0.285036  0  3.793333  0  0  0.283935  0  4.038109  0  0  0.290279  0  4.059756  0  0  0.083599  0.279338  0  4.023602  0
C  C27  1  0.53314657  0.86701653  0.11060182  1  0  0.285005  0  3.793304  0  0  0.283909  0  4.038063  0  0  0.290254  0  4.059708  0  0  0.083569  0.279313  0  4.023558  0
C  C28  1  0.96685554  0.36701500  0.61060138  1  0  0.284945  0  3.793311  0  0  0.283833  0  4.038102  0  0  0.290177  0  4.059749  0  0  0.083549  0.279236  0  4.023595  0
C  C29  1  0.46685827  0.13298364  0.88939820  1  0  0.285005  0  3.793306  0  0  0.283899  0  4.038069  0  0  0.290243  0  4.059716  0  0  0.083581  0.279303  0  4.023562  0
C  C30  1  0.08819472  0.61405321  0.30028292  1  0  -0.149898  0  3.666256  0  0  -0.176945  0  3.910502  0  0  -0.178651  0  3.929383  0  0  -0.085028  -0.175636  0  3.897847  0
C  C31  1  0.58819613  0.88594848  0.19971816  1  0  -0.149896  0  3.666253  0  0  -0.176935  0  3.910474  0  0  -0.178642  0  3.929355  0  0  -0.085033  -0.175626  0  3.897821  0
C  C32  1  0.91180335  0.38594579  0.69971756  1  0  -0.149856  0  3.666157  0  0  -0.176904  0  3.910394  0  0  -0.17861  0  3.929274  0  0  -0.085011  -0.175594  0  3.897737  0
C  C33  1  0.41180420  0.11405285  0.80028204  1  0  -0.14991  0  3.666219  0  0  -0.176928  0  3.91042  0  0  -0.178635  0  3.929301  0  0  -0.085027  -0.17562  0  3.897765  0
C  C34  1  0.92885933  0.50273774  0.23735897  1  0  -0.054707  0  3.759076  0  0  -0.02941  0  3.988784  0  0  -0.03658  0  4.01176  0  0  -0.018989  -0.024614  0  3.972976  0
C  C35  1  0.42885825  0.99726278  0.26264181  1  0  -0.054696  0  3.759135  0  0  -0.029408  0  3.98883  0  0  -0.036578  0  4.011805  0  0  -0.01897  -0.024612  0  3.973024  0
C  C36  1  0.07114326  0.49726243  0.76264168  1  0  -0.054696  0  3.75901  0  0  -0.029398  0  3.988717  0  0  -0.036569  0  4.011694  0  0  -0.01897  -0.024602  0  3.972909  0
C  C37  1  0.57114434  0.00273623  0.73735803  1  0  -0.054686  0  3.759077  0  0  -0.0294  0  3.988774  0  0  -0.036569  0  4.011749  0  0  -0.018969  -0.024604  0  3.972961  0
C  C38  1  0.71557621  0.40861885  0.26353221  1  0  -0.078954  0  3.745022  0  0  -0.105373  0  3.994421  0  0  -0.106791  0  4.016675  0  0  -0.091427  -0.104097  0  3.979235  0
C  C39  1  0.21557733  0.09138238  0.23646885  1  0  -0.079011  0  3.745041  0  0  -0.105427  0  3.994456  0  0  -0.106845  0  4.016711  0  0  -0.091473  -0.10415  0  3.979268  0
C  C40  1  0.28442638  0.59138015  0.73646890  1  0  -0.079021  0  3.745042  0  0  -0.105434  0  3.994441  0  0  -0.106852  0  4.016696  0  0  -0.091461  -0.104159  0  3.979255  0
C  C41  1  0.78442526  0.90861781  0.76353054  1  0  -0.079025  0  3.74508  0  0  -0.105453  0  3.994489  0  0  -0.106873  0  4.016741  0  0  -0.091469  -0.104168  0  3.979308  0
C  C42  1  0.65939696  0.42788464  0.35242899  1  0  -0.071164  0  3.797168  0  0  -0.082978  0  4.051033  0  0  -0.084874  0  4.072441  0  0  -0.097834  -0.081694  0  4.036266  0
C  C43  1  0.15940071  0.07211659  0.14757146  1  0  -0.071121  0  3.797117  0  0  -0.082949  0  4.05096  0  0  -0.084846  0  4.072368  0  0  -0.097786  -0.081655  0  4.036199  0
C  C44  1  0.34060337  0.57211437  0.64757149  1  0  -0.071173  0  3.797147  0  0  -0.082991  0  4.051006  0  0  -0.084887  0  4.072414  0  0  -0.097831  -0.081706  0  4.036237  0
C  C45  1  0.84060188  0.92788475  0.85242810  1  0  -0.07109  0  3.797183  0  0  -0.082906  0  4.051035  0  0  -0.084801  0  4.072443  0  0  -0.097811  -0.081623  0  4.036267  0
C  C46  1  0.81430995  0.54093756  0.41538887  1  0  -0.18302  0  3.727939  0  0  -0.202168  0  3.979035  0  0  -0.204989  0  3.997795  0  0  -0.103328  -0.200018  0  3.966326  0
C  C47  1  0.31431414  0.95906644  0.08461249  1  0  -0.183045  0  3.727955  0  0  -0.202196  0  3.979047  0  0  -0.205015  0  3.997805  0  0  -0.103331  -0.200045  0  3.966337  0
C  C48  1  0.18568586  0.45906377  0.58461196  1  0  -0.182964  0  3.727836  0  0  -0.202105  0  3.978932  0  0  -0.204924  0  3.997692  0  0  -0.103294  -0.199955  0  3.966223  0
C  C49  1  0.68568845  0.04093606  0.91538726  1  0  -0.183088  0  3.728011  0  0  -0.202233  0  3.979105  0  0  -0.205055  0  3.997864  0  0  -0.10333  -0.200077  0  3.966382  0
C  C50  1  0.98607531  0.48549058  0.14168355  1  0  0.647492  0  3.907044  0  0  0.597967  0  4.197414  0  0  0.632861  0  4.188638  0  0  0.202943  0.574492  0  4.202166  0
C  C51  1  0.48607361  0.01451064  0.35831679  1  0  0.647492  0  3.907079  0  0  0.597991  0  4.197408  0  0  0.632886  0  4.18863  0  0  0.202943  0.574516  0  4.202162  0
C  C52  1  0.01392728  0.51451075  0.85831665  1  0  0.647509  0  3.907009  0  0  0.597999  0  4.197363  0  0  0.632893  0  4.188588  0  0  0.202944  0.574524  0  4.202116  0
C  C53  1  0.51392672  0.98548838  0.64168305  1  0  0.647505  0  3.90705  0  0  0.598  0  4.197391  0  0  0.632894  0  4.188613  0  0  0.202942  0.574525  0  4.202143  0
N  N54  1  0.19514764  0.74645678  0.45300682  1  0  -0.666461  0  3.154306  0  0  -0.610426  0  3.387501  0  0  -0.631037  0  3.387344  0  0  -0.605278  -0.596232  0  3.387871  0
N  N55  1  0.69514738  0.75354376  0.04699341  1  0  -0.666484  0  3.154255  0  0  -0.610433  0  3.387457  0  0  -0.631044  0  3.387302  0  0  -0.605279  -0.59624  0  3.387827  0
N  N56  1  0.80485043  0.25354339  0.54699383  1  0  -0.66651  0  3.154342  0  0  -0.61044  0  3.387541  0  0  -0.631052  0  3.387387  0  0  -0.605303  -0.596247  0  3.38791  0
N  N57  1  0.30485520  0.24645758  0.95300616  1  0  -0.666498  0  3.154225  0  0  -0.61045  0  3.387433  0  0  -0.631061  0  3.387278  0  0  -0.605293  -0.596257  0  3.387803  0
O  O58  1  0.18774902  0.57278501  0.12206920  1  0  -0.661831  0  2.033329  0  0  -0.595614  0  2.288814  0  0  -0.623565  0  2.278824  0  0  -0.330791  -0.576048  0  2.294724  0
O  O59  1  0.68774742  0.92721552  0.37793166  1  0  -0.661845  0  2.033324  0  0  -0.595633  0  2.288807  0  0  -0.623584  0  2.278817  0  0  -0.330806  -0.576067  0  2.294717  0
O  O60  1  0.81225131  0.42721516  0.87793145  1  0  -0.661833  0  2.033284  0  0  -0.595616  0  2.288772  0  0  -0.623562  0  2.278769  0  0  -0.330777  -0.57605  0  2.294682  0
O  O61  1  0.31225291  0.07278465  0.62206836  1  0  -0.66186  0  2.03329  0  0  -0.595643  0  2.288765  0  0  -0.623599  0  2.278785  0  0  -0.330813  -0.576077  0  2.294674  0
O  O62  1  0.82830288  0.38715737  0.08565435  1  0  -0.676852  0  1.989728  0  0  -0.615982  0  2.24642  0  0  -0.640996  0  2.233476  0  0  -0.344911  -0.598593  0  2.254403  0
O  O63  1  0.32830324  0.11284385  0.41434604  1  0  -0.676847  0  1.989772  0  0  -0.615984  0  2.246439  0  0  -0.640998  0  2.233495  0  0  -0.3449  -0.598596  0  2.254425  0
O  O64  1  0.17169745  0.61284395  0.91434648  1  0  -0.676841  0  1.989737  0  0  -0.615985  0  2.246417  0  0  -0.641  0  2.233475  0  0  -0.344909  -0.598596  0  2.254403  0
O  O65  1  0.67169709  0.88715517  0.58565380  1  0  -0.676847  0  1.989771  0  0  -0.615992  0  2.246455  0  0  -0.641006  0  2.233513  0  0  -0.344899  -0.598603  0  2.254437  0
