# generated using pymatgen
data_Nd2H20C28N2O17
_symmetry_space_group_name_H-M   'P 1'
_cell_length_a   10.19247560
_cell_length_b   12.41698899
_cell_length_c   13.26590000
_cell_angle_alpha   72.41769557
_cell_angle_beta   73.38697568
_cell_angle_gamma   69.84190840
_symmetry_Int_Tables_number   1
_chemical_formula_structural   Nd2H20C28N2O17
_chemical_formula_sum   'Nd4 H40 C56 N4 O34'
_cell_volume   1471.12611314
_cell_formula_units_Z   2
loop_
 _symmetry_equiv_pos_site_id
 _symmetry_equiv_pos_as_xyz
  1  'x, y, z'
loop_
 _atom_site_type_symbol
 _atom_site_label
 _atom_site_symmetry_multiplicity
 _atom_site_fract_x
 _atom_site_fract_y
 _atom_site_fract_z
 _atom_site_occupancy
 _atom_site_hle17_bader_spin_density
 _atom_site_hle17_ddec_charge
 _atom_site_hle17_ddec_spin_density
 _atom_site_hle17_ddec_sum_bond_order
 _atom_site_hle17_magmom
 _atom_site_hse06_10hf_bader_spin_density
 _atom_site_hse06_10hf_ddec_charge
 _atom_site_hse06_10hf_ddec_spin_density
 _atom_site_hse06_10hf_ddec_sum_bond_order
 _atom_site_hse06_10hf_magmom
 _atom_site_hse06_bader_spin_density
 _atom_site_hse06_ddec_charge
 _atom_site_hse06_ddec_spin_density
 _atom_site_hse06_ddec_sum_bond_order
 _atom_site_hse06_magmom
 _atom_site_pbe_bader_charge
 _atom_site_pbe_bader_spin_density
 _atom_site_pbe_cm5_charge
 _atom_site_pbe_ddec_charge
 _atom_site_pbe_ddec_spin_density
 _atom_site_pbe_ddec_sum_bond_order
 _atom_site_pbe_magmom
Nd  Nd0  1  0.80934183  0.78387283  0.40350899  1  0  2.263832  0  1.629456  0  0  2.100031  0  2.097982  0  0  2.199888  0  1.950016  0  2.235585  0  1.473929  2.063865  0  2.135713  0
Nd  Nd1  1  0.19065752  0.21612795  0.59649093  1  0  2.263837  0  1.629465  0  0  2.100016  0  2.09802  0  0  2.199882  0  1.95003  0  2.235587  0  1.473927  2.063845  0  2.135754  0
Nd  Nd2  1  0.18436531  0.71973278  0.54172878  1  0  2.280181  0  1.590439  0  0  2.118898  0  2.053698  0  0  2.218585  0  1.904805  0  2.238661  0  1.471839  2.085273  0  2.088242  0
Nd  Nd3  1  0.81563537  0.28026712  0.45827034  1  0  2.28021  0  1.590408  0  0  2.118903  0  2.053678  0  0  2.218598  0  1.90477  0  2.238559  0  1.471829  2.085278  0  2.088221  0
H  H4  1  0.87188659  0.96190516  0.48473402  1  0  0.444767  0  0.832995  0  0  0.415568  0  0.902296  0  0  0.424615  0  0.88938  0  0.628695  0  0.317803  0.408965  0  0.912001  0
H  H5  1  0.12811379  0.03809562  0.51526568  1  0  0.4447  0  0.833084  0  0  0.415493  0  0.90241  0  0  0.424541  0  0.889492  0  0.628702  0  0.317774  0.408889  0  0.912116  0
H  H6  1  0.71805267  0.02415700  0.46694674  1  0  0.446289  0  0.845302  0  0  0.418792  0  0.902262  0  0  0.429547  0  0.886797  0  0.641554  0  0.309999  0.411276  0  0.913191  0
H  H7  1  0.28194699  0.97584290  0.53305336  1  0  0.446269  0  0.845333  0  0  0.418772  0  0.902293  0  0  0.429528  0  0.886827  0  0.641553  0  0.309995  0.411256  0  0.913222  0
H  H8  1  0.30880692  0.53033007  0.72477255  1  0  0.431979  0  0.870595  0  0  0.399949  0  0.935895  0  0  0.411917  0  0.918713  0  0.641177  0  0.291501  0.391339  0  0.948418  0
H  H9  1  0.69119377  0.46966983  0.27522733  1  0  0.431945  0  0.870612  0  0  0.399929  0  0.935891  0  0  0.411895  0  0.918712  0  0.64118  0  0.291495  0.391318  0  0.948414  0
H  H10  1  0.29831524  0.45911238  0.64469294  1  0  0.434623  0  0.86589  0  0  0.404733  0  0.927827  0  0  0.416256  0  0.911156  0  0.657253  0  0.297667  0.396672  0  0.939579  0
H  H11  1  0.70168544  0.54088752  0.35530694  1  0  0.434625  0  0.865887  0  0  0.404737  0  0.92782  0  0  0.41626  0  0.91115  0  0.657254  0  0.297673  0.396676  0  0.939572  0
H  H12  1  0.28625781  0.50831415  0.42927424  1  0  0.460158  0  0.79841  0  0  0.438898  0  0.852869  0  0  0.447776  0  0.840072  0  0.641843  0  0.329106  0.432673  0  0.861985  0
H  H13  1  0.71374216  0.49168486  0.57072680  1  0  0.460154  0  0.798408  0  0  0.438902  0  0.852859  0  0  0.447779  0  0.840064  0  0.641852  0  0.329113  0.432676  0  0.861975  0
H  H14  1  0.12662671  0.56959619  0.42118650  1  0  0.443149  0  0.858149  0  0  0.41107  0  0.923869  0  0  0.421038  0  0.909721  0  0.658082  0  0.307814  0.404024  0  0.934071  0
H  H15  1  0.87337398  0.43040371  0.57881413  1  0  0.443155  0  0.85816  0  0  0.411071  0  0.923885  0  0  0.421039  0  0.909738  0  0.658078  0  0.307825  0.404025  0  0.934087  0
H  H16  1  0.00463209  0.36625485  0.92925154  1  0  0.09968  0  0.962758  0  0  0.10999  0  1.025573  0  0  0.112866  0  1.023932  0  0.085775  0  0.108641  0.107928  0  1.0268  0
H  H17  1  0.99536757  0.63374505  0.07074856  1  0  0.099665  0  0.962787  0  0  0.10998  0  1.025596  0  0  0.112856  0  1.023953  0  0.085767  0  0.108639  0.107917  0  1.026823  0
H  H18  1  0.83539408  0.49109124  0.05668190  1  0  0.11291  0  0.938191  0  0  0.122885  0  0.993963  0  0  0.12626  0  0.992516  0  0.118426  0  0.11214  0.120447  0  0.995148  0
H  H19  1  0.16460528  0.50890954  0.94331878  1  0  0.112901  0  0.938186  0  0  0.122884  0  0.99395  0  0  0.126237  0  0.992533  0  0.118436  0  0.112148  0.120443  0  0.995143  0
H  H20  1  0.66116252  0.67733209  0.98305719  1  0  0.098155  0  0.976578  0  0  0.106926  0  1.041023  0  0  0.109303  0  1.040971  0  0.065305  0  0.103901  0.105231  0  1.041121  0
H  H21  1  0.33883744  0.32266693  0.01694310  1  0  0.098141  0  0.976599  0  0  0.106952  0  1.041001  0  0  0.109329  0  1.040948  0  0.06538  0  0.103912  0.105256  0  1.041099  0
H  H22  1  0.56109547  0.05334831  0.69197670  1  0  0.137201  0  0.961767  0  0  0.145241  0  1.022942  0  0  0.149297  0  1.021111  0  0.132242  0  0.116961  0.142156  0  1.024573  0
H  H23  1  0.43890624  0.94665159  0.30802295  1  0  0.13719  0  0.961756  0  0  0.14523  0  1.022924  0  0  0.149287  0  1.021092  0  0.132272  0  0.116955  0.142145  0  1.024555  0
H  H24  1  0.75717275  0.87469672  0.73159281  1  0  0.100453  0  0.948329  0  0  0.108853  0  1.013378  0  0  0.111147  0  1.011123  0  0.140056  0  0.128331  0.107426  0  1.014489  0
H  H25  1  0.24282691  0.12530318  0.26840730  1  0  0.100449  0  0.948332  0  0  0.108846  0  1.013386  0  0  0.111139  0  1.01113  0  0.140051  0  0.128326  0.107418  0  1.014497  0
H  H26  1  0.48600504  0.65869559  0.82301438  1  0  0.107858  0  0.962117  0  0  0.112398  0  1.031013  0  0  0.116899  0  1.026022  0  0.168611  0  0.123252  0.108995  0  1.034617  0
H  H27  1  0.51399258  0.34130431  0.17698768  1  0  0.107863  0  0.962148  0  0  0.112399  0  1.031049  0  0  0.116898  0  1.02606  0  0.168665  0  0.123259  0.108997  0  1.034649  0
H  H28  1  0.27765478  0.82987751  0.78982937  1  0  0.137875  0  0.943  0  0  0.147215  0  1.001168  0  0  0.150752  0  1.00044  0  0.108136  0  0.117045  0.145004  0  1.001274  0
H  H29  1  0.72234428  0.17012415  0.21017112  1  0  0.137893  0  0.94299  0  0  0.147248  0  1.001125  0  0  0.150784  0  1.000398  0  0.108022  0  0.117068  0.145036  0  1.001231  0
H  H30  1  0.96198981  0.24557645  0.08884421  1  0  0.104556  0  0.956828  0  0  0.115546  0  1.016694  0  0  0.119043  0  1.014198  0  0.112066  0  0.107881  0.11305  0  1.018506  0
H  H31  1  0.03801190  0.75442345  0.91115545  1  0  0.104541  0  0.956818  0  0  0.115513  0  1.016697  0  0  0.119009  0  1.014204  0  0.112071  0  0.107879  0.113018  0  1.018509  0
H  H32  1  0.09750309  0.16415184  0.92350954  1  0  0.117292  0  0.970847  0  0  0.12499  0  1.033192  0  0  0.129413  0  1.029942  0  0.164982  0  0.108175  0.121844  0  1.035606  0
H  H33  1  0.90249832  0.83584894  0.07648994  1  0  0.117256  0  0.970892  0  0  0.124966  0  1.033222  0  0  0.129386  0  1.029982  0  0.164994  0  0.108177  0.121819  0  1.035637  0
H  H34  1  0.25913689  0.95898462  0.94843369  1  0  0.109746  0  0.961887  0  0  0.118192  0  1.025967  0  0  0.120908  0  1.025141  0  0.104575  0  0.107325  0.116255  0  1.026568  0
H  H35  1  0.74086452  0.04101616  0.05156578  1  0  0.109765  0  0.961849  0  0  0.118209  0  1.025932  0  0  0.120923  0  1.025108  0  0.104593  0  0.107325  0.116269  0  1.026536  0
H  H36  1  0.35096011  0.53607339  0.12046823  1  0  0.112451  0  0.993834  0  0  0.120972  0  1.058641  0  0  0.123027  0  1.061074  0  0.095436  0  0.102901  0.119524  0  1.057131  0
H  H37  1  0.64904057  0.46392651  0.87953015  1  0  0.112466  0  0.993814  0  0  0.120989  0  1.058625  0  0  0.123046  0  1.061058  0  0.095307  0  0.102901  0.119541  0  1.057112  0
H  H38  1  0.17918728  0.73693191  0.09646292  1  0  0.097385  0  0.937135  0  0  0.107857  0  1.000275  0  0  0.110059  0  0.998396  0  0.147489  0  0.127169  0.106246  0  1.001608  0
H  H39  1  0.82081340  0.26306799  0.90353545  1  0  0.097384  0  0.937176  0  0  0.10785  0  1.00032  0  0  0.110054  0  0.998441  0  0.147493  0  0.127162  0.10624  0  1.001652  0
H  H40  1  0.44829701  0.87699017  0.16949072  1  0  0.092153  0  0.947711  0  0  0.102387  0  1.010151  0  0  0.104912  0  1.007918  0  0.129877  0  0.126092  0.100514  0  1.0119  0
H  H41  1  0.55170295  0.12300885  0.83050957  1  0  0.092145  0  0.947704  0  0  0.102375  0  1.010149  0  0  0.104902  0  1.007915  0  0.129841  0  0.126081  0.100503  0  1.011897  0
H  H42  1  0.62911875  0.68257427  0.20151623  1  0  0.140305  0  0.939057  0  0  0.151652  0  0.992535  0  0  0.155717  0  0.991371  0  0.122045  0  0.120304  0.148998  0  0.993104  0
H  H43  1  0.37088121  0.31742475  0.79848481  1  0  0.140303  0  0.939077  0  0  0.151652  0  0.992554  0  0  0.155717  0  0.991391  0  0.122044  0  0.120305  0.148998  0  0.993123  0
C  C44  1  0.84529353  0.64421795  0.62783380  1  0  0.712396  0  3.893926  0  0  0.657066  0  4.199973  0  0  0.692654  0  4.192373  0  1.612841  0  0.223115  0.632686  0  4.207972  0
C  C45  1  0.15470921  0.35578195  0.37216789  1  0  0.712583  0  3.893971  0  0  0.657203  0  4.200082  0  0  0.692792  0  4.192481  0  1.612848  0  0.223157  0.632822  0  4.208082  0
C  C46  1  0.02005821  0.39661139  0.72106390  1  0  0.651195  0  3.911114  0  0  0.601112  0  4.206801  0  0  0.634139  0  4.204319  0  1.588575  0  0.208615  0.578227  0  4.211173  0
C  C47  1  0.97994115  0.60338939  0.27893602  1  0  0.651183  0  3.91116  0  0  0.601135  0  4.206798  0  0  0.634163  0  4.204314  0  1.588534  0  0.208625  0.57825  0  4.211171  0
C  C48  1  0.84105279  0.59328727  0.74651343  1  0  -0.089043  0  3.640207  0  0  -0.084235  0  3.880553  0  0  -0.085761  0  3.895692  0  -0.001506  0  0.015116  -0.083231  0  3.870064  0
C  C49  1  0.15894657  0.40671350  0.25348724  1  0  -0.089173  0  3.640225  0  0  -0.084357  0  3.880593  0  0  -0.085885  0  3.895733  0  -0.0015  0  0.015064  -0.083354  0  3.870102  0
C  C50  1  0.93275197  0.48448215  0.78881993  1  0  -0.053746  0  3.698116  0  0  -0.037895  0  3.930376  0  0  -0.04398  0  3.950418  0  -0.028436  0  0.000771  -0.033914  0  3.916716  0
C  C51  1  0.06724667  0.51551774  0.21118115  1  0  -0.053699  0  3.6981  0  0  -0.037849  0  3.930343  0  0  -0.043934  0  3.950386  0  -0.028445  0  0.000775  -0.033865  0  3.916676  0
C  C52  1  0.93097765  0.45015787  0.89979215  1  0  -0.062922  0  3.719111  0  0  -0.088948  0  3.968224  0  0  -0.088323  0  3.987076  0  -0.030712  0  -0.074084  -0.089203  0  3.955309  0
C  C53  1  0.06902098  0.54984203  0.10020818  1  0  -0.062909  0  3.719089  0  0  -0.088939  0  3.968208  0  0  -0.088313  0  3.987052  0  -0.031386  0  -0.074084  -0.089195  0  3.955292  0
C  C54  1  0.83727582  0.51939125  0.97029325  1  0  -0.049781  0  3.742002  0  0  -0.062171  0  3.994288  0  0  -0.064568  0  4.014049  0  0.017404  0  -0.080107  -0.060642  0  3.980997  0
C  C55  1  0.16272282  0.48060865  0.02970783  1  0  -0.049746  0  3.741951  0  0  -0.062146  0  3.994258  0  0  -0.064527  0  4.014026  0  0.018062  0  -0.080104  -0.060618  0  3.980966  0
C  C56  1  0.73987210  0.62331530  0.92968749  1  0  -0.115784  0  3.731337  0  0  -0.140957  0  3.986893  0  0  -0.141456  0  4.005339  0  -0.009002  0  -0.079152  -0.140471  0  3.974275  0
C  C57  1  0.26012756  0.37668460  0.07031337  1  0  -0.115771  0  3.731331  0  0  -0.140976  0  3.98688  0  0  -0.141473  0  4.005318  0  -0.009059  0  -0.079156  -0.140489  0  3.974262  0
C  C58  1  0.74093746  0.65861808  0.81926297  1  0  0.132824  0  3.73206  0  0  0.118459  0  3.987788  0  0  0.121678  0  4.009579  0  0.273979  0  0.094953  0.116379  0  3.972658  0
C  C59  1  0.25906088  0.34138270  0.18073718  1  0  0.132861  0  3.731968  0  0  0.118501  0  3.987686  0  0  0.121721  0  4.009477  0  0.273969  0  0.095024  0.116421  0  3.972557  0
C  C60  1  0.53730455  0.96920827  0.72491296  1  0  -0.244879  0  3.673419  0  0  -0.265115  0  3.93448  0  0  -0.277775  0  3.950376  0  0.054624  0  -0.094179  -0.257042  0  3.92373  0
C  C61  1  0.46269553  0.03079339  0.27508731  1  0  -0.24486  0  3.673427  0  0  -0.265089  0  3.934484  0  0  -0.277747  0  3.950375  0  0.05469  0  -0.094166  -0.257018  0  3.923735  0
C  C62  1  0.64846659  0.87072369  0.74541336  1  0  0.118403  0  3.644577  0  0  0.074242  0  3.900791  0  0  0.086439  0  3.914916  0  0.324661  0  0.055212  0.066138  0  3.891413  0
C  C63  1  0.35153307  0.12927621  0.25458674  1  0  0.118369  0  3.644598  0  0  0.074214  0  3.900803  0  0  0.086411  0  3.914929  0  0.324648  0  0.055207  0.066113  0  3.891422  0
C  C64  1  0.49511180  0.74850574  0.79867272  1  0  0.107693  0  3.628227  0  0  0.063469  0  3.884567  0  0  0.074987  0  3.897416  0  0.318162  0  0.050807  0.056229  0  3.876219  0
C  C65  1  0.50488654  0.25149503  0.20132818  1  0  0.107639  0  3.628278  0  0  0.06342  0  3.884625  0  0  0.074938  0  3.897474  0  0.317681  0  0.05079  0.056179  0  3.876278  0
C  C66  1  0.38047470  0.84431904  0.77970454  1  0  -0.232994  0  3.662491  0  0  -0.250493  0  3.920513  0  0  -0.262592  0  3.936503  0  0.065547  0  -0.091357  -0.242769  0  3.90895  0
C  C67  1  0.61952364  0.15568174  0.22029636  1  0  -0.232987  0  3.662528  0  0  -0.250489  0  3.92056  0  0  -0.262589  0  3.936552  0  0.065681  0  -0.091354  -0.242766  0  3.908999  0
C  C68  1  0.39525307  0.96133972  0.74297468  1  0  0.467568  0  3.860767  0  0  0.451926  0  4.122565  0  0  0.477042  0  4.128761  0  0.738058  0  0.124923  0.435591  0  4.118752  0
C  C69  1  0.60474732  0.03866106  0.25702577  1  0  0.467556  0  3.860718  0  0  0.451901  0  4.122524  0  0  0.477019  0  4.128721  0  0.737993  0  0.124902  0.435567  0  4.118711  0
C  C70  1  0.47431831  0.79870717  0.50499609  1  0  0.56526  0  3.921342  0  0  0.520859  0  4.216679  0  0  0.55058  0  4.212382  0  1.610607  0  0.221846  0.500125  0  4.223295  0
C  C71  1  0.52568135  0.20129273  0.49500401  1  0  0.565319  0  3.9215  0  0  0.520927  0  4.216816  0  0  0.550677  0  4.212457  0  1.610601  0  0.221882  0.500185  0  4.223447  0
C  C72  1  0.52371059  0.69432249  0.44909483  1  0  0.556275  0  3.923017  0  0  0.511957  0  4.219955  0  0  0.54158  0  4.215654  0  1.582983  0  0.220795  0.49128  0  4.226793  0
C  C73  1  0.47628938  0.30567653  0.55090621  1  0  0.556238  0  3.923119  0  0  0.511922  0  4.220029  0  0  0.541548  0  4.215705  0  1.582953  0  0.220806  0.491247  0  4.226868  0
C  C74  1  0.13507370  0.88626526  0.32362816  1  0  0.709571  0  3.911946  0  0  0.654487  0  4.218599  0  0  0.690165  0  4.210905  0  1.624826  0  0.221404  0.629803  0  4.227292  0
C  C75  1  0.86492596  0.11373463  0.67637194  1  0  0.709572  0  3.91196  0  0  0.654494  0  4.218585  0  0  0.690172  0  4.210894  0  1.624745  0  0.221409  0.62981  0  4.227279  0
C  C76  1  0.96361240  0.14566154  0.29334818  1  0  0.626836  0  3.947856  0  0  0.57959  0  4.245422  0  0  0.612322  0  4.243279  0  1.54853  0  0.194842  0.557172  0  4.249003  0
C  C77  1  0.03638859  0.85433748  0.70665113  1  0  0.626772  0  3.947893  0  0  0.57957  0  4.245406  0  0  0.612304  0  4.243261  0  1.548538  0  0.194802  0.557154  0  4.248985  0
C  C78  1  0.12546585  0.96926376  0.21448756  1  0  -0.096895  0  3.657309  0  0  -0.09123  0  3.897495  0  0  -0.093141  0  3.913655  0  -0.030158  0  0.009925  -0.089865  0  3.885954  0
C  C79  1  0.87453411  0.03073526  0.78551046  1  0  -0.096922  0  3.657356  0  0  -0.091237  0  3.897523  0  0  -0.093147  0  3.913681  0  -0.030196  0  0.009917  -0.089873  0  3.885978  0
C  C80  1  0.03905321  0.08659545  0.20044831  1  0  -0.065699  0  3.717911  0  0  -0.052024  0  3.955362  0  0  -0.058293  0  3.975423  0  -0.001666  0  -0.008001  -0.047248  0  3.940087  0
C  C81  1  0.96094717  0.91340533  0.79955063  1  0  -0.065692  0  3.717998  0  0  -0.052026  0  3.955435  0  0  -0.058298  0  3.975497  0  -0.001671  0  -0.007999  -0.047251  0  3.94016  0
C  C82  1  0.02962289  0.15503351  0.09568336  1  0  -0.067219  0  3.72523  0  0  -0.095586  0  3.978723  0  0  -0.094943  0  3.997923  0  -0.016327  0  -0.079678  -0.095815  0  3.965247  0
C  C83  1  0.97037749  0.84496727  0.90431633  1  0  -0.067235  0  3.725269  0  0  -0.095587  0  3.978772  0  0  -0.094941  0  3.997974  0  -0.016324  0  -0.079693  -0.095814  0  3.965296  0
C  C84  1  0.10480719  0.11009277  0.00468711  1  0  -0.063703  0  3.746354  0  0  -0.076594  0  3.998158  0  0  -0.079582  0  4.017458  0  -0.082327  0  -0.086665  -0.074691  0  3.985235  0
C  C85  1  0.89519349  0.88990713  0.99531201  1  0  -0.063655  0  3.746385  0  0  -0.076549  0  3.998198  0  0  -0.079541  0  4.017498  0  -0.082347  0  -0.086659  -0.074649  0  3.985275  0
C  C86  1  0.19537866  0.99542092  0.01809196  1  0  -0.111285  0  3.722567  0  0  -0.135059  0  3.97478  0  0  -0.135008  0  3.992942  0  -0.048506  0  -0.078916  -0.13502  0  3.962701  0
C  C87  1  0.80462275  0.00457986  0.98190600  1  0  -0.111335  0  3.722624  0  0  -0.135117  0  3.974861  0  0  -0.135065  0  3.993024  0  -0.048318  0  -0.078927  -0.135077  0  3.962783  0
C  C88  1  0.20584923  0.92730256  0.12187842  1  0  0.128665  0  3.758779  0  0  0.115243  0  4.012505  0  0  0.117893  0  4.035483  0  0.294516  0  0.091221  0.113404  0  3.996913  0
C  C89  1  0.79415146  0.07269734  0.87811995  1  0  0.128694  0  3.758736  0  0  0.115272  0  4.012458  0  0  0.117923  0  4.035435  0  0.294373  0  0.091237  0.113438  0  3.996862  0
C  C90  1  0.37558238  0.60853909  0.13379783  1  0  -0.250203  0  3.701835  0  0  -0.270178  0  3.961154  0  0  -0.28355  0  3.980608  0  0.039847  0  -0.104294  -0.261426  0  3.947806  0
C  C91  1  0.62441830  0.39146081  0.86620054  1  0  -0.250217  0  3.701765  0  0  -0.270204  0  3.961116  0  0  -0.283576  0  3.980572  0  0.040028  0  -0.104306  -0.261447  0  3.947765  0
C  C92  1  0.28080981  0.71806377  0.11899471  1  0  0.102768  0  3.675516  0  0  0.058626  0  3.931775  0  0  0.070623  0  3.946365  0  0.26547  0  0.046608  0.050912  0  3.921737  0
C  C93  1  0.71919118  0.28193524  0.88100309  1  0  0.102716  0  3.675576  0  0  0.058599  0  3.931812  0  0  0.070595  0  3.946403  0  0.26547  0  0.04661  0.050883  0  3.921776  0
C  C94  1  0.43332482  0.79735170  0.16201619  1  0  0.107097  0  3.678623  0  0  0.063391  0  3.932836  0  0  0.075646  0  3.946395  0  0.301128  0  0.047401  0.055244  0  3.923936  0
C  C95  1  0.56667454  0.20264908  0.83798297  1  0  0.107114  0  3.678611  0  0  0.063425  0  3.932817  0  0  0.075674  0  3.946384  0  0.301128  0  0.04743  0.055278  0  3.923917  0
C  C96  1  0.53118195  0.68979724  0.17905974  1  0  -0.246401  0  3.682799  0  0  -0.262997  0  3.9384  0  0  -0.275687  0  3.95453  0  0.02026  0  -0.097415  -0.254688  0  3.926936  0
C  C97  1  0.46881771  0.31020266  0.82094037  1  0  -0.246424  0  3.682857  0  0  -0.263033  0  3.938492  0  0  -0.275723  0  3.954623  0  0.020234  0  -0.097427  -0.254723  0  3.927029  0
C  C98  1  0.50471389  0.58624310  0.17049102  1  0  0.434217  0  3.875632  0  0  0.4174  0  4.141016  0  0  0.442387  0  4.145376  0  0.852453  0  0.115669  0.400951  0  4.136989  0
C  C99  1  0.49528680  0.41375680  0.82950735  1  0  0.434297  0  3.875576  0  0  0.417455  0  4.141012  0  0  0.442442  0  4.145372  0  0.85242  0  0.11569  0.401005  0  4.136986  0
N  N100  1  0.62830688  0.76123951  0.78372346  1  0  -0.088746  0  3.578254  0  0  0.002182  0  3.789257  0  0  -0.0149  0  3.815012  0  -1.253724  0  -0.217636  0.013193  0  3.771547  0
N  N101  1  0.37169146  0.23876126  0.21627744  1  0  -0.088715  0  3.578131  0  0  0.002198  0  3.789163  0  0  -0.014883  0  3.814917  0  -1.253302  0  -0.217698  0.01321  0  3.771453  0
N  N102  1  0.30735275  0.81203984  0.13459483  1  0  -0.099332  0  3.598814  0  0  -0.008864  0  3.810063  0  0  -0.026582  0  3.835969  0  -1.253285  0  -0.226474  0.002941  0  3.791984  0
N  N103  1  0.69264721  0.18795918  0.86540395  1  0  -0.09928  0  3.598764  0  0  -0.008822  0  3.810008  0  0  -0.026537  0  3.835909  0  -1.253242  0  -0.226468  0.002981  0  3.79193  0
O  O104  1  0.94260062  0.69470913  0.57380975  1  0  -0.787986  0  2.061512  0  0  -0.730825  0  2.32889  0  0  -0.769132  0  2.31685  0  -1.210996  0  -0.403192  -0.712003  0  2.336101  0
O  O105  1  0.05740007  0.30529076  0.42619088  1  0  -0.788064  0  2.061493  0  0  -0.73086  0  2.328852  0  0  -0.769172  0  2.316813  0  -1.210941  0  -0.403185  -0.712039  0  2.336065  0
O  O106  1  0.74672690  0.64637313  0.58691599  1  0  -0.669394  0  2.000967  0  0  -0.620825  0  2.240248  0  0  -0.6496  0  2.230102  0  -1.171669  0  -0.345009  -0.60371  0  2.246519  0
O  O107  1  0.25327143  0.35362765  0.41308491  1  0  -0.669456  0  2.001191  0  0  -0.620876  0  2.24051  0  0  -0.64965  0  2.230362  0  -1.17172  0  -0.345032  -0.603761  0  2.246783  0
O  O108  1  0.01996158  0.42282932  0.61988053  1  0  -0.682979  0  2.016547  0  0  -0.620805  0  2.246511  0  0  -0.649461  0  2.237009  0  -1.194702  0  -0.33834  -0.603996  0  2.252684  0
O  O109  1  0.98003911  0.57717057  0.38012010  1  0  -0.683008  0  2.016551  0  0  -0.620855  0  2.246511  0  0  -0.649512  0  2.237009  0  -1.194707  0  -0.338339  -0.604039  0  2.252671  0
O  O110  1  0.08763917  0.29455187  0.76700610  1  0  -0.686443  0  1.962998  0  0  -0.640463  0  2.206768  0  0  -0.669875  0  2.196445  0  -1.190796  0  -0.367104  -0.623811  0  2.212927  0
O  O111  1  0.91236121  0.70544890  0.23299435  1  0  -0.68641  0  1.962999  0  0  -0.640451  0  2.20675  0  0  -0.669861  0  2.196426  0  -1.190764  0  -0.367111  -0.623802  0  2.212911  0
O  O112  1  0.28767070  0.05245612  0.72808668  1  0  -0.712979  0  1.995693  0  0  -0.659308  0  2.24546  0  0  -0.691194  0  2.232471  0  -1.202143  0  -0.424758  -0.642407  0  2.250915  0
O  O113  1  0.71233071  0.94754466  0.27191354  1  0  -0.712966  0  1.995634  0  0  -0.659292  0  2.24539  0  0  -0.691175  0  2.232396  0  -1.202143  0  -0.424752  -0.642391  0  2.250842  0
O  O114  1  0.56072165  0.85594219  0.49175777  1  0  -0.617111  0  2.051922  0  0  -0.570069  0  2.296505  0  0  -0.598643  0  2.288567  0  -1.163256  0  -0.363432  -0.553731  0  2.3008  0
O  O115  1  0.43927903  0.14405771  0.50824211  1  0  -0.617152  0  2.052081  0  0  -0.570107  0  2.296649  0  0  -0.598694  0  2.288693  0  -1.163275  0  -0.363454  -0.553766  0  2.300949  0
O  O116  1  0.34628602  0.82098642  0.55837214  1  0  -0.681947  0  2.105298  0  0  -0.623478  0  2.340778  0  0  -0.654768  0  2.33242  0  -1.193227  0  -0.362041  -0.605877  0  2.345471  0
O  O117  1  0.65371365  0.17901348  0.44162796  1  0  -0.681969  0  2.105311  0  0  -0.62351  0  2.340798  0  0  -0.654815  0  2.332426  0  -1.193223  0  -0.36205  -0.605908  0  2.345496  0
O  O118  1  0.65149725  0.67267649  0.39438608  1  0  -0.683165  0  2.109184  0  0  -0.626097  0  2.348678  0  0  -0.657004  0  2.339057  0  -1.19297  0  -0.356811  -0.608303  0  2.354134  0
O  O119  1  0.34850404  0.32732165  0.60561567  1  0  -0.683117  0  2.109368  0  0  -0.626037  0  2.348846  0  0  -0.656951  0  2.339222  0  -1.192948  0  -0.35678  -0.608243  0  2.354301  0
O  O120  1  0.43541571  0.63998158  0.45948274  1  0  -0.627594  0  2.058205  0  0  -0.580348  0  2.300775  0  0  -0.608595  0  2.291321  0  -1.15929  0  -0.362877  -0.564751  0  2.306184  0
O  O121  1  0.56458497  0.36001832  0.54051638  1  0  -0.627617  0  2.058116  0  0  -0.580364  0  2.300673  0  0  -0.60862  0  2.291217  0  -1.159324  0  -0.362927  -0.564768  0  2.306081  0
O  O122  1  0.04271838  0.82846040  0.36597133  1  0  -0.787914  0  2.05757  0  0  -0.729376  0  2.320756  0  0  -0.766299  0  2.307561  0  -1.223409  0  -0.390603  -0.711053  0  2.329251  0
O  O123  1  0.95728291  0.17153774  0.63402966  1  0  -0.787892  0  2.057573  0  0  -0.729358  0  2.320767  0  0  -0.766286  0  2.307574  0  -1.223404  0  -0.390588  -0.711035  0  2.329263  0
O  O124  1  0.23779807  0.87081529  0.36641776  1  0  -0.670017  0  1.986905  0  0  -0.622759  0  2.232376  0  0  -0.653047  0  2.223682  0  -1.178798  0  -0.348133  -0.605147  0  2.237552  0
O  O125  1  0.76220057  0.12918461  0.63358257  1  0  -0.670034  0  1.986874  0  0  -0.622784  0  2.232354  0  0  -0.653067  0  2.223648  0  -1.178742  0  -0.348145  -0.605172  0  2.237531  0
O  O126  1  0.97725779  0.09064158  0.39007804  1  0  -0.687957  0  1.968681  0  0  -0.631957  0  2.205415  0  0  -0.659949  0  2.194881  0  -1.193801  0  -0.346269  -0.615932  0  2.21197  0
O  O127  1  0.02274320  0.90935744  0.60992202  1  0  -0.687833  0  1.968659  0  0  -0.631931  0  2.205479  0  0  -0.659924  0  2.194945  0  -1.193837  0  -0.346238  -0.615908  0  2.212038  0
O  O128  1  0.89109727  0.25322922  0.27091198  1  0  -0.670425  0  1.960992  0  0  -0.621497  0  2.198337  0  0  -0.651229  0  2.189771  0  -1.176629  0  -0.381332  -0.604621  0  2.203248  0
O  O129  1  0.10890342  0.74677068  0.72908715  1  0  -0.670405  0  1.960987  0  0  -0.621472  0  2.198303  0  0  -0.651205  0  2.189735  0  -1.176669  0  -0.381312  -0.604598  0  2.203213  0
O  O130  1  0.58926003  0.48328434  0.19209374  1  0  -0.558001  0  1.921792  0  0  -0.503893  0  2.122242  0  0  -0.526457  0  2.114476  0  -1.149413  0  -0.301728  -0.487859  0  2.126936  0
O  O131  1  0.41074066  0.51671555  0.80790539  1  0  -0.55807  0  1.921785  0  0  -0.503934  0  2.122238  0  0  -0.526499  0  2.11447  0  -1.14939  0  -0.301744  -0.4879  0  2.126938  0
O  O132  1  0.78423502  0.94455014  0.48693674  1  0  -0.89607  0  1.866375  0  0  -0.851141  0  2.070933  0  0  -0.876081  0  2.038172  0  -1.244714  0  -0.637848  -0.837711  0  2.091584  0
O  O133  1  0.21576567  0.05544976  0.51306314  1  0  -0.895999  0  1.866462  0  0  -0.851062  0  2.07101  0  0  -0.876005  0  2.03825  0  -1.244718  0  -0.637816  -0.837631  0  2.091661  0
O  O134  1  0.25604699  0.53451888  0.66906473  1  0  -0.929427  0  1.850448  0  0  -0.879414  0  2.050277  0  0  -0.906425  0  2.011839  0  -1.299501  0  -0.661694  -0.865545  0  2.074644  0
O  O135  1  0.74395369  0.46548102  0.33093515  1  0  -0.929394  0  1.850445  0  0  -0.87938  0  2.050264  0  0  -0.906395  0  2.011827  0  -1.299503  0  -0.661689  -0.865514  0  2.074631  0
O  O136  1  0.21170244  0.58235462  0.43292987  1  0  -0.905742  0  1.851067  0  0  -0.858446  0  2.052631  0  0  -0.883451  0  2.019823  0  -1.271291  0  -0.643869  -0.845486  0  2.072683  0
O  O137  1  0.78829855  0.41764439  0.56707020  1  0  -0.905747  0  1.851063  0  0  -0.858465  0  2.052643  0  0  -0.883465  0  2.019817  0  -1.271288  0  -0.643894  -0.845504  0  2.072696  0
