# generated using pymatgen
data_Li2H3C7NO4
_symmetry_space_group_name_H-M   'P 1'
_cell_length_a   8.39514595
_cell_length_b   8.39513447
_cell_length_c   11.20841452
_cell_angle_alpha   77.71530516
_cell_angle_beta   77.71539886
_cell_angle_gamma   81.68986520
_symmetry_Int_Tables_number   1
_chemical_formula_structural   Li2H3C7NO4
_chemical_formula_sum   'Li8 H12 C28 N4 O16'
_cell_volume   750.10226330
_cell_formula_units_Z   4
loop_
 _symmetry_equiv_pos_site_id
 _symmetry_equiv_pos_as_xyz
  1  'x, y, z'
loop_
 _atom_site_type_symbol
 _atom_site_label
 _atom_site_symmetry_multiplicity
 _atom_site_fract_x
 _atom_site_fract_y
 _atom_site_fract_z
 _atom_site_occupancy
 _atom_site_hle17_bader_spin_density
 _atom_site_hle17_ddec_charge
 _atom_site_hle17_ddec_spin_density
 _atom_site_hle17_ddec_sum_bond_order
 _atom_site_hle17_magmom
 _atom_site_hse06_10hf_bader_spin_density
 _atom_site_hse06_10hf_ddec_charge
 _atom_site_hse06_10hf_ddec_spin_density
 _atom_site_hse06_10hf_ddec_sum_bond_order
 _atom_site_hse06_10hf_magmom
 _atom_site_hse06_bader_spin_density
 _atom_site_hse06_ddec_charge
 _atom_site_hse06_ddec_spin_density
 _atom_site_hse06_ddec_sum_bond_order
 _atom_site_hse06_magmom
 _atom_site_pbe_bader_spin_density
 _atom_site_pbe_cm5_charge
 _atom_site_pbe_ddec_charge
 _atom_site_pbe_ddec_spin_density
 _atom_site_pbe_ddec_sum_bond_order
 _atom_site_pbe_magmom
Li  Li0  1  0.45133942  0.58950857  0.12436419  1  0  0.866038  0  0.386034  0  0  0.827112  0  0.490789  0  0  0.837476  0  0.472254  0  0  0.523541  0.819573  0  0.5042  0
Li  Li1  1  0.41049153  0.54866121  0.37563588  1  0  0.866043  0  0.386021  0  0  0.827113  0  0.490786  0  0  0.837476  0  0.472252  0  0  0.523544  0.819574  0  0.504197  0
Li  Li2  1  0.54866190  0.41049100  0.87563567  1  0  0.866053  0  0.386003  0  0  0.827115  0  0.490775  0  0  0.837479  0  0.472239  0  0  0.523533  0.819574  0  0.50419  0
Li  Li3  1  0.58950980  0.45133836  0.62436398  1  0  0.866047  0  0.386015  0  0  0.8271  0  0.490806  0  0  0.837467  0  0.472265  0  0  0.523525  0.819559  0  0.504221  0
Li  Li4  1  0.95533645  0.34670917  0.52681093  1  0  0.842899  0  0.430278  0  0  0.79112  0  0.554621  0  0  0.802135  0  0.536092  0  0  0.539921  0.78324  0  0.567795  0
Li  Li5  1  0.65329074  0.04466523  0.97318887  1  0  0.842891  0  0.430304  0  0  0.791127  0  0.554615  0  0  0.802139  0  0.536091  0  0  0.539924  0.783248  0  0.567789  0
Li  Li6  1  0.04466108  0.65329163  0.47319023  1  0  0.842884  0  0.430315  0  0  0.791133  0  0.55461  0  0  0.802146  0  0.536084  0  0  0.539917  0.783253  0  0.567784  0
Li  Li7  1  0.34671032  0.95533680  0.02681065  1  0  0.842888  0  0.4303  0  0  0.791127  0  0.55461  0  0  0.802141  0  0.536084  0  0  0.539921  0.783248  0  0.567784  0
H  H8  1  0.84596213  0.47317469  0.20984242  1  0  0.120826  0  0.926707  0  0  0.130051  0  0.989546  0  0  0.133926  0  0.98583  0  0  0.126576  0.127175  0  0.992297  0
H  H9  1  0.52682534  0.15403856  0.29015701  1  0  0.120813  0  0.926713  0  0  0.130041  0  0.989549  0  0  0.133916  0  0.985834  0  0  0.126573  0.127164  0  0.992303  0
H  H10  1  0.15403785  0.52682611  0.79015746  1  0  0.1208  0  0.926736  0  0  0.130054  0  0.989537  0  0  0.13393  0  0.985823  0  0  0.126585  0.127175  0  0.992295  0
H  H11  1  0.47317477  0.84596102  0.70984215  1  0  0.120825  0  0.926711  0  0  0.130051  0  0.989549  0  0  0.133926  0  0.985834  0  0  0.126571  0.127173  0  0.992303  0
H  H12  1  0.33144840  0.21186936  0.16419060  1  0  0.089137  0  0.94446  0  0  0.094817  0  1.013798  0  0  0.098694  0  1.009075  0  0  0.137006  0.09195  0  1.017245  0
H  H13  1  0.78813093  0.66855126  0.33580882  1  0  0.08913  0  0.944453  0  0  0.094808  0  1.01379  0  0  0.098685  0  1.009066  0  0  0.136998  0.091939  0  1.017239  0
H  H14  1  0.66855158  0.78813144  0.83580928  1  0  0.089128  0  0.944455  0  0  0.094808  0  1.013788  0  0  0.098685  0  1.009065  0  0  0.137006  0.09194  0  1.017235  0
H  H15  1  0.21187039  0.33144832  0.66419104  1  0  0.089131  0  0.944464  0  0  0.094809  0  1.013805  0  0  0.098685  0  1.009083  0  0  0.137001  0.091942  0  1.017254  0
H  H16  1  0.99853897  0.12773722  0.96485478  1  0  0.071712  0  0.953429  0  0  0.077553  0  1.023407  0  0  0.080837  0  1.019863  0  0  0.124558  0.075095  0  1.026071  0
H  H17  1  0.87226345  0.00146253  0.53514417  1  0  0.071715  0  0.953439  0  0  0.07756  0  1.023412  0  0  0.080843  0  1.01987  0  0  0.124563  0.0751  0  1.026079  0
H  H18  1  0.00146101  0.87226358  0.03514511  1  0  0.071769  0  0.953414  0  0  0.077604  0  1.023385  0  0  0.080888  0  1.019842  0  0  0.124583  0.07513  0  1.026067  0
H  H19  1  0.12773653  0.99853828  0.46485482  1  0  0.07171  0  0.953442  0  0  0.077554  0  1.023417  0  0  0.080838  0  1.019874  0  0  0.124558  0.075095  0  1.026083  0
C  C20  1  0.14737439  0.44771074  0.28234070  1  0  0.729538  0  3.892237  0  0  0.681074  0  4.185969  0  0  0.714859  0  4.175957  0  0  0.249114  0.658205  0  4.192225  0
C  C21  1  0.55228815  0.85262574  0.21765867  1  0  0.729635  0  3.892272  0  0  0.681122  0  4.186072  0  0  0.714908  0  4.176059  0  0  0.249146  0.658249  0  4.192327  0
C  C22  1  0.85262707  0.55228761  0.71765845  1  0  0.72957  0  3.892394  0  0  0.681084  0  4.186145  0  0  0.71487  0  4.17613  0  0  0.249119  0.658212  0  4.192398  0
C  C23  1  0.44771099  0.14737138  0.78234192  1  0  0.729504  0  3.892459  0  0  0.681079  0  4.186105  0  0  0.714864  0  4.176094  0  0  0.249176  0.658208  0  4.19236  0
C  C24  1  0.74041187  0.34279880  0.04143739  1  0  0.705803  0  3.937738  0  0  0.656979  0  4.235194  0  0  0.689607  0  4.227573  0  0  0.231062  0.635014  0  4.239668  0
C  C25  1  0.65720219  0.25958819  0.45856201  1  0  0.705858  0  3.937627  0  0  0.657014  0  4.235132  0  0  0.689643  0  4.227511  0  0  0.231099  0.635049  0  4.239608  0
C  C26  1  0.25958946  0.65720078  0.95856248  1  0  0.705889  0  3.937572  0  0  0.657065  0  4.235027  0  0  0.689693  0  4.227407  0  0  0.231106  0.635099  0  4.239503  0
C  C27  1  0.34279914  0.74041139  0.54143785  1  0  0.705868  0  3.937626  0  0  0.657045  0  4.2351  0  0  0.689676  0  4.227477  0  0  0.2311  0.63508  0  4.239573  0
C  C28  1  0.93924010  0.38536626  0.16909654  1  0  -0.005377  0  3.645687  0  0  -0.04653  0  3.892749  0  0  -0.039869  0  3.910243  0  0  -0.043085  -0.050383  0  3.880781  0
C  C29  1  0.61463366  0.06075997  0.33090399  1  0  -0.005317  0  3.645711  0  0  -0.046467  0  3.892774  0  0  -0.039806  0  3.91027  0  0  -0.043054  -0.05032  0  3.880803  0
C  C30  1  0.06076001  0.61463331  0.83090441  1  0  -0.005294  0  3.64571  0  0  -0.046475  0  3.89276  0  0  -0.039817  0  3.910258  0  0  -0.043083  -0.050328  0  3.880788  0
C  C31  1  0.38536523  0.93923960  0.66909715  1  0  -0.005364  0  3.645733  0  0  -0.046515  0  3.8928  0  0  -0.039855  0  3.910298  0  0  -0.043063  -0.050369  0  3.880829  0
C  C32  1  0.09609578  0.35604393  0.19755893  1  0  -0.122097  0  3.720323  0  0  -0.094763  0  3.956914  0  0  -0.108091  0  3.980646  0  0  0.000906  -0.086481  0  3.941177  0
C  C33  1  0.64395598  0.90390364  0.30244131  1  0  -0.122124  0  3.720356  0  0  -0.094763  0  3.95694  0  0  -0.108093  0  3.980673  0  0  0.000921  -0.08648  0  3.941202  0
C  C34  1  0.90390311  0.64395564  0.80244132  1  0  -0.12218  0  3.720361  0  0  -0.094819  0  3.956935  0  0  -0.108148  0  3.980666  0  0  0.00091  -0.086537  0  3.941196  0
C  C35  1  0.35604181  0.09609470  0.69756109  1  0  -0.1221  0  3.720322  0  0  -0.09476  0  3.956875  0  0  -0.108088  0  3.980607  0  0  0.000902  -0.086479  0  3.941138  0
C  C36  1  0.20824657  0.23915658  0.14324955  1  0  0.148185  0  3.667682  0  0  0.108639  0  3.924919  0  0  0.118556  0  3.938019  0  0  0.079728  0.102414  0  3.916039  0
C  C37  1  0.76084326  0.79175355  0.35674981  1  0  0.148191  0  3.667727  0  0  0.108648  0  3.924957  0  0  0.118565  0  3.938057  0  0  0.079711  0.102422  0  3.916079  0
C  C38  1  0.79175231  0.76084300  0.85675070  1  0  0.148234  0  3.667681  0  0  0.108683  0  3.924914  0  0  0.118601  0  3.938012  0  0  0.079716  0.102458  0  3.916035  0
C  C39  1  0.23915563  0.20824603  0.64325044  1  0  0.148178  0  3.667688  0  0  0.108628  0  3.924918  0  0  0.118546  0  3.938017  0  0  0.079706  0.102402  0  3.916039  0
C  C40  1  0.02368281  0.19009482  0.03383308  1  0  0.134062  0  3.69874  0  0  0.097059  0  3.953904  0  0  0.105382  0  3.969514  0  0  0.066022  0.091908  0  3.943257  0
C  C41  1  0.80990647  0.97631770  0.46616592  1  0  0.134076  0  3.698764  0  0  0.097073  0  3.953949  0  0  0.105397  0  3.96956  0  0  0.066024  0.091921  0  3.943303  0
C  C42  1  0.97631582  0.80990721  0.96616682  1  0  0.134004  0  3.698762  0  0  0.097012  0  3.953915  0  0  0.105335  0  3.969525  0  0  0.066009  0.091872  0  3.943273  0
C  C43  1  0.19009473  0.02368310  0.53383377  1  0  0.13405  0  3.698749  0  0  0.09705  0  3.953933  0  0  0.105373  0  3.969544  0  0  0.066018  0.091899  0  3.943285  0
C  C44  1  0.90290399  0.30363441  0.08331748  1  0  -0.123657  0  3.733091  0  0  -0.095909  0  3.968176  0  0  -0.109697  0  3.994246  0  0  -0.007713  -0.087284  0  3.950753  0
C  C45  1  0.69636491  0.09709700  0.41668213  1  0  -0.123646  0  3.733089  0  0  -0.09592  0  3.968227  0  0  -0.109709  0  3.994297  0  0  -0.007718  -0.087294  0  3.950805  0
C  C46  1  0.09709612  0.69636516  0.91668257  1  0  -0.123672  0  3.733116  0  0  -0.095925  0  3.968206  0  0  -0.109714  0  3.99428  0  0  -0.007721  -0.087298  0  3.950778  0
C  C47  1  0.30363520  0.90290257  0.58331792  1  0  -0.123634  0  3.733108  0  0  -0.095917  0  3.968243  0  0  -0.109708  0  3.994316  0  0  -0.00772  -0.087291  0  3.950818  0
N  N48  1  0.17255112  0.15358674  0.06536866  1  0  -0.393934  0  3.139306  0  0  -0.34539  0  3.413901  0  0  -0.357332  0  3.424674  0  0  -0.371002  -0.337641  0  3.406583  0
N  N49  1  0.84641390  0.82744921  0.43463056  1  0  -0.393967  0  3.139358  0  0  -0.345423  0  3.413956  0  0  -0.357363  0  3.424726  0  0  -0.371012  -0.337673  0  3.406638  0
N  N50  1  0.82744764  0.84641406  0.93463141  1  0  -0.393944  0  3.139332  0  0  -0.345403  0  3.413927  0  0  -0.357343  0  3.424698  0  0  -0.371005  -0.337654  0  3.406603  0
N  N51  1  0.15358730  0.17255159  0.56536913  1  0  -0.393919  0  3.139321  0  0  -0.345366  0  3.413914  0  0  -0.357307  0  3.424685  0  0  -0.370988  -0.337618  0  3.406596  0
O  O52  1  0.03785612  0.49190018  0.37039641  1  0  -0.794144  0  1.996858  0  0  -0.744667  0  2.246422  0  0  -0.76689  0  2.23108  0  0  -0.428516  -0.729067  0  2.256498  0
O  O53  1  0.50810176  0.96214512  0.12960223  1  0  -0.794169  0  1.996866  0  0  -0.744688  0  2.246458  0  0  -0.76691  0  2.231113  0  0  -0.428533  -0.729106  0  2.25658  0
O  O54  1  0.96214373  0.50810185  0.62960241  1  0  -0.794101  0  1.996974  0  0  -0.744629  0  2.246554  0  0  -0.766852  0  2.231209  0  0  -0.428496  -0.729037  0  2.256647  0
O  O55  1  0.49189956  0.03785445  0.87039852  1  0  -0.794089  0  1.997038  0  0  -0.744632  0  2.246574  0  0  -0.766853  0  2.231233  0  0  -0.428534  -0.72903  0  2.256649  0
O  O56  1  0.64818477  0.46340533  0.07494471  1  0  -0.710186  0  1.956022  0  0  -0.670837  0  2.198603  0  0  -0.691473  0  2.186002  0  0  -0.37567  -0.656511  0  2.206858  0
O  O57  1  0.53659529  0.35181602  0.42505542  1  0  -0.71021  0  1.956015  0  0  -0.670852  0  2.198624  0  0  -0.69148  0  2.186005  0  0  -0.375679  -0.656527  0  2.206881  0
O  O58  1  0.35181521  0.53659547  0.92505517  1  0  -0.710194  0  1.956025  0  0  -0.670849  0  2.198624  0  0  -0.69148  0  2.18601  0  0  -0.375668  -0.656524  0  2.20688  0
O  O59  1  0.46340482  0.64818355  0.57494464  1  0  -0.710197  0  1.956029  0  0  -0.67084  0  2.198633  0  0  -0.691471  0  2.186012  0  0  -0.375661  -0.656515  0  2.206889  0
O  O60  1  0.29597398  0.47478150  0.26151739  1  0  -0.748104  0  1.985775  0  0  -0.704553  0  2.230505  0  0  -0.725518  0  2.215718  0  0  -0.402527  -0.69  0  2.240426  0
O  O61  1  0.52522100  0.70402579  0.23847974  1  0  -0.748166  0  1.985852  0  0  -0.70458  0  2.230575  0  0  -0.725546  0  2.215786  0  0  -0.402547  -0.690024  0  2.240497  0
O  O62  1  0.70402588  0.52522053  0.73847963  1  0  -0.74817  0  1.98583  0  0  -0.70459  0  2.230536  0  0  -0.725555  0  2.215745  0  0  -0.40255  -0.690034  0  2.240456  0
O  O63  1  0.47477937  0.29597134  0.76151887  1  0  -0.748143  0  1.985826  0  0  -0.704596  0  2.23052  0  0  -0.725563  0  2.215733  0  0  -0.402564  -0.69004  0  2.24044  0
O  O64  1  0.70808194  0.25516310  0.97059484  1  0  -0.810702  0  1.953244  0  0  -0.761767  0  2.195612  0  0  -0.782619  0  2.179203  0  0  -0.44992  -0.747208  0  2.206513  0
O  O65  1  0.74483754  0.29191733  0.52940515  1  0  -0.810747  0  1.953143  0  0  -0.761795  0  2.195528  0  0  -0.78265  0  2.17912  0  0  -0.449944  -0.747235  0  2.206429  0
O  O66  1  0.29191790  0.74483893  0.02940487  1  0  -0.810775  0  1.953085  0  0  -0.761853  0  2.195479  0  0  -0.782699  0  2.179053  0  0  -0.449962  -0.747293  0  2.206379  0
O  O67  1  0.25516270  0.70808102  0.47059508  1  0  -0.810761  0  1.953116  0  0  -0.761839  0  2.195505  0  0  -0.782688  0  2.179081  0  0  -0.44996  -0.747282  0  2.206407  0
