# generated using pymatgen
data_ZnH27C24SN3O8
_symmetry_space_group_name_H-M   'P 1'
_cell_length_a   5.13266246
_cell_length_b   10.02902047
_cell_length_c   12.46141070
_cell_angle_alpha   77.07310059
_cell_angle_beta   82.37419465
_cell_angle_gamma   82.11391146
_symmetry_Int_Tables_number   1
_chemical_formula_structural   ZnH27C24SN3O8
_chemical_formula_sum   'Zn1 H27 C24 S1 N3 O8'
_cell_volume   615.82206314
_cell_formula_units_Z   1
loop_
 _symmetry_equiv_pos_site_id
 _symmetry_equiv_pos_as_xyz
  1  'x, y, z'
loop_
 _atom_site_type_symbol
 _atom_site_label
 _atom_site_symmetry_multiplicity
 _atom_site_fract_x
 _atom_site_fract_y
 _atom_site_fract_z
 _atom_site_occupancy
 _atom_site_hle17_bader_spin_density
 _atom_site_hle17_ddec_charge
 _atom_site_hle17_ddec_spin_density
 _atom_site_hle17_ddec_sum_bond_order
 _atom_site_hle17_magmom
 _atom_site_hse06_10hf_bader_spin_density
 _atom_site_hse06_10hf_ddec_charge
 _atom_site_hse06_10hf_ddec_spin_density
 _atom_site_hse06_10hf_ddec_sum_bond_order
 _atom_site_hse06_10hf_magmom
 _atom_site_hse06_bader_spin_density
 _atom_site_hse06_ddec_charge
 _atom_site_hse06_ddec_spin_density
 _atom_site_hse06_ddec_sum_bond_order
 _atom_site_hse06_magmom
 _atom_site_pbe_bader_spin_density
 _atom_site_pbe_cm5_charge
 _atom_site_pbe_ddec_charge
 _atom_site_pbe_ddec_spin_density
 _atom_site_pbe_ddec_sum_bond_order
 _atom_site_pbe_magmom
Zn  Zn0  1  0.24599627  0.47552999  0.16822418  1  0  1.134753  0  1.722911  0  0  0.954631  0  2.193657  0  0  1.002549  0  2.132511  0  0  0.703017  0.92097  0  2.236051  0
H  H1  1  0.05405143  0.77909963  0.00828587  1  0  0.086343  0  0.958854  0  0  0.091535  0  1.029016  0  0  0.094597  0  1.026186  0  0  0.117296  0.089151  0  1.031329  0
H  H2  1  0.13275762  0.93755872  0.82799959  1  0  0.116088  0  0.948809  0  0  0.127021  0  1.007227  0  0  0.130134  0  1.006578  0  0  0.112306  0.124782  0  1.007807  0
H  H3  1  0.57469908  0.73799568  0.70328070  1  0  0.100243  0  0.964746  0  0  0.109031  0  1.029381  0  0  0.111166  0  1.030994  0  0  0.102383  0.107468  0  1.028513  0
H  H4  1  0.51853703  0.58602116  0.89113401  1  0  0.081712  0  0.945863  0  0  0.087384  0  1.014666  0  0  0.089919  0  1.012953  0  0  0.111199  0.085539  0  1.01588  0
H  H5  1  0.76865513  0.92854868  0.57936130  1  0  0.088712  0  0.933932  0  0  0.104503  0  0.988431  0  0  0.106741  0  0.987616  0  0  0.107082  0.102874  0  0.989133  0
H  H6  1  0.22258547  0.03540780  0.66443055  1  0  0.11686  0  0.953665  0  0  0.127369  0  1.014317  0  0  0.130741  0  1.012504  0  0  0.111001  0.124929  0  1.015687  0
H  H7  1  0.40936762  0.22201946  0.55477651  1  0  0.12387  0  0.978343  0  0  0.129355  0  1.043702  0  0  0.132894  0  1.04317  0  0  0.109892  0.126807  0  1.044262  0
H  H8  1  0.46308293  0.39464402  0.37711635  1  0  0.080521  0  0.948407  0  0  0.090507  0  1.011069  0  0  0.092074  0  1.010655  0  0  0.118485  0.089199  0  1.011584  0
H  H9  1  0.93338592  0.22243618  0.23782901  1  0  0.090142  0  0.944781  0  0  0.100393  0  1.003692  0  0  0.102777  0  1.001947  0  0  0.122319  0.098517  0  1.005207  0
H  H10  1  0.85728066  0.04506556  0.40781965  1  0  0.116265  0  0.93458  0  0  0.129766  0  0.986195  0  0  0.13308  0  0.985448  0  0  0.116387  0.127358  0  0.986947  0
H  H11  1  0.17322238  0.22628137  0.86715309  1  0  0.091668  0  0.977608  0  0  0.09925  0  1.041416  0  0  0.102114  0  1.039799  0  0  0.120535  0.097169  0  1.04266  0
H  H12  1  0.13953958  0.03875596  0.02679747  1  0  0.085451  0  0.938176  0  0  0.100024  0  1.002992  0  0  0.101576  0  1.002437  0  0  0.095842  0.098809  0  1.003571  0
H  H13  1  0.42362719  0.01268767  0.93422816  1  0  0.081823  0  0.936551  0  0  0.096525  0  1.001885  0  0  0.09816  0  1.00184  0  0  0.092964  0.095457  0  1.001793  0
H  H14  1  0.41227470  0.09163454  0.15967419  1  0  0.088685  0  0.932595  0  0  0.10596  0  0.990768  0  0  0.107342  0  0.991167  0  0  0.091497  0.105056  0  0.990513  0
H  H15  1  0.69804617  0.08626357  0.06601897  1  0  0.099597  0  0.961085  0  0  0.111764  0  1.02739  0  0  0.114695  0  1.025572  0  0  0.091978  0.1096  0  1.028891  0
H  H16  1  0.18447605  0.46464905  0.76041938  1  0  0.103558  0  0.944916  0  0  0.113887  0  1.005475  0  0  0.11663  0  1.003925  0  0  0.106423  0.111979  0  1.006528  0
H  H17  1  0.03968333  0.66605465  0.61951449  1  0  0.086586  0  0.989878  0  0  0.096382  0  1.054691  0  0  0.098407  0  1.055784  0  0  0.094577  0.095031  0  1.053949  0
H  H18  1  0.76184697  0.60219187  0.40961329  1  0  0.10766  0  0.94986  0  0  0.11981  0  1.006456  0  0  0.122987  0  1.005211  0  0  0.105169  0.117568  0  1.007418  0
H  H19  1  0.90883161  0.39784079  0.55111389  1  0  0.093979  0  0.978497  0  0  0.102046  0  1.044299  0  0  0.10424  0  1.044775  0  0  0.099514  0.100529  0  1.043864  0
H  H20  1  0.10981967  0.76066658  0.39197040  1  0  0.122357  0  0.94253  0  0  0.143944  0  1.002122  0  0  0.145707  0  1.001106  0  0  0.093761  0.14268  0  1.002761  0
H  H21  1  0.44453549  0.79095669  0.34763059  1  0  0.12631  0  0.982813  0  0  0.143878  0  1.044122  0  0  0.146355  0  1.042828  0  0  0.090839  0.142053  0  1.04506  0
H  H22  1  0.26400756  0.86446746  0.45639091  1  0  0.091409  0  0.99919  0  0  0.109305  0  1.069674  0  0  0.10944  0  1.071932  0  0  0.078806  0.109226  0  1.068087  0
H  H23  1  0.68103630  0.28999710  0.92893964  1  0  0.32119  0  0.91148  0  0  0.29915  0  0.981651  0  0  0.307539  0  0.974541  0  0  0.305255  0.293201  0  0.986807  0
H  H24  1  0.73304963  0.41323483  0.10782798  1  0  0.401475  0  0.914807  0  0  0.366336  0  0.988676  0  0  0.378255  0  0.971399  0  0  0.280241  0.357889  0  1.0009  0
H  H25  1  0.69110323  0.57459587  0.07939829  1  0  0.379419  0  0.93818  0  0  0.334436  0  1.035444  0  0  0.347065  0  1.017628  0  0  0.277091  0.325482  0  1.048103  0
H  H26  1  0.93553770  0.70586356  0.21042112  1  0  0.440514  0  0.858353  0  0  0.405267  0  0.928848  0  0  0.418145  0  0.9103  0  0  0.288079  0.396119  0  0.941976  0
H  H27  1  0.25017101  0.71202980  0.18371002  1  0  0.431861  0  0.88385  0  0  0.39756  0  0.952483  0  0  0.409773  0  0.935268  0  0  0.28684  0.388967  0  0.964563  0
C  C28  1  0.95206421  0.77167160  0.93869259  1  0  0.123301  0  3.704475  0  0  0.09362  0  3.960081  0  0  0.098998  0  3.978676  0  0  0.046841  0.090103  0  3.947549  0
C  C29  1  0.99628803  0.86069713  0.83699290  1  0  -0.151389  0  3.668399  0  0  -0.169338  0  3.912765  0  0  -0.176915  0  3.934801  0  0  -0.077365  -0.164266  0  3.897826  0
C  C30  1  0.86318790  0.85069482  0.74783074  1  0  0.124557  0  3.809035  0  0  0.138415  0  4.042934  0  0  0.143008  0  4.065053  0  0  0.006275  0.135507  0  4.028028  0
C  C31  1  0.68552982  0.75055178  0.76862681  1  0  -0.168362  0  3.706912  0  0  -0.183196  0  3.9506  0  0  -0.191259  0  3.973033  0  0  -0.083521  -0.178237  0  3.935949  0
C  C32  1  0.65396404  0.66519695  0.87313497  1  0  0.120904  0  3.715759  0  0  0.093092  0  3.966487  0  0  0.09881  0  3.985351  0  0  0.043787  0.089493  0  3.953613  0
C  C33  1  0.90438761  0.93715086  0.63758153  1  0  -0.062432  0  3.692666  0  0  -0.086892  0  3.950975  0  0  -0.087146  0  3.968391  0  0  -0.068091  -0.086843  0  3.939261  0
C  C34  1  0.09096348  0.02509055  0.60549374  1  0  -0.110538  0  3.693994  0  0  -0.13387  0  3.951873  0  0  -0.137734  0  3.969711  0  0  -0.080397  -0.131321  0  3.939839  0
C  C35  1  0.12543205  0.11911958  0.49871438  1  0  0.148275  0  3.779079  0  0  0.15976  0  4.013811  0  0  0.167326  0  4.033638  0  0  0.015531  0.154794  0  4.000501  0
C  C36  1  0.30155443  0.21903246  0.48591767  1  0  -0.161525  0  3.676545  0  0  -0.177688  0  3.922416  0  0  -0.186095  0  3.942193  0  0  -0.079715  -0.172808  0  3.909802  0
C  C37  1  0.33117596  0.31517018  0.38762545  1  0  0.13244  0  3.718609  0  0  0.103125  0  3.962375  0  0  0.110546  0  3.981979  0  0  0.048293  0.098264  0  3.949389  0
C  C38  1  0.03341262  0.21951247  0.31039039  1  0  0.128813  0  3.712676  0  0  0.097492  0  3.963823  0  0  0.104847  0  3.982565  0  0  0.047948  0.09277  0  3.950992  0
C  C39  1  0.99230132  0.12048164  0.40638533  1  0  -0.158662  0  3.687133  0  0  -0.174065  0  3.930482  0  0  -0.182442  0  3.951455  0  0  -0.073864  -0.168436  0  3.91631  0
C  C40  1  0.14364395  0.31723274  0.00705052  1  0  0.670599  0  3.814267  0  0  0.613034  0  4.122461  0  0  0.646843  0  4.114951  0  0  0.223473  0.589975  0  4.126771  0
C  C41  1  0.29667223  0.22414056  0.93309164  1  0  0.028109  0  3.635315  0  0  0.00962  0  3.875719  0  0  0.008103  0  3.887841  0  0  0.002355  0.010622  0  3.867566  0
C  C42  1  0.33498879  0.07313902  0.99602284  1  0  -0.120066  0  3.669108  0  0  -0.168736  0  3.930806  0  0  -0.169045  0  3.942834  0  0  -0.166355  -0.168362  0  3.922319  0
C  C43  1  0.50820379  0.04339275  0.09095001  1  0  -0.261134  0  3.670881  0  0  -0.298258  0  3.922049  0  0  -0.303897  0  3.930637  0  0  -0.175635  -0.294202  0  3.915875  0
C  C44  1  0.56202884  0.88919143  0.13899165  1  0  0.704866  0  3.86238  0  0  0.660045  0  4.162386  0  0  0.692557  0  4.155542  0  0  0.207601  0.638028  0  4.166006  0
C  C45  1  0.55534525  0.41809899  0.66365990  1  0  -0.14145  0  3.772263  0  0  -0.117618  0  4.027448  0  0  -0.125327  0  4.049187  0  0  -0.028679  -0.112679  0  4.012934  0
C  C46  1  0.31164159  0.49425706  0.68396643  1  0  -0.049467  0  3.759876  0  0  -0.076883  0  4.015413  0  0  -0.074392  0  4.033796  0  0  -0.085638  -0.07839  0  4.003142  0
C  C47  1  0.23106162  0.60806996  0.60418819  1  0  -0.137559  0  3.738565  0  0  -0.153232  0  3.982581  0  0  -0.158321  0  4.004494  0  0  -0.094798  -0.150002  0  3.96769  0
C  C48  1  0.38893668  0.64897723  0.50419985  1  0  0.16032  0  3.747599  0  0  0.185853  0  3.979215  0  0  0.189124  0  4.002228  0  0  -0.002765  0.183882  0  3.963212  0
C  C49  1  0.63421686  0.57184219  0.48626548  1  0  -0.138783  0  3.713567  0  0  -0.153291  0  3.953719  0  0  -0.158483  0  3.974179  0  0  -0.091966  -0.149783  0  3.939553  0
C  C50  1  0.71758521  0.45678826  0.56510454  1  0  -0.067809  0  3.781238  0  0  -0.092484  0  4.032417  0  0  -0.090828  0  4.052792  0  0  -0.090007  -0.092935  0  4.018112  0
C  C51  1  0.29785224  0.77264724  0.42008534  1  0  -0.352738  0  3.721522  0  0  -0.430641  0  3.951491  0  0  -0.433375  0  3.960075  0  0  -0.25088  -0.42848  0  3.94537  0
S  S52  1  0.65479770  0.26158810  0.75502063  1  0  1.225559  0  5.429  0  0  1.121879  0  5.943619  0  0  1.167147  0  5.926447  0  0  0.564037  1.090923  0  5.954245  0
N  N53  1  0.78478248  0.67453460  0.95717069  1  0  -0.30237  0  3.182764  0  0  -0.237691  0  3.429063  0  0  -0.252664  0  3.44659  0  0  -0.305135  -0.227543  0  3.417131  0
N  N54  1  0.19816008  0.31703969  0.30069386  1  0  -0.369133  0  3.314067  0  0  -0.281882  0  3.593659  0  0  -0.30295  0  3.608286  0  0  -0.337687  -0.267602  0  3.583574  0
N  N55  1  0.54409831  0.27704143  0.87972055  1  0  -0.569359  0  3.22356  0  0  -0.513259  0  3.498032  0  0  -0.530817  0  3.497859  0  0  -0.461374  -0.501179  0  3.497825  0
O  O56  1  0.90545924  0.29796668  0.04080492  1  0  -0.622179  0  2.00451  0  0  -0.558046  0  2.225187  0  0  -0.583558  0  2.215797  0  0  -0.30199  -0.540405  0  2.231457  0
O  O57  1  0.26891489  0.40642362  0.03164047  1  0  -0.657783  0  2.103111  0  0  -0.582673  0  2.393426  0  0  -0.611089  0  2.375936  0  0  -0.327047  -0.56288  0  2.404805  0
O  O58  1  0.74719887  0.84920243  0.20114470  1  0  -0.668416  0  1.934303  0  0  -0.617184  0  2.156035  0  0  -0.641263  0  2.144187  0  0  -0.345587  -0.600091  0  2.163473  0
O  O59  1  0.41487241  0.81170257  0.11299242  1  0  -0.663294  0  2.022099  0  0  -0.601449  0  2.25007  0  0  -0.627339  0  2.240697  0  0  -0.336592  -0.583031  0  2.255923  0
O  O60  1  0.52454859  0.15611956  0.72724326  1  0  -0.601088  0  1.985988  0  0  -0.544953  0  2.233783  0  0  -0.566445  0  2.224663  0  0  -0.305846  -0.529888  0  2.239563  0
O  O61  1  0.94117165  0.24860941  0.74564532  1  0  -0.602168  0  2.013168  0  0  -0.549926  0  2.269125  0  0  -0.57106  0  2.259598  0  0  -0.307509  -0.535088  0  2.275004  0
O  O62  1  0.64538840  0.49227069  0.14230978  1  0  -0.840521  0  1.940244  0  0  -0.772219  0  2.188712  0  0  -0.795154  0  2.147658  0  0  -0.579648  -0.756015  0  2.217356  0
O  O63  1  0.11090904  0.64400434  0.21795236  1  0  -0.878571  0  1.916338  0  0  -0.797475  0  2.156383  0  0  -0.824809  0  2.115965  0  0  -0.578829  -0.778301  0  2.184414  0
