# generated using pymatgen
data_CsH7C7O4
_symmetry_space_group_name_H-M   'P 1'
_cell_length_a   6.73260168
_cell_length_b   5.99938502
_cell_length_c   23.06246351
_cell_angle_alpha   90.00139245
_cell_angle_beta   89.99738969
_cell_angle_gamma   98.52191205
_symmetry_Int_Tables_number   1
_chemical_formula_structural   CsH7C7O4
_chemical_formula_sum   'Cs4 H28 C28 O16'
_cell_volume   921.24205214
_cell_formula_units_Z   4
loop_
 _symmetry_equiv_pos_site_id
 _symmetry_equiv_pos_as_xyz
  1  'x, y, z'
loop_
 _atom_site_type_symbol
 _atom_site_label
 _atom_site_symmetry_multiplicity
 _atom_site_fract_x
 _atom_site_fract_y
 _atom_site_fract_z
 _atom_site_occupancy
 _atom_site_hle17_bader_spin_density
 _atom_site_hle17_ddec_charge
 _atom_site_hle17_ddec_spin_density
 _atom_site_hle17_ddec_sum_bond_order
 _atom_site_hle17_magmom
 _atom_site_hse06_10hf_bader_spin_density
 _atom_site_hse06_10hf_ddec_charge
 _atom_site_hse06_10hf_ddec_spin_density
 _atom_site_hse06_10hf_ddec_sum_bond_order
 _atom_site_hse06_10hf_magmom
 _atom_site_hse06_bader_spin_density
 _atom_site_hse06_ddec_charge
 _atom_site_hse06_ddec_spin_density
 _atom_site_hse06_ddec_sum_bond_order
 _atom_site_hse06_magmom
 _atom_site_pbe_bader_spin_density
 _atom_site_pbe_cm5_charge
 _atom_site_pbe_ddec_charge
 _atom_site_pbe_ddec_spin_density
 _atom_site_pbe_ddec_sum_bond_order
 _atom_site_pbe_magmom
Cs  Cs0  1  0.69276178  0.25217937  0.44782643  1  0  0.969878  0  0.550059  0  0  0.918395  0  0.774826  0  0  0.933356  0  0.751342  0  0  0.840962  0.907334  0  0.791467  0
Cs  Cs1  1  0.80725771  0.24780119  0.94782661  1  0  0.969836  0  0.55013  0  0  0.91842  0  0.774806  0  0  0.93333  0  0.751414  0  0  0.840991  0.907363  0  0.791446  0
Cs  Cs2  1  0.30724662  0.74776954  0.55218528  1  0  0.969857  0  0.550142  0  0  0.91844  0  0.774801  0  0  0.933313  0  0.751479  0  0  0.840986  0.90738  0  0.791442  0
Cs  Cs3  1  0.19275939  0.75225420  0.05217339  1  0  0.969832  0  0.550205  0  0  0.918398  0  0.774904  0  0  0.933307  0  0.751524  0  0  0.841015  0.90734  0  0.791547  0
H  H4  1  0.44967444  0.69128566  0.39424727  1  0  0.377151  0  0.924349  0  0  0.350673  0  0.997588  0  0  0.363413  0  0.984111  0  0  0.299396  0.341749  0  1.006855  0
H  H5  1  0.05031533  0.80865169  0.89424083  1  0  0.377374  0  0.924277  0  0  0.350854  0  0.997571  0  0  0.363601  0  0.984075  0  0  0.299452  0.341922  0  1.006863  0
H  H6  1  0.55033193  0.30865994  0.60576227  1  0  0.377347  0  0.924279  0  0  0.350839  0  0.997555  0  0  0.363585  0  0.984054  0  0  0.299421  0.341909  0  1.006844  0
H  H7  1  0.94967305  0.19138289  0.10575960  1  0  0.377241  0  0.9244  0  0  0.350733  0  0.997673  0  0  0.363475  0  0.984193  0  0  0.299438  0.3418  0  1.006968  0
H  H8  1  0.33203026  0.21941814  0.29845825  1  0  0.108386  0  0.955944  0  0  0.11811  0  1.01876  0  0  0.121451  0  1.017908  0  0  0.105164  0.115738  0  1.019524  0
H  H9  1  0.16792380  0.28054218  0.79846172  1  0  0.108374  0  0.955942  0  0  0.118085  0  1.018769  0  0  0.121472  0  1.017864  0  0  0.105125  0.115675  0  1.019576  0
H  H10  1  0.66794203  0.78057302  0.70153611  1  0  0.108379  0  0.956061  0  0  0.118135  0  1.018837  0  0  0.121486  0  1.017971  0  0  0.105129  0.115725  0  1.019643  0
H  H11  1  0.83205910  0.71945022  0.20152484  1  0  0.108309  0  0.956036  0  0  0.118081  0  1.018801  0  0  0.121423  0  1.017945  0  0  0.105126  0.115703  0  1.019569  0
H  H12  1  0.99735724  0.15466559  0.25009803  1  0  0.085617  0  0.968408  0  0  0.096154  0  1.030664  0  0  0.098311  0  1.029764  0  0  0.099141  0.094572  0  1.031324  0
H  H13  1  0.50263156  0.34534852  0.75010810  1  0  0.085564  0  0.96852  0  0  0.096109  0  1.030774  0  0  0.098264  0  1.029879  0  0  0.09914  0.094534  0  1.031413  0
H  H14  1  0.00262238  0.84536089  0.74989504  1  0  0.085533  0  0.968486  0  0  0.096091  0  1.030717  0  0  0.098248  0  1.029815  0  0  0.099159  0.094512  0  1.031366  0
H  H15  1  0.49733480  0.65461576  0.24987066  1  0  0.085611  0  0.968202  0  0  0.096251  0  1.030351  0  0  0.098412  0  1.029442  0  0  0.099158  0.094661  0  1.031028  0
H  H16  1  0.74664198  0.41120340  0.26927691  1  0  0.093905  0  0.9601  0  0  0.105308  0  1.020478  0  0  0.107883  0  1.020484  0  0  0.100264  0.103484  0  1.020572  0
H  H17  1  0.75339304  0.08886990  0.76927855  1  0  0.093791  0  0.959906  0  0  0.105254  0  1.020221  0  0  0.107841  0  1.02022  0  0  0.100192  0.103428  0  1.020316  0
H  H18  1  0.25336431  0.58884058  0.73072830  1  0  0.09377  0  0.960021  0  0  0.105215  0  1.020368  0  0  0.107789  0  1.020369  0  0  0.10021  0.103389  0  1.020464  0
H  H19  1  0.24657913  0.91110261  0.23070324  1  0  0.093841  0  0.959911  0  0  0.105318  0  1.020206  0  0  0.107909  0  1.020209  0  0  0.100201  0.103493  0  1.020301  0
H  H20  1  0.83265617  0.73559901  0.33749243  1  0  0.099556  0  0.94839  0  0  0.108167  0  1.012815  0  0  0.112116  0  1.009327  0  0  0.107855  0.105333  0  1.015241  0
H  H21  1  0.66737691  0.76447015  0.83748918  1  0  0.099399  0  0.948678  0  0  0.108032  0  1.013074  0  0  0.111989  0  1.009564  0  0  0.107818  0.105204  0  1.015493  0
H  H22  1  0.16736070  0.26441907  0.66252102  1  0  0.099461  0  0.948591  0  0  0.108086  0  1.013009  0  0  0.112042  0  1.009509  0  0  0.107844  0.105254  0  1.015433  0
H  H23  1  0.33261348  0.23554059  0.16250562  1  0  0.099401  0  0.948552  0  0  0.108016  0  1.012987  0  0  0.111979  0  1.009448  0  0  0.107815  0.105184  0  1.01541  0
H  H24  1  0.83702725  0.82900776  0.53306064  1  0  0.40254  0  0.911637  0  0  0.370277  0  0.980167  0  0  0.381843  0  0.963061  0  0  0.27964  0.362079  0  0.992269  0
H  H25  1  0.66297649  0.67096994  0.03305149  1  0  0.402548  0  0.911635  0  0  0.370326  0  0.98013  0  0  0.381877  0  0.963038  0  0  0.279625  0.362129  0  0.992228  0
H  H26  1  0.16300597  0.17093838  0.46695758  1  0  0.402678  0  0.911444  0  0  0.370418  0  0.97999  0  0  0.381975  0  0.962899  0  0  0.279639  0.362222  0  0.992089  0
H  H27  1  0.33702206  0.32908116  0.96694721  1  0  0.402385  0  0.911848  0  0  0.370144  0  0.980381  0  0  0.381696  0  0.963284  0  0  0.279536  0.361947  0  0.992481  0
H  H28  1  0.87571658  0.80022619  0.46722420  1  0  0.39106  0  0.929781  0  0  0.36232  0  0.993094  0  0  0.371908  0  0.978988  0  0  0.278213  0.355574  0  1.003012  0
H  H29  1  0.62430645  0.69977141  0.96721668  1  0  0.391007  0  0.929842  0  0  0.362288  0  0.993124  0  0  0.371877  0  0.979018  0  0  0.278215  0.355542  0  1.003042  0
H  H30  1  0.12431867  0.19972325  0.53279358  1  0  0.391088  0  0.929734  0  0  0.36229  0  0.993089  0  0  0.371881  0  0.978978  0  0  0.278175  0.355545  0  1.003006  0
H  H31  1  0.37569792  0.30028792  0.03278246  1  0  0.391009  0  0.929869  0  0  0.362237  0  0.993214  0  0  0.371827  0  0.979106  0  0  0.278141  0.355489  0  1.003134  0
C  C32  1  0.12820155  0.66075950  0.35636781  1  0  -0.23532  0  3.771201  0  0  -0.215625  0  4.009197  0  0  -0.229902  0  4.032859  0  0  -0.043144  -0.206316  0  3.993266  0
C  C33  1  0.37180835  0.83924645  0.85636559  1  0  -0.235287  0  3.771293  0  0  -0.215477  0  4.00926  0  0  -0.229744  0  4.032913  0  0  -0.04311  -0.206165  0  3.993328  0
C  C34  1  0.87181162  0.33924517  0.64363349  1  0  -0.235182  0  3.771302  0  0  -0.21528  0  4.009193  0  0  -0.229547  0  4.032851  0  0  -0.04309  -0.205971  0  3.993262  0
C  C35  1  0.62818352  0.16076423  0.14362921  1  0  -0.235095  0  3.771034  0  0  -0.215393  0  4.009115  0  0  -0.229662  0  4.032771  0  0  -0.043089  -0.206081  0  3.993175  0
C  C36  1  0.27047413  0.51335206  0.34458740  1  0  0.34377  0  3.79373  0  0  0.333007  0  4.048082  0  0  0.347945  0  4.062754  0  0  0.092812  0.322919  0  4.03801  0
C  C37  1  0.22951101  0.98662527  0.84458607  1  0  0.343844  0  3.79364  0  0  0.333052  0  4.047956  0  0  0.347986  0  4.062636  0  0  0.092774  0.322967  0  4.037877  0
C  C38  1  0.72952130  0.48662623  0.65541564  1  0  0.343807  0  3.793941  0  0  0.332945  0  4.048341  0  0  0.34788  0  4.063012  0  0  0.092704  0.32286  0  4.038262  0
C  C39  1  0.77048944  0.01338334  0.15540526  1  0  0.34356  0  3.793658  0  0  0.33282  0  4.047999  0  0  0.347756  0  4.062667  0  0  0.092691  0.322739  0  4.037917  0
C  C40  1  0.22144957  0.33143965  0.30643037  1  0  -0.197994  0  3.728649  0  0  -0.217803  0  3.983204  0  0  -0.225996  0  4.002383  0  0  -0.105554  -0.212581  0  3.970441  0
C  C41  1  0.27852357  0.16854647  0.80643369  1  0  -0.197921  0  3.728313  0  0  -0.217699  0  3.982814  0  0  -0.225928  0  4.001968  0  0  -0.105453  -0.212449  0  3.970072  0
C  C42  1  0.77853065  0.66855457  0.69356660  1  0  -0.198046  0  3.728638  0  0  -0.217857  0  3.983185  0  0  -0.226056  0  4.002355  0  0  -0.10548  -0.212604  0  3.970441  0
C  C43  1  0.72146348  0.83144406  0.19355114  1  0  -0.197861  0  3.728472  0  0  -0.217713  0  3.982996  0  0  -0.225904  0  4.002166  0  0  -0.105598  -0.212486  0  3.97023  0
C  C44  1  0.03453635  0.29647074  0.27966609  1  0  -0.02259  0  3.770602  0  0  -0.038332  0  4.021717  0  0  -0.034404  0  4.040631  0  0  -0.082516  -0.040548  0  4.008684  0
C  C45  1  0.46546176  0.20354537  0.77967160  1  0  -0.022619  0  3.770336  0  0  -0.038376  0  4.021466  0  0  -0.034449  0  4.04039  0  0  -0.082532  -0.040587  0  4.008432  0
C  C46  1  0.96545543  0.70354842  0.72033088  1  0  -0.022405  0  3.770199  0  0  -0.03816  0  4.021329  0  0  -0.03423  0  4.040239  0  0  -0.08247  -0.040371  0  4.008293  0
C  C47  1  0.53452832  0.79643655  0.22031366  1  0  -0.022688  0  3.769693  0  0  -0.038524  0  4.020887  0  0  -0.034595  0  4.039801  0  0  -0.082468  -0.04074  0  4.007856  0
C  C48  1  0.89305048  0.44142496  0.29034431  1  0  -0.134151  0  3.819061  0  0  -0.150705  0  4.080285  0  0  -0.157076  0  4.102285  0  0  -0.112161  -0.146655  0  4.065296  0
C  C49  1  0.60696937  0.05862606  0.79034758  1  0  -0.133934  0  3.818789  0  0  -0.150511  0  4.080024  0  0  -0.156896  0  4.102036  0  0  -0.112169  -0.146463  0  4.065043  0
C  C50  1  0.10695450  0.55860212  0.70965786  1  0  -0.133936  0  3.818746  0  0  -0.1505  0  4.080019  0  0  -0.156865  0  4.102015  0  0  -0.112173  -0.146454  0  4.065038  0
C  C51  1  0.39301537  0.94135948  0.20964072  1  0  -0.133931  0  3.818528  0  0  -0.150511  0  4.079713  0  0  -0.156907  0  4.101736  0  0  -0.112109  -0.146462  0  4.064726  0
C  C52  1  0.94076827  0.62171781  0.32839122  1  0  -0.065287  0  3.803408  0  0  -0.092641  0  4.063818  0  0  -0.088465  0  4.082571  0  0  -0.094559  -0.095005  0  4.050826  0
C  C53  1  0.55925362  0.87831803  0.82838981  1  0  -0.065315  0  3.80366  0  0  -0.092737  0  4.064105  0  0  -0.088558  0  4.082856  0  0  -0.094548  -0.095107  0  4.051122  0
C  C54  1  0.05924740  0.37830202  0.67161225  1  0  -0.0655  0  3.80375  0  0  -0.092955  0  4.064212  0  0  -0.088783  0  4.082959  0  0  -0.094618  -0.095319  0  4.051226  0
C  C55  1  0.44074432  0.12167543  0.17160239  1  0  -0.06527  0  3.803716  0  0  -0.092623  0  4.064139  0  0  -0.088436  0  4.082897  0  0  -0.09453  -0.09499  0  4.051146  0
C  C56  1  0.17703739  0.84572232  0.39942066  1  0  0.672127  0  3.898072  0  0  0.62244  0  4.191244  0  0  0.657073  0  4.182604  0  0  0.201557  0.599025  0  4.196412  0
C  C57  1  0.32298774  0.65427305  0.89941803  1  0  0.671977  0  3.898105  0  0  0.622142  0  4.19144  0  0  0.65677  0  4.182813  0  0  0.201397  0.59873  0  4.196594  0
C  C58  1  0.82298489  0.15425652  0.60058542  1  0  0.672111  0  3.898319  0  0  0.622229  0  4.191698  0  0  0.656858  0  4.183068  0  0  0.201462  0.598817  0  4.196861  0
C  C59  1  0.67701457  0.34575584  0.10058241  1  0  0.672094  0  3.897781  0  0  0.622243  0  4.191212  0  0  0.656871  0  4.182583  0  0  0.201518  0.598832  0  4.196365  0
O  O60  1  0.79432102  0.72797086  0.49973382  1  0  -0.917115  0  1.786987  0  0  -0.87469  0  1.948449  0  0  -0.892411  0  1.918536  0  0  -0.72111  -0.862046  0  1.969348  0
O  O61  1  0.70569557  0.77201668  0.99972830  1  0  -0.91712  0  1.787132  0  0  -0.874768  0  1.948488  0  0  -0.892471  0  1.918616  0  0  -0.721149  -0.862123  0  1.969386  0
O  O62  1  0.20571866  0.27197839  0.50028180  1  0  -0.917343  0  1.786751  0  0  -0.874859  0  1.94835  0  0  -0.892571  0  1.918437  0  0  -0.721107  -0.862219  0  1.969252  0
O  O63  1  0.29430087  0.22803960  0.00027127  1  0  -0.91694  0  1.787148  0  0  -0.874528  0  1.948608  0  0  -0.892212  0  1.918713  0  0  -0.720991  -0.861897  0  1.969537  0
O  O64  1  0.45372114  0.54580722  0.36985492  1  0  -0.569314  0  2.114992  0  0  -0.517147  0  2.332085  0  0  -0.53853  0  2.323284  0  0  -0.411213  -0.501852  0  2.337494  0
O  O65  1  0.04626208  0.95412502  0.86985132  1  0  -0.569529  0  2.115041  0  0  -0.517355  0  2.332178  0  0  -0.538738  0  2.323369  0  0  -0.411239  -0.502059  0  2.337585  0
O  O66  1  0.54627462  0.45413713  0.63014942  1  0  -0.569536  0  2.115206  0  0  -0.517339  0  2.332334  0  0  -0.538715  0  2.323526  0  0  -0.411249  -0.502046  0  2.337742  0
O  O67  1  0.95374299  0.04589357  0.13014175  1  0  -0.569383  0  2.115024  0  0  -0.51722  0  2.332135  0  0  -0.5386  0  2.323332  0  0  -0.411273  -0.501928  0  2.337535  0
O  O68  1  0.04236728  0.95882009  0.41672972  1  0  -0.687823  0  2.008108  0  0  -0.623284  0  2.228367  0  0  -0.648774  0  2.218865  0  0  -0.369236  -0.605571  0  2.23448  0
O  O69  1  0.45766516  0.54119477  0.91672626  1  0  -0.687719  0  2.008251  0  0  -0.62315  0  2.22854  0  0  -0.648648  0  2.219052  0  0  -0.369166  -0.605437  0  2.234652  0
O  O70  1  0.95765499  0.04115875  0.58328416  1  0  -0.687817  0  2.008491  0  0  -0.623223  0  2.228782  0  0  -0.64871  0  2.219288  0  0  -0.369235  -0.605512  0  2.234893  0
O  O71  1  0.54233208  0.45883943  0.08327288  1  0  -0.687895  0  2.008207  0  0  -0.623298  0  2.228495  0  0  -0.648799  0  2.219014  0  0  -0.369282  -0.605583  0  2.234601  0
O  O72  1  0.35833597  0.87982960  0.41942725  1  0  -0.714367  0  2.027868  0  0  -0.654642  0  2.255595  0  0  -0.679736  0  2.244971  0  0  -0.4655  -0.637246  0  2.262471  0
O  O73  1  0.14167799  0.62013953  0.91942278  1  0  -0.714241  0  2.027607  0  0  -0.654461  0  2.255412  0  0  -0.679558  0  2.244798  0  0  -0.465359  -0.637064  0  2.262277  0
O  O74  1  0.64167483  0.12011581  0.58058317  1  0  -0.714297  0  2.027494  0  0  -0.654519  0  2.255318  0  0  -0.679614  0  2.244698  0  0  -0.465324  -0.637124  0  2.262189  0
O  O75  1  0.85832913  0.37990951  0.08058243  1  0  -0.714247  0  2.0277  0  0  -0.654432  0  2.255443  0  0  -0.679526  0  2.244833  0  0  -0.4653  -0.637038  0  2.262307  0
