# generated using pymatgen
data_Cu2H14C20I2N4Cl
_symmetry_space_group_name_H-M   'P 1'
_cell_length_a   8.96251668
_cell_length_b   9.24581553
_cell_length_c   13.43643624
_cell_angle_alpha   72.74221000
_cell_angle_beta   77.90639109
_cell_angle_gamma   85.39661331
_symmetry_Int_Tables_number   1
_chemical_formula_structural   Cu2H14C20I2N4Cl
_chemical_formula_sum   'Cu4 H28 C40 I4 N8 Cl2'
_cell_volume   1039.50060494
_cell_formula_units_Z   2
loop_
 _symmetry_equiv_pos_site_id
 _symmetry_equiv_pos_as_xyz
  1  'x, y, z'
loop_
 _atom_site_type_symbol
 _atom_site_label
 _atom_site_symmetry_multiplicity
 _atom_site_fract_x
 _atom_site_fract_y
 _atom_site_fract_z
 _atom_site_occupancy
 _atom_site_hle17_ddec_charge
 _atom_site_hle17_ddec_spin_density
 _atom_site_hle17_ddec_sum_bond_order
 _atom_site_hle17_magmom
 _atom_site_hse06_10hf_ddec_charge
 _atom_site_hse06_10hf_ddec_spin_density
 _atom_site_hse06_10hf_ddec_sum_bond_order
 _atom_site_hse06_10hf_magmom
 _atom_site_hse06_ddec_charge
 _atom_site_hse06_ddec_spin_density
 _atom_site_hse06_ddec_sum_bond_order
 _atom_site_hse06_magmom
 _atom_site_pbe_cm5_charge
 _atom_site_pbe_ddec_charge
 _atom_site_pbe_ddec_spin_density
 _atom_site_pbe_ddec_sum_bond_order
 _atom_site_pbe_magmom
Cu  Cu0  1  0.33321929  0.37775329  0.11365688  1  0.638956  -0.53173  2.085733  -0.406  0.628435  -0.744039  2.516916  -0.585  0.718846  -0.818406  2.440749  -0.675  0.620013  0.564515  -0.636583  2.572047  -0.499
Cu  Cu1  1  0.66675053  0.62222934  0.88635054  1  0.639353  -0.532104  2.085621  -0.406  0.628535  -0.744052  2.517036  -0.585  0.718974  -0.818393  2.440789  -0.675  0.620125  0.56465  -0.636909  2.572232  -0.496
Cu  Cu2  1  0.04599620  0.14090058  0.44089471  1  0.305794  -0.113257  2.190479  -0.091  0.206153  -0.004287  2.688722  -0.003  0.215743  6e-05  2.633613  0.0  0.253582  0.212825  -0.076841  2.717525  -0.062
Cu  Cu3  1  0.95399780  0.85907312  0.55911490  1  0.305615  -0.113119  2.190566  -0.091  0.206156  -0.004277  2.688717  -0.003  0.215745  6e-05  2.633613  0.0  0.253616  0.212863  -0.076946  2.717498  -0.062
H  H4  1  0.42808143  0.07651747  0.05857092  1  0.077024  -0.000729  0.961234  -0.001  0.084819  -0.001227  1.029074  -0.002  0.086646  -0.000871  1.027386  -0.001  0.110122  0.083147  -0.001283  1.030469  -0.002
H  H5  1  0.57192124  0.92342764  0.94145643  1  0.07697  -0.000721  0.961315  -0.001  0.084752  -0.001226  1.029169  -0.002  0.086578  -0.000871  1.027482  -0.001  0.110105  0.083082  -0.001284  1.030557  -0.002
H  H6  1  0.61973790  0.86463340  0.11136605  1  0.104598  -0.000698  1.002252  0.0  0.113816  -0.000961  1.065286  -0.001  0.11783  -0.0007  1.063255  0.0  0.091588  0.111059  -0.001014  1.067286  -0.001
H  H7  1  0.38029892  0.13535038  0.88865595  1  0.104545  -0.000695  1.002311  0.0  0.113774  -0.000961  1.065333  -0.001  0.117794  -0.0007  1.063288  0.0  0.091565  0.11097  -0.001014  1.067371  -0.001
H  H8  1  0.77465265  0.88054501  0.24291041  1  0.093634  -6.1e-05  0.949035  0.0  0.109156  2.2e-05  1.001669  0.0  0.110736  5.5e-05  1.001901  0.0  0.106959  0.106851  7e-06  1.00298  0.0
H  H9  1  0.22538087  0.11947266  0.75710774  1  0.093597  -7.4e-05  0.949089  0.0  0.109031  2.2e-05  1.001818  0.0  0.110621  5.5e-05  1.002036  0.0  0.106871  0.106722  7e-06  1.003119  0.0
H  H10  1  0.73994839  0.10519857  0.31338401  1  0.106082  -0.000489  0.988959  -0.001  0.122425  -0.000676  1.043419  -0.001  0.126321  -0.000472  1.040945  -0.001  0.093779  0.116336  -0.00067  1.049439  -0.001
H  H11  1  0.26004501  0.89482918  0.68662717  1  0.106183  -0.00049  0.988915  -0.001  0.122556  -0.000677  1.043384  -0.001  0.126449  -0.000472  1.040915  -0.001  0.093757  0.116477  -0.00067  1.049367  -0.001
H  H12  1  0.73941092  0.33842564  0.32676616  1  0.107543  -0.000764  0.99997  -0.001  0.120003  -0.000657  1.064282  -0.001  0.124673  -0.000467  1.060849  -0.001  0.092752  0.114151  -0.000807  1.069295  -0.001
H  H13  1  0.26060489  0.66159437  0.67320181  1  0.107465  -0.000751  1.000165  -0.001  0.120002  -0.000658  1.064356  -0.001  0.124667  -0.000467  1.06093  -0.001  0.092782  0.114149  -0.000806  1.069379  -0.001
H  H14  1  0.43861578  0.73185121  0.30939389  1  0.104817  -0.000456  0.989334  -0.001  0.116421  -0.000635  1.055257  -0.001  0.120083  -0.00046  1.053817  -0.001  0.097966  0.112207  -0.000649  1.057383  -0.001
H  H15  1  0.56137889  0.26814318  0.69060048  1  0.104926  -0.000448  0.989228  -0.001  0.116511  -0.000635  1.055138  -0.001  0.120118  -0.00046  1.053759  -0.001  0.098004  0.112269  -0.000649  1.057344  -0.001
H  H16  1  0.23936448  0.84448617  0.24250951  1  0.103138  -0.000506  0.984468  -0.001  0.113848  -0.0007  1.051324  -0.001  0.117464  -0.000493  1.050081  -0.001  0.095151  0.109113  -0.000711  1.05395  -0.001
H  H17  1  0.76066276  0.15552308  0.75748430  1  0.103128  -0.000507  0.984424  -0.001  0.113866  -0.0007  1.051249  -0.001  0.117476  -0.000493  1.050007  -0.001  0.095119  0.109124  -0.000711  1.053894  -0.001
H  H18  1  0.04189558  0.96654535  0.13941916  1  0.091044  3.7e-05  0.968387  0.0  0.100446  7.5e-05  1.03426  0.0  0.103908  9.1e-05  1.031311  0.0  0.097015  0.097357  6.4e-05  1.036824  0.0
H  H19  1  0.95813875  0.03349095  0.86057667  1  0.091028  4.2e-05  0.968391  0.0  0.100371  7.5e-05  1.034296  0.0  0.103826  9.1e-05  1.031351  0.0  0.097013  0.097303  6.4e-05  1.036825  0.0
H  H20  1  0.96751846  0.83817406  0.01309590  1  0.107442  -0.000244  0.967916  0.0  0.117991  -0.000494  1.027999  -0.001  0.121451  -0.000352  1.026395  0.0  0.100692  0.115104  -0.000523  1.029634  -0.001
H  H21  1  0.03246911  0.16185698  0.98691767  1  0.107524  -0.000247  0.967913  0.0  0.118093  -0.000494  1.027959  -0.001  0.12156  -0.000352  1.026362  0.0  0.100722  0.115207  -0.000523  1.0296  -0.001
H  H22  1  0.10438801  0.59918610  0.99437602  1  0.088417  -0.000846  0.943427  -0.001  0.094525  -0.001192  1.012907  -0.002  0.0974  -0.000833  1.009598  -0.001  0.108745  0.091964  -0.00132  1.015002  -0.002
H  H23  1  0.89554330  0.40081715  0.00565272  1  0.088287  -0.000843  0.943383  -0.001  0.094438  -0.001192  1.012869  -0.002  0.097311  -0.000833  1.009561  -0.001  0.108699  0.091874  -0.001322  1.014966  -0.002
H  H24  1  0.91143642  0.52011387  0.32338208  1  0.114955  4.7e-05  0.956245  0.0  0.121239  -5.1e-05  1.023091  0.0  0.125417  -4.2e-05  1.020898  0.0  0.100335  0.119076  -3.3e-05  1.023729  0.0
H  H25  1  0.08857710  0.47990244  0.67659733  1  0.115088  5.7e-05  0.956101  0.0  0.121276  -5.1e-05  1.02306  0.0  0.125452  -4.2e-05  1.020869  0.0  0.100353  0.119097  -3.1e-05  1.023707  0.0
H  H26  1  0.04574864  0.64750007  0.41882428  1  0.071711  -1.6e-05  0.958096  0.0  0.078296  -2e-06  1.027179  0.0  0.08105  -5e-06  1.025527  0.0  0.102691  0.076423  -0.000101  1.027808  0.0
H  H27  1  0.95425861  0.35249211  0.58117105  1  0.071725  -1.3e-05  0.958121  0.0  0.078276  -2e-06  1.027256  0.0  0.081033  -5e-06  1.025598  0.0  0.102666  0.076395  -0.000101  1.027877  0.0
H  H28  1  0.63937050  0.81014290  0.56189630  1  0.074183  -9.1e-05  0.962435  0.0  0.080624  1.6e-05  1.033343  0.0  0.083696  2.1e-05  1.030653  0.0  0.098973  0.078558  -0.000129  1.03425  0.0
H  H29  1  0.36062907  0.18984146  0.43809487  1  0.0742  -9.6e-05  0.962248  0.0  0.080581  1.6e-05  1.033275  0.0  0.083652  2.1e-05  1.030584  0.0  0.098891  0.078515  -0.000131  1.03418  0.0
H  H30  1  0.48812327  0.69628452  0.47135625  1  0.100039  -0.000267  1.003749  0.0  0.110404  1e-06  1.070112  0.0  0.113515  7e-06  1.069831  0.0  0.087871  0.108126  -0.000148  1.069222  0.0
H  H31  1  0.51188726  0.30371948  0.52861924  1  0.0999  -0.00026  1.003785  0.0  0.110331  1e-06  1.070072  0.0  0.113462  7e-06  1.069796  0.0  0.087857  0.108043  -0.000148  1.069209  0.0
C  C32  1  0.50301477  0.07850628  0.11240890  1  0.132821  0.006908  3.699196  0.005  0.104799  0.003442  3.951552  0.003  0.114208  0.004954  3.9707  0.004  0.047036  0.099019  0.002183  3.93914  0.002
C  C33  1  0.49698938  0.92146726  0.88760905  1  0.132825  0.006898  3.699395  0.005  0.104823  0.003445  3.951719  0.003  0.114227  0.004957  3.970874  0.004  0.046928  0.099055  0.002188  3.93933  0.002
C  C34  1  0.60708785  0.96159145  0.14333843  1  -0.121977  -0.004339  3.715347  -0.005  -0.132816  -0.003888  3.956678  -0.004  -0.139589  -0.003367  3.975559  -0.004  -0.08686  -0.128492  -0.003587  3.944775  -0.004
C  C35  1  0.39293071  0.03839335  0.85668360  1  -0.121926  -0.004384  3.715138  -0.005  -0.132735  -0.003888  3.95633  -0.004  -0.139513  -0.003369  3.975216  -0.004  -0.086797  -0.12837  -0.003588  3.944443  -0.004
C  C36  1  0.69392962  0.97099009  0.21602331  1  -0.000154  0.006216  3.705582  0.004  -0.011955  0.004295  3.940429  0.003  -0.007327  0.00477  3.956777  0.003  -0.06766  -0.017125  0.00357  3.934308  0.002
C  C37  1  0.30609072  0.02901292  0.78399199  1  -4.6e-05  0.006333  3.705572  0.004  -0.011798  0.004294  3.940435  0.003  -0.007174  0.004775  3.956783  0.003  -0.067541  -0.016962  0.003574  3.934279  0.002
C  C38  1  0.67614998  0.09663840  0.25471440  1  -0.125867  -0.002621  3.691157  -0.003  -0.136359  -0.002382  3.913808  -0.002  -0.140946  -0.002177  3.930679  -0.002  -0.078432  -0.136685  -0.002175  3.910204  -0.002
C  C39  1  0.32385198  0.90337139  0.74529612  1  -0.125953  -0.002664  3.691351  -0.003  -0.136499  -0.002379  3.913971  -0.002  -0.141091  -0.002181  3.930847  -0.002  -0.078336  -0.136826  -0.002176  3.910386  -0.002
C  C40  1  0.57471108  0.21242954  0.21634334  1  0.172886  0.002185  3.73098  0.001  0.174571  -0.000326  3.963662  -0.001  0.181515  0.00106  3.983762  0.0  0.118482  0.16914  -0.00098  3.952848  -0.002
C  C41  1  0.42528113  0.78756685  0.78365991  1  0.173139  0.002235  3.73078  0.001  0.17484  -0.000329  3.963466  -0.001  0.181787  0.001065  3.983558  0.0  0.118552  0.169419  -0.000978  3.952702  -0.002
C  C42  1  0.55112912  0.35428428  0.24601505  1  0.199724  0.005193  3.759632  0.004  0.1935  0.001739  4.003793  0.001  0.205027  0.003163  4.019344  0.002  0.123053  0.186231  0.00096  3.994556  0.001
C  C43  1  0.44886414  0.64572036  0.75397456  1  0.199828  0.005222  3.759546  0.004  0.193546  0.001734  4.003805  0.001  0.205065  0.003165  4.019358  0.002  0.123146  0.186288  0.00096  3.994627  0.001
C  C44  1  0.64046524  0.40473392  0.30202366  1  -0.150416  -0.004813  3.623804  -0.005  -0.17133  -0.003777  3.853966  -0.004  -0.176064  -0.003219  3.866822  -0.003  -0.06981  -0.169984  -0.003676  3.850248  -0.004
C  C45  1  0.35954497  0.59528021  0.69795215  1  -0.15048  -0.004882  3.623902  -0.005  -0.171452  -0.003774  3.854207  -0.004  -0.17618  -0.00322  3.867061  -0.003  -0.069966  -0.170116  -0.003678  3.850508  -0.004
C  C46  1  0.59900405  0.54117716  0.32706660  1  0.109905  0.005844  3.730358  0.004  0.128785  0.003448  3.954516  0.002  0.135604  0.004047  3.970025  0.003  0.014962  0.121313  0.00289  3.947139  0.002
C  C47  1  0.40100516  0.45883124  0.67291269  1  0.110026  0.005903  3.730171  0.004  0.128836  0.003448  3.954441  0.002  0.135655  0.004048  3.969938  0.003  0.014929  0.121379  0.002895  3.947037  0.002
C  C48  1  0.47260212  0.62491225  0.29179834  1  -0.163575  -0.004655  3.639872  -0.005  -0.186899  -0.003816  3.875457  -0.004  -0.192414  -0.003242  3.89017  -0.003  -0.073944  -0.184592  -0.003407  3.869397  -0.003
C  C49  1  0.52739361  0.37508560  0.70819299  1  -0.163614  -0.004711  3.639904  -0.005  -0.186886  -0.003816  3.8755  -0.004  -0.192354  -0.003241  3.890251  -0.003  -0.073887  -0.184571  -0.003409  3.869392  -0.003
C  C50  1  0.39599471  0.57371585  0.22893615  1  0.20316  0.005223  3.768115  0.004  0.196689  0.001863  4.012336  0.001  0.208298  0.003317  4.028292  0.003  0.122899  0.189842  0.00091  4.002283  0.001
C  C51  1  0.60399081  0.42627839  0.77106172  1  0.203025  0.005262  3.76823  0.004  0.196591  0.001864  4.012408  0.001  0.2082  0.003318  4.028353  0.003  0.122853  0.189761  0.000914  4.00239  0.001
C  C52  1  0.27737752  0.65773758  0.17260306  1  0.17037  0.001825  3.738174  0.001  0.17115  -0.000881  3.97007  -0.002  0.178098  0.000512  3.991219  0.0  0.115274  0.165939  -0.001522  3.95793  -0.002
C  C53  1  0.72260322  0.34226097  0.82740131  1  0.170345  0.0018  3.738292  0.001  0.171096  -0.000881  3.970214  -0.002  0.17805  0.000508  3.991372  0.0  0.115223  0.165896  -0.001522  3.958109  -0.002
C  C54  1  0.20890746  0.79350814  0.18602689  1  -0.136126  -0.002334  3.703788  -0.002  -0.145876  -0.002097  3.929306  -0.002  -0.15244  -0.001863  3.94899  -0.002  -0.07981  -0.143597  -0.001968  3.921817  -0.002
C  C55  1  0.79110149  0.20650086  0.81397241  1  -0.136188  -0.002327  3.703655  -0.002  -0.145953  -0.002098  3.929113  -0.002  -0.15251  -0.00186  3.948787  -0.002  -0.079851  -0.143686  -0.001968  3.921632  -0.002
C  C56  1  0.09681922  0.86128891  0.12813143  1  -0.012262  0.005878  3.726776  0.004  -0.023679  0.00371  3.962563  0.002  -0.019558  0.004097  3.978977  0.002  -0.068609  -0.027925  0.003044  3.954973  0.002
C  C57  1  0.90319376  0.13873584  0.87187026  1  -0.01218  0.005839  3.7266  0.004  -0.023488  0.00371  3.962318  0.002  -0.01936  0.004093  3.978729  0.002  -0.068472  -0.027749  0.003045  3.954699  0.002
C  C58  1  0.05686597  0.79258433  0.05823949  1  -0.109148  -0.004194  3.707141  -0.005  -0.120268  -0.003829  3.944749  -0.004  -0.126319  -0.003243  3.963138  -0.004  -0.082446  -0.116267  -0.003634  3.933768  -0.004
C  C59  1  0.94312424  0.20743667  0.94177045  1  -0.10929  -0.004155  3.707159  -0.005  -0.120406  -0.003828  3.944762  -0.004  -0.126472  -0.003241  3.963154  -0.004  -0.082533  -0.116418  -0.003634  3.933789  -0.004
C  C60  1  0.13097955  0.65765353  0.04795538  1  0.149158  0.006705  3.674797  0.005  0.120835  0.003185  3.924461  0.003  0.131606  0.004675  3.940979  0.004  0.054027  0.114172  0.001924  3.913747  0.002
C  C61  1  0.86897803  0.34235245  0.95206111  1  0.149318  0.006643  3.674677  0.005  0.120847  0.003185  3.924507  0.003  0.131625  0.004673  3.941031  0.004  0.053968  0.114196  0.001928  3.913821  0.002
C  C62  1  0.68670364  0.59958330  0.38763205  1  0.089286  -0.000485  3.757657  -0.001  0.091923  -0.00012  3.996729  0.0  0.096206  -0.000167  4.015866  0.0  0.005564  0.093039  0.000502  3.980177  0.0
C  C63  1  0.31330789  0.40042522  0.61234318  1  0.089191  -0.000464  3.757566  -0.001  0.091917  -0.00012  3.996599  0.0  0.096203  -0.000166  4.015739  0.0  0.005545  0.093025  0.000501  3.980051  0.0
C  C64  1  0.84602622  0.58296883  0.37581416  1  -0.152572  0.000992  3.684034  0.001  -0.169956  0.000685  3.936704  0.0  -0.175967  0.000721  3.954821  0.0  -0.082795  -0.16571  0.000305  3.920986  0.0
C  C65  1  0.15398417  0.41703846  0.62416443  1  -0.152913  0.000959  3.684183  0.001  -0.170235  0.000685  3.936899  0.0  -0.176246  0.00072  3.955019  0.0  -0.082928  -0.165981  0.000307  3.921184  0.0
C  C66  1  0.92162259  0.65311665  0.42900712  1  0.118503  -0.00024  3.699583  0.0  0.089078  -0.000159  3.948529  0.0  0.095271  -0.000136  3.964945  0.0  0.037072  0.08621  0.000202  3.936939  0.0
C  C67  1  0.07838460  0.34687903  0.57098383  1  0.118609  -0.000244  3.699846  0.0  0.089189  -0.000159  3.948772  0.0  0.095379  -0.000135  3.965191  0.0  0.037124  0.086332  0.000198  3.937161  0.0
C  C68  1  0.69527695  0.74436146  0.50884797  1  0.131504  -6.6e-05  3.690442  0.0  0.100514  -8.3e-05  3.939245  0.0  0.107355  -0.000114  3.955221  0.0  0.032939  0.097247  0.000399  3.927965  0.0
C  C69  1  0.30472816  0.25562862  0.49114136  1  0.131502  -4.4e-05  3.690246  0.0  0.100571  -8.3e-05  3.938992  0.0  0.107412  -0.000114  3.954978  0.0  0.033014  0.097304  0.000396  3.9277  0.0
C  C70  1  0.61175332  0.68073111  0.45733810  1  -0.161888  0.00104  3.728198  0.001  -0.179223  0.000791  3.974423  0.0  -0.186817  0.000799  3.99586  0.0  -0.09072  -0.173985  0.000424  3.958624  0.0
C  C71  1  0.38825374  0.31927392  0.54263990  1  -0.161618  0.00099  3.728102  0.001  -0.17903  0.000792  3.974332  0.0  -0.186651  0.000798  3.995741  0.0  -0.090641  -0.173797  0.000424  3.958526  0.0
I  I72  1  0.05612529  0.23632102  0.23854069  1  -0.463431  -0.065946  1.32441  -0.054  -0.474018  -0.001405  1.729889  -0.003  -0.504896  0.001784  1.696006  -0.001  -0.242673  -0.440669  -0.011991  1.747542  -0.011
I  I73  1  0.94386735  0.76366182  0.76146363  1  -0.463542  -0.065873  1.324379  -0.054  -0.474066  -0.001398  1.729872  -0.003  -0.504921  0.001785  1.695931  -0.001  -0.242723  -0.440725  -0.011999  1.747512  -0.011
I  I74  1  0.23516069  0.89400952  0.45583076  1  -0.406098  -0.073777  1.434548  -0.056  -0.427744  -0.001941  1.862303  -0.001  -0.448553  -0.000187  1.828094  0.0  -0.206391  -0.385553  -0.028211  1.871085  -0.021
I  I75  1  0.76483644  0.10597564  0.54417250  1  -0.406061  -0.073795  1.434487  -0.056  -0.427757  -0.001942  1.862245  -0.001  -0.448564  -0.000186  1.82803  0.0  -0.206407  -0.385554  -0.028206  1.871037  -0.021
N  N76  1  0.48860730  0.20159582  0.14682197  1  -0.306326  -0.047351  3.304177  -0.063  -0.255957  -0.058397  3.587814  -0.079  -0.286743  -0.04784  3.610868  -0.07  -0.331087  -0.240298  -0.055112  3.576306  -0.073
N  N77  1  0.51138659  0.79838125  0.85318775  1  -0.306578  -0.047407  3.304369  -0.063  -0.256278  -0.058399  3.588084  -0.079  -0.287059  -0.047844  3.611107  -0.07  -0.331204  -0.240654  -0.055147  3.576653  -0.072
N  N78  1  0.43351138  0.43901340  0.21073665  1  -0.341025  -0.055376  3.384233  -0.073  -0.298196  -0.064766  3.679763  -0.087  -0.328959  -0.053627  3.698277  -0.077  -0.352798  -0.282885  -0.060094  3.671498  -0.079
N  N79  1  0.56647296  0.56098196  0.78926115  1  -0.340992  -0.055429  3.384406  -0.073  -0.298144  -0.064779  3.679895  -0.087  -0.328923  -0.05364  3.698441  -0.077  -0.352769  -0.282854  -0.06015  3.6717  -0.079
N  N80  1  0.23830227  0.59222041  0.10361924  1  -0.316207  -0.044537  3.302061  -0.059  -0.262093  -0.058061  3.582812  -0.079  -0.293656  -0.047526  3.606618  -0.069  -0.332271  -0.245593  -0.054535  3.56977  -0.072
N  N81  1  0.76165790  0.40777665  0.89639415  1  -0.316089  -0.044544  3.302231  -0.059  -0.261992  -0.05806  3.583091  -0.079  -0.293582  -0.047522  3.606916  -0.069  -0.33217  -0.245504  -0.05456  3.570093  -0.071
N  N82  1  0.84899505  0.73454269  0.49398894  1  -0.26597  0.000419  3.341336  0.0  -0.187365  0.000558  3.622894  0.0  -0.19764  0.000632  3.629593  0.0  -0.357059  -0.183703  -0.000866  3.619039  -0.001
N  N83  1  0.15100778  0.26544494  0.50600712  1  -0.266015  0.00042  3.341458  0.0  -0.187391  0.000559  3.622987  0.0  -0.197664  0.000631  3.629686  0.0  -0.357031  -0.18373  -0.000867  3.619126  -0.001
Cl  Cl84  1  0.28362999  0.34842931  0.96468217  1  -0.533762  -0.08745  0.985522  -0.11  -0.506702  -0.062979  1.274183  -0.081  -0.540065  -0.044958  1.254292  -0.062  -0.326205  -0.495904  -0.064892  1.291316  -0.081
Cl  Cl85  1  0.71636124  0.65156261  0.03531984  1  -0.53375  -0.087482  0.985453  -0.11  -0.5067  -0.062982  1.274181  -0.081  -0.540069  -0.044961  1.254272  -0.062  -0.326144  -0.495894  -0.064946  1.291376  -0.081
