# generated using pymatgen
data_NdH5C8NO7
_symmetry_space_group_name_H-M   'P 1'
_cell_length_a   7.40359785
_cell_length_b   10.50112703
_cell_length_c   14.95379621
_cell_angle_alpha   77.16857339
_cell_angle_beta   75.67314430
_cell_angle_gamma   69.34694871
_symmetry_Int_Tables_number   1
_chemical_formula_structural   NdH5C8NO7
_chemical_formula_sum   'Nd4 H20 C32 N4 O28'
_cell_volume   1042.33342283
_cell_formula_units_Z   4
loop_
 _symmetry_equiv_pos_site_id
 _symmetry_equiv_pos_as_xyz
  1  'x, y, z'
loop_
 _atom_site_type_symbol
 _atom_site_label
 _atom_site_symmetry_multiplicity
 _atom_site_fract_x
 _atom_site_fract_y
 _atom_site_fract_z
 _atom_site_occupancy
 _atom_site_hle17_bader_spin_density
 _atom_site_hle17_ddec_charge
 _atom_site_hle17_ddec_spin_density
 _atom_site_hle17_ddec_sum_bond_order
 _atom_site_hle17_magmom
 _atom_site_hse06_10hf_bader_spin_density
 _atom_site_hse06_10hf_ddec_charge
 _atom_site_hse06_10hf_ddec_spin_density
 _atom_site_hse06_10hf_ddec_sum_bond_order
 _atom_site_hse06_10hf_magmom
 _atom_site_hse06_bader_spin_density
 _atom_site_hse06_ddec_charge
 _atom_site_hse06_ddec_spin_density
 _atom_site_hse06_ddec_sum_bond_order
 _atom_site_hse06_magmom
 _atom_site_pbe_bader_spin_density
 _atom_site_pbe_cm5_charge
 _atom_site_pbe_ddec_charge
 _atom_site_pbe_ddec_spin_density
 _atom_site_pbe_ddec_sum_bond_order
 _atom_site_pbe_magmom
Nd  Nd0  1  0.37982698  0.56950228  0.88201365  1  0  2.241374  0  1.686289  0  0  2.067533  0  2.168307  0  0  2.110825  0  2.122107  0  0  1.515764  2.033818  0  2.20439  0
Nd  Nd1  1  0.83153671  0.93030105  0.61798783  1  0  2.240826  0  1.68565  0  0  2.067523  0  2.16639  0  0  2.110999  0  2.120026  0  0  1.51484  2.033615  0  2.203055  0
Nd  Nd2  1  0.62017155  0.43050588  0.11797964  1  0  2.241394  0  1.686247  0  0  2.067592  0  2.168237  0  0  2.110871  0  2.122041  0  0  1.515787  2.033876  0  2.204314  0
Nd  Nd3  1  0.16845803  0.06969476  0.38201453  1  0  2.24081  0  1.685604  0  0  2.067596  0  2.166222  0  0  2.111084  0  2.119842  0  0  1.514847  2.033599  0  2.203027  0
H  H4  1  0.13428331  0.12352922  0.73835010  1  0  0.116957  0  0.937475  0  0  0.12655  0  0.99694  0  0  0.13006  0  0.995093  0  0  0.119512  0.124056  0  0.998298  0
H  H5  1  0.99645266  0.37623357  0.76155974  1  0  0.116573  0  0.935894  0  0  0.126567  0  0.994874  0  0  0.130047  0  0.993067  0  0  0.119391  0.124022  0  0.99638  0
H  H6  1  0.86570462  0.87648203  0.26164919  1  0  0.11686  0  0.937485  0  0  0.126525  0  0.996879  0  0  0.130032  0  0.99504  0  0  0.119526  0.124031  0  0.998235  0
H  H7  1  0.00355395  0.62375812  0.23844831  1  0  0.116566  0  0.936065  0  0  0.126527  0  0.995088  0  0  0.130003  0  0.993292  0  0  0.119398  0.123983  0  0.996589  0
H  H8  1  0.17114806  0.21908084  0.87362501  1  0  0.114571  0  0.949422  0  0  0.123105  0  1.009242  0  0  0.12682  0  1.006477  0  0  0.114468  0.1203  0  1.011512  0
H  H9  1  0.26437564  0.28071883  0.62631669  1  0  0.11554  0  0.949691  0  0  0.123243  0  1.010272  0  0  0.127084  0  1.007368  0  0  0.114586  0.120472  0  1.012376  0
H  H10  1  0.82883435  0.78092733  0.12637590  1  0  0.114543  0  0.949535  0  0  0.123142  0  1.009251  0  0  0.126852  0  1.006495  0  0  0.11448  0.120335  0  1.011518  0
H  H11  1  0.73563400  0.71927184  0.37369031  1  0  0.115471  0  0.949657  0  0  0.123214  0  1.010217  0  0  0.127055  0  1.007313  0  0  0.114575  0.120443  0  1.012321  0
H  H12  1  0.27089970  0.05587421  0.01397591  1  0  0.124335  0  0.920991  0  0  0.13315  0  0.979365  0  0  0.13745  0  0.976718  0  0  0.119044  0.130037  0  0.981381  0
H  H13  1  0.34113555  0.44404514  0.48600106  1  0  0.12492  0  0.920762  0  0  0.13322  0  0.979584  0  0  0.137543  0  0.97691  0  0  0.119225  0.130064  0  0.981671  0
H  H14  1  0.72908900  0.94413292  0.98602212  1  0  0.124409  0  0.920981  0  0  0.133229  0  0.979348  0  0  0.137528  0  0.976703  0  0  0.119078  0.130116  0  0.981365  0
H  H15  1  0.65887438  0.55594759  0.51400590  1  0  0.124952  0  0.920726  0  0  0.133278  0  0.979535  0  0  0.137601  0  0.976858  0  0  0.119255  0.130123  0  0.981623  0
H  H16  1  0.57258993  0.40670042  0.70303513  1  0  0.458962  0  0.822667  0  0  0.431866  0  0.87766  0  0  0.442064  0  0.862729  0  0  0.313635  0.424609  0  0.888273  0
H  H17  1  0.68264527  0.09326379  0.79700353  1  0  0.458858  0  0.822888  0  0  0.431426  0  0.878228  0  0  0.441637  0  0.863308  0  0  0.313498  0.424182  0  0.888813  0
H  H18  1  0.42741090  0.59330774  0.29696001  1  0  0.45905  0  0.82256  0  0  0.431984  0  0.877505  0  0  0.442172  0  0.862586  0  0  0.313737  0.42473  0  0.888111  0
H  H19  1  0.31735803  0.90672893  0.20299482  1  0  0.458791  0  0.822965  0  0  0.431369  0  0.878294  0  0  0.441579  0  0.863375  0  0  0.313477  0.424123  0  0.888881  0
H  H20  1  0.55595677  0.32260938  0.80635190  1  0  0.419985  0  0.890918  0  0  0.388626  0  0.955707  0  0  0.400327  0  0.93852  0  0  0.295627  0.380355  0  0.967864  0
H  H21  1  0.68511657  0.17727061  0.69366690  1  0  0.419511  0  0.891277  0  0  0.387964  0  0.956488  0  0  0.399699  0  0.939224  0  0  0.295122  0.379706  0  0.968617  0
H  H22  1  0.44405613  0.67740083  0.19364261  1  0  0.419881  0  0.891058  0  0  0.388612  0  0.955685  0  0  0.400305  0  0.938515  0  0  0.295658  0.380343  0  0.967838  0
H  H23  1  0.31488319  0.82272005  0.30633331  1  0  0.419605  0  0.891178  0  0  0.388084  0  0.95636  0  0  0.399819  0  0.939096  0  0  0.295171  0.379826  0  0.96849  0
C  C24  1  0.21542908  0.84569290  0.73165646  1  0  0.673645  0  3.893106  0  0  0.62332  0  4.192409  0  0  0.658074  0  4.181104  0  0  0.240758  0.599789  0  4.199121  0
C  C25  1  0.79259424  0.65398778  0.76818898  1  0  0.67619  0  3.891877  0  0  0.626476  0  4.190881  0  0  0.661205  0  4.179505  0  0  0.241757  0.602952  0  4.197626  0
C  C26  1  0.78457947  0.15431526  0.26833521  1  0  0.673527  0  3.893553  0  0  0.623121  0  4.192982  0  0  0.657906  0  4.181628  0  0  0.240631  0.599579  0  4.199699  0
C  C27  1  0.20741821  0.34600597  0.23181907  1  0  0.676094  0  3.892132  0  0  0.626395  0  4.191063  0  0  0.661103  0  4.179718  0  0  0.241733  0.602888  0  4.19777  0
C  C28  1  0.23530586  0.91500743  0.80563631  1  0  0.106266  0  3.741897  0  0  0.113259  0  3.981751  0  0  0.113162  0  3.999962  0  0  0.130566  0.113157  0  3.969444  0
C  C29  1  0.95600648  0.58477185  0.69430434  1  0  0.109375  0  3.73922  0  0  0.114478  0  3.981391  0  0  0.114473  0  3.999463  0  0  0.131365  0.114309  0  3.969259  0
C  C30  1  0.76468964  0.08500175  0.19435803  1  0  0.1061  0  3.741839  0  0  0.113122  0  3.98173  0  0  0.113015  0  3.999935  0  0  0.1305  0.113024  0  3.969419  0
C  C31  1  0.04400711  0.41522088  0.30570315  1  0  0.109364  0  3.739283  0  0  0.114619  0  3.981265  0  0  0.114618  0  3.999345  0  0  0.131448  0.114439  0  3.969124  0
C  C32  1  0.18548557  0.05736236  0.80024823  1  0  -0.077089  0  3.647172  0  0  -0.103659  0  3.897456  0  0  -0.106091  0  3.915892  0  0  -0.054109  -0.101955  0  3.885017  0
C  C33  1  0.04339039  0.44242411  0.69968599  1  0  -0.077797  0  3.644473  0  0  -0.103888  0  3.894951  0  0  -0.106383  0  3.913443  0  0  -0.054183  -0.102339  0  3.882766  0
C  C34  1  0.81449597  0.94264683  0.19975023  1  0  -0.07685  0  3.646844  0  0  -0.103493  0  3.897164  0  0  -0.105926  0  3.915604  0  0  -0.054056  -0.101789  0  3.88472  0
C  C35  1  0.95662062  0.55756862  0.30032266  1  0  -0.077828  0  3.644852  0  0  -0.103953  0  3.895376  0  0  -0.106452  0  3.913876  0  0  -0.054224  -0.1024  0  3.883187  0
C  C36  1  0.20293100  0.10916767  0.87484667  1  0  0.013561  0  3.641725  0  0  -0.005374  0  3.899073  0  0  -0.003786  0  3.915701  0  0  -0.051702  -0.006396  0  3.888025  0
C  C37  1  0.18731969  0.39062250  0.62510943  1  0  0.011887  0  3.642643  0  0  -0.006369  0  3.899873  0  0  -0.004859  0  3.916424  0  0  -0.052454  -0.00728  0  3.888635  0
C  C38  1  0.79705336  0.89083947  0.12515150  1  0  0.013489  0  3.641736  0  0  -0.00547  0  3.899103  0  0  -0.003882  0  3.915731  0  0  -0.051754  -0.006488  0  3.88805  0
C  C39  1  0.81269317  0.60936611  0.37489964  1  0  0.012085  0  3.642772  0  0  -0.00622  0  3.900074  0  0  -0.004711  0  3.916629  0  0  -0.052416  -0.007132  0  3.888836  0
C  C40  1  0.26182260  0.01809725  0.95356616  1  0  -0.077132  0  3.632265  0  0  -0.105807  0  3.887954  0  0  -0.108402  0  3.906401  0  0  -0.057726  -0.104164  0  3.875764  0
C  C41  1  0.23382133  0.48175287  0.54642008  1  0  -0.076286  0  3.631702  0  0  -0.104531  0  3.887021  0  0  -0.107097  0  3.905438  0  0  -0.057136  -0.102821  0  3.874718  0
C  C42  1  0.73816648  0.98190783  0.04643123  1  0  -0.077231  0  3.632397  0  0  -0.105942  0  3.888106  0  0  -0.108541  0  3.906561  0  0  -0.057778  -0.104302  0  3.875915  0
C  C43  1  0.76618519  0.51823780  0.45358723  1  0  -0.076384  0  3.631691  0  0  -0.104618  0  3.887103  0  0  -0.107175  0  3.905516  0  0  -0.057134  -0.102912  0  3.874804  0
C  C44  1  0.30764556  0.87707546  0.95360384  1  0  0.112447  0  3.733398  0  0  0.116563  0  3.978416  0  0  0.116167  0  3.997011  0  0  0.12815  0.116633  0  3.965975  0
C  C45  1  0.13855345  0.62279336  0.54640816  1  0  0.112452  0  3.732029  0  0  0.116567  0  3.976755  0  0  0.116166  0  3.995336  0  0  0.128139  0.116658  0  3.964182  0
C  C46  1  0.69234352  0.12292961  0.04639355  1  0  0.11242  0  3.733562  0  0  0.116561  0  3.978496  0  0  0.116165  0  3.99709  0  0  0.128197  0.11663  0  3.96605  0
C  C47  1  0.86145085  0.37719834  0.45359803  1  0  0.112353  0  3.731965  0  0  0.11638  0  3.976914  0  0  0.115962  0  3.995493  0  0  0.128093  0.116476  0  3.964337  0
C  C48  1  0.36670218  0.76977626  0.03559608  1  0  0.686429  0  3.835184  0  0  0.633099  0  4.131882  0  0  0.667732  0  4.120978  0  0  0.246665  0.609652  0  4.13839  0
C  C49  1  0.17237981  0.73014119  0.46445448  1  0  0.686948  0  3.835535  0  0  0.63348  0  4.132057  0  0  0.668144  0  4.121126  0  0  0.24635  0.609957  0  4.138529  0
C  C50  1  0.63329086  0.23022572  0.96440046  1  0  0.686258  0  3.835453  0  0  0.633026  0  4.131954  0  0  0.667661  0  4.121044  0  0  0.246719  0.60958  0  4.138458  0
C  C51  1  0.82762165  0.26985051  0.53554900  1  0  0.687004  0  3.835611  0  0  0.633492  0  4.132255  0  0  0.668176  0  4.121296  0  0  0.246421  0.609968  0  4.138731  0
C  C52  1  0.95367335  0.57536887  0.01018115  1  0  0.557262  0  3.953594  0  0  0.515133  0  4.251934  0  0  0.545262  0  4.241941  0  0  0.216278  0.494615  0  4.257686  0
C  C53  1  0.53944452  0.92472717  0.48962432  1  0  0.55632  0  3.955293  0  0  0.514066  0  4.253862  0  0  0.544221  0  4.243948  0  0  0.215507  0.493615  0  4.259707  0
C  C54  1  0.04632553  0.42464032  0.98980985  1  0  0.557575  0  3.953213  0  0  0.515433  0  4.251585  0  0  0.545558  0  4.241583  0  0  0.216464  0.494915  0  4.25734  0
C  C55  1  0.46054044  0.07526659  0.51038054  1  0  0.556281  0  3.955039  0  0  0.513953  0  4.253708  0  0  0.544111  0  4.243789  0  0  0.215419  0.493501  0  4.259557  0
N  N56  1  0.29798166  0.82808686  0.88008022  1  0  -0.411014  0  3.318293  0  0  -0.364721  0  3.567882  0  0  -0.375004  0  3.585835  0  0  -0.385102  -0.357492  0  3.555818  0
N  N57  1  0.00621266  0.67174778  0.61989831  1  0  -0.414142  0  3.318931  0  0  -0.367446  0  3.569202  0  0  -0.377777  0  3.587107  0  0  -0.386187  -0.360085  0  3.557085  0
N  N58  1  0.70201405  0.17192336  0.11991335  1  0  -0.410826  0  3.318374  0  0  -0.364553  0  3.567953  0  0  -0.374832  0  3.585907  0  0  -0.385067  -0.357326  0  3.555884  0
N  N59  1  0.99379513  0.32824700  0.38010827  1  0  -0.414103  0  3.318834  0  0  -0.367436  0  3.569138  0  0  -0.377759  0  3.587038  0  0  -0.386293  -0.360063  0  3.557015  0
O  O60  1  0.28318465  0.71466080  0.74209098  1  0  -0.697785  0  1.967715  0  0  -0.647504  0  2.210406  0  0  -0.671562  0  2.2  0  0  -0.390614  -0.630491  0  2.217028  0
O  O61  1  0.73956927  0.78503199  0.75774716  1  0  -0.698573  0  1.969035  0  0  -0.648563  0  2.211653  0  0  -0.672633  0  2.201226  0  0  -0.390517  -0.631433  0  2.218275  0
O  O62  1  0.71684770  0.28535043  0.25789482  1  0  -0.697729  0  1.967977  0  0  -0.647405  0  2.210688  0  0  -0.671477  0  2.20027  0  0  -0.390566  -0.630389  0  2.217311  0
O  O63  1  0.26043391  0.21496279  0.24225570  1  0  -0.698487  0  1.96904  0  0  -0.648518  0  2.211691  0  0  -0.672585  0  2.201278  0  0  -0.390457  -0.631379  0  2.218304  0
O  O64  1  0.12799709  0.92108315  0.66652258  1  0  -0.709288  0  2.010156  0  0  -0.660769  0  2.265079  0  0  -0.684425  0  2.25268  0  0  -0.378838  -0.643944  0  2.27294  0
O  O65  1  0.71544512  0.57856424  0.83326183  1  0  -0.711696  0  2.008211  0  0  -0.663089  0  2.263002  0  0  -0.68665  0  2.250453  0  0  -0.380295  -0.646182  0  2.270866  0
O  O66  1  0.87199886  0.07892501  0.33347187  1  0  -0.709225  0  2.010124  0  0  -0.660709  0  2.265121  0  0  -0.684373  0  2.252697  0  0  -0.378799  -0.64387  0  2.272991  0
O  O67  1  0.28456225  0.42143569  0.16675062  1  0  -0.711647  0  2.00833  0  0  -0.66308  0  2.263152  0  0  -0.686637  0  2.25062  0  0  -0.380333  -0.646177  0  2.270999  0
O  O68  1  0.41907999  0.64267112  0.02319682  1  0  -0.80872  0  2.092048  0  0  -0.747165  0  2.358222  0  0  -0.772052  0  2.345075  0  0  -0.426171  -0.729194  0  2.366451  0
O  O69  1  0.08526032  0.85724313  0.47686371  1  0  -0.808431  0  2.091219  0  0  -0.747387  0  2.357698  0  0  -0.772301  0  2.344597  0  0  -0.425587  -0.729262  0  2.366  0
O  O70  1  0.58091316  0.35732880  0.97680211  1  0  -0.808638  0  2.092177  0  0  -0.747099  0  2.358219  0  0  -0.771991  0  2.34509  0  0  -0.42616  -0.729128  0  2.366445  0
O  O71  1  0.91473622  0.14274445  0.52313998  1  0  -0.808462  0  2.091137  0  0  -0.747378  0  2.357613  0  0  -0.772302  0  2.344512  0  0  -0.425635  -0.729254  0  2.36592  0
O  O72  1  0.36057901  0.80768418  0.11048663  1  0  -0.606581  0  2.000726  0  0  -0.548878  0  2.216627  0  0  -0.574195  0  2.206677  0  0  -0.282039  -0.531434  0  2.223177  0
O  O73  1  0.27908834  0.69227714  0.38955406  1  0  -0.607183  0  2.002368  0  0  -0.548599  0  2.217681  0  0  -0.573984  0  2.207761  0  0  -0.281435  -0.531055  0  2.224056  0
O  O74  1  0.63942641  0.19231677  0.88950791  1  0  -0.606592  0  2.000799  0  0  -0.548875  0  2.21665  0  0  -0.574195  0  2.206698  0  0  -0.28209  -0.531431  0  2.223198  0
O  O75  1  0.72091990  0.30770941  0.61044830  1  0  -0.60713  0  2.002475  0  0  -0.548508  0  2.217799  0  0  -0.573892  0  2.207869  0  0  -0.281421  -0.530963  0  2.224179  0
O  O76  1  0.04394009  0.65986428  0.96680088  1  0  -0.661332  0  2.024446  0  0  -0.61562  0  2.263919  0  0  -0.638486  0  2.255819  0  0  -0.378434  -0.599103  0  2.268544  0
O  O77  1  0.67103229  0.84017277  0.53289100  1  0  -0.660597  0  2.023867  0  0  -0.614725  0  2.263024  0  0  -0.637672  0  2.255013  0  0  -0.378065  -0.598349  0  2.267993  0
O  O78  1  0.95605372  0.34014593  0.03318630  1  0  -0.661432  0  2.024278  0  0  -0.615714  0  2.263733  0  0  -0.638581  0  2.255643  0  0  -0.378493  -0.5992  0  2.268367  0
O  O79  1  0.32894750  0.15981892  0.46711319  1  0  -0.66058  0  2.023743  0  0  -0.614696  0  2.262949  0  0  -0.637659  0  2.254965  0  0  -0.378032  -0.598305  0  2.26792  0
O  O80  1  0.79506227  0.60179566  0.06916395  1  0  -0.653148  0  2.046076  0  0  -0.601694  0  2.287188  0  0  -0.624993  0  2.27875  0  0  -0.372365  -0.584818  0  2.292507  0
O  O81  1  0.46639974  0.89848272  0.43049246  1  0  -0.652362  0  2.048971  0  0  -0.600613  0  2.289553  0  0  -0.624078  0  2.28128  0  0  -0.37168  -0.583961  0  2.294726  0
O  O82  1  0.20493547  0.39821455  0.93082762  1  0  -0.653283  0  2.046009  0  0  -0.601791  0  2.287072  0  0  -0.625107  0  2.278682  0  0  -0.372405  -0.58491  0  2.292382  0
O  O83  1  0.53359389  0.10150589  0.56951077  1  0  -0.652351  0  2.048885  0  0  -0.600577  0  2.289507  0  0  -0.624037  0  2.28123  0  0  -0.37166  -0.583939  0  2.294684  0
O  O84  1  0.50028428  0.41273143  0.76731145  1  0  -0.923201  0  1.839743  0  0  -0.870949  0  2.025546  0  0  -0.888875  0  1.992559  0  0  -0.66318  -0.857982  0  2.048751  0
O  O85  1  0.68093932  0.08708886  0.73271511  1  0  -0.922845  0  1.839729  0  0  -0.869951  0  2.025696  0  0  -0.887925  0  1.992624  0  0  -0.662455  -0.856906  0  2.048873  0
O  O86  1  0.49971953  0.58727673  0.23268489  1  0  -0.923204  0  1.839704  0  0  -0.871057  0  2.025514  0  0  -0.888939  0  1.992492  0  0  -0.663305  -0.858085  0  2.048697  0
O  O87  1  0.31905951  0.91290387  0.26728490  1  0  -0.922894  0  1.839666  0  0  -0.870073  0  2.02561  0  0  -0.88805  0  1.992536  0  0  -0.66251  -0.857018  0  2.048798  0
