# generated using pymatgen
data_NaH10C8NO9
_symmetry_space_group_name_H-M   'P 1'
_cell_length_a   6.81755571
_cell_length_b   7.47464500
_cell_length_c   12.92170381
_cell_angle_alpha   75.67779280
_cell_angle_beta   75.85925100
_cell_angle_gamma   68.31830319
_symmetry_Int_Tables_number   1
_chemical_formula_structural   NaH10C8NO9
_chemical_formula_sum   'Na2 H20 C16 N2 O18'
_cell_volume   584.25776257
_cell_formula_units_Z   2
loop_
 _symmetry_equiv_pos_site_id
 _symmetry_equiv_pos_as_xyz
  1  'x, y, z'
loop_
 _atom_site_type_symbol
 _atom_site_label
 _atom_site_symmetry_multiplicity
 _atom_site_fract_x
 _atom_site_fract_y
 _atom_site_fract_z
 _atom_site_occupancy
 _atom_site_hle17_bader_spin_density
 _atom_site_hle17_ddec_charge
 _atom_site_hle17_ddec_spin_density
 _atom_site_hle17_ddec_sum_bond_order
 _atom_site_hle17_magmom
 _atom_site_hse06_10hf_bader_spin_density
 _atom_site_hse06_10hf_ddec_charge
 _atom_site_hse06_10hf_ddec_spin_density
 _atom_site_hse06_10hf_ddec_sum_bond_order
 _atom_site_hse06_10hf_magmom
 _atom_site_hse06_bader_spin_density
 _atom_site_hse06_ddec_charge
 _atom_site_hse06_ddec_spin_density
 _atom_site_hse06_ddec_sum_bond_order
 _atom_site_hse06_magmom
 _atom_site_pbe_bader_spin_density
 _atom_site_pbe_cm5_charge
 _atom_site_pbe_ddec_charge
 _atom_site_pbe_ddec_spin_density
 _atom_site_pbe_ddec_sum_bond_order
 _atom_site_pbe_magmom
Na  Na0  1  0.26349929  0.47119483  0.50749122  1  0  0.895739  0  0.386174  0  0  0.855773  0  0.537121  0  0  0.865132  0  0.514656  0  0  0.649293  0.848964  0  0.553142  0
Na  Na1  1  0.73650121  0.52880967  0.49251255  1  0  0.895724  0  0.386186  0  0  0.855727  0  0.537189  0  0  0.865091  0  0.51472  0  0  0.649289  0.848953  0  0.553146  0
H  H2  1  0.52644189  0.35235309  0.24063439  1  0  0.421644  0  0.773197  0  0  0.404321  0  0.827807  0  0  0.414338  0  0.817239  0  0  0.356463  0.397067  0  0.835546  0
H  H3  1  0.47352953  0.64763674  0.75937805  1  0  0.421698  0  0.773128  0  0  0.404374  0  0.82774  0  0  0.414392  0  0.81717  0  0  0.356479  0.397117  0  0.835486  0
H  H4  1  0.19511202  0.26912319  0.92022270  1  0  0.115219  0  0.96221  0  0  0.114215  0  1.03814  0  0  0.118711  0  1.033506  0  0  0.113237  0.111001  0  1.041412  0
H  H5  1  0.80491180  0.73086305  0.07977348  1  0  0.115235  0  0.96212  0  0  0.114134  0  1.038181  0  0  0.118629  0  1.03355  0  0  0.113227  0.11092  0  1.041457  0
H  H6  1  0.35314560  0.94536598  0.86135332  1  0  0.113018  0  0.93062  0  0  0.119024  0  0.993591  0  0  0.12367  0  0.990685  0  0  0.109491  0.115649  0  0.995842  0
H  H7  1  0.64690980  0.05461897  0.13864459  1  0  0.112998  0  0.930808  0  0  0.119047  0  0.993714  0  0  0.123691  0  0.990809  0  0  0.109483  0.115676  0  0.995974  0
H  H8  1  0.42794248  0.64357870  0.00109497  1  0  0.110788  0  0.970453  0  0  0.115346  0  1.041197  0  0  0.119033  0  1.037015  0  0  0.109453  0.112654  0  1.044248  0
H  H9  1  0.57208931  0.35641588  0.99891171  1  0  0.11093  0  0.970442  0  0  0.115468  0  1.041182  0  0  0.119163  0  1.036986  0  0  0.109548  0.112778  0  1.044234  0
H  H10  1  0.27494061  0.82949810  0.57218646  1  0  0.42443  0  0.865925  0  0  0.396777  0  0.923818  0  0  0.406582  0  0.909148  0  0  0.295634  0.389753  0  0.934333  0
H  H11  1  0.72504320  0.17051142  0.42781827  1  0  0.424413  0  0.865929  0  0  0.396742  0  0.923853  0  0  0.406551  0  0.909181  0  0  0.295609  0.389718  0  0.934369  0
H  H12  1  0.34702342  0.83817203  0.44866048  1  0  0.432287  0  0.859678  0  0  0.4063  0  0.9152  0  0  0.415628  0  0.901447  0  0  0.300161  0.399654  0  0.925015  0
H  H13  1  0.65298019  0.16182802  0.55134203  1  0  0.432282  0  0.859737  0  0  0.40629  0  0.915261  0  0  0.415618  0  0.901508  0  0  0.300173  0.399641  0  0.925078  0
H  H14  1  0.14447156  0.39513079  0.73560087  1  0  0.394431  0  0.908176  0  0  0.363174  0  0.974374  0  0  0.37287  0  0.959809  0  0  0.285593  0.356363  0  0.984604  0
H  H15  1  0.85554275  0.60486161  0.26439541  1  0  0.39435  0  0.908274  0  0  0.36307  0  0.974501  0  0  0.372766  0  0.959935  0  0  0.285544  0.35626  0  0.984731  0
H  H16  1  0.17923071  0.19939500  0.69663364  1  0  0.412777  0  0.888732  0  0  0.38332  0  0.951238  0  0  0.393249  0  0.936661  0  0  0.285909  0.376299  0  0.961527  0
H  H17  1  0.82079525  0.80059403  0.30336195  1  0  0.412754  0  0.888767  0  0  0.383284  0  0.951295  0  0  0.393214  0  0.936717  0  0  0.285867  0.376259  0  0.96159  0
H  H18  1  0.07369304  0.18453424  0.54341741  1  0  0.408577  0  0.904136  0  0  0.380045  0  0.965754  0  0  0.390098  0  0.950775  0  0  0.287719  0.372885  0  0.976439  0
H  H19  1  0.92630385  0.81547329  0.45658320  1  0  0.408555  0  0.904125  0  0  0.380021  0  0.965748  0  0  0.390073  0  0.950769  0  0  0.2877  0.37286  0  0.976435  0
H  H20  1  0.13430596  0.19858814  0.41892238  1  0  0.4225  0  0.882575  0  0  0.393433  0  0.943721  0  0  0.403866  0  0.928245  0  0  0.287043  0.386037  0  0.954699  0
H  H21  1  0.86568378  0.80141392  0.58107811  1  0  0.422609  0  0.882427  0  0  0.393514  0  0.943625  0  0  0.403946  0  0.928147  0  0  0.28708  0.386118  0  0.954602  0
C  C22  1  0.28569736  0.79434866  0.13706506  1  0  -0.098276  0  3.714048  0  0  -0.079574  0  3.949728  0  0  -0.090828  0  3.972552  0  0  -0.009525  -0.07241  0  3.934725  0
C  C23  1  0.71430321  0.20564575  0.86294082  1  0  -0.098174  0  3.713541  0  0  -0.079473  0  3.949285  0  0  -0.090709  0  3.972093  0  0  -0.00953  -0.07231  0  3.934274  0
C  C24  1  0.17748961  0.97664270  0.17118744  1  0  -0.042335  0  3.631752  0  0  -0.044281  0  3.879281  0  0  -0.041715  0  3.896107  0  0  0.018667  -0.046118  0  3.86818  0
C  C25  1  0.82249340  0.02335675  0.82881406  1  0  -0.042448  0  3.631514  0  0  -0.044544  0  3.879204  0  0  -0.041996  0  3.896059  0  0  0.018684  -0.046376  0  3.868091  0
C  C26  1  0.15499413  0.14284433  0.08976091  1  0  0.04484  0  3.689112  0  0  0.024054  0  3.941819  0  0  0.018478  0  3.963604  0  0  0.080426  0.027449  0  3.927412  0
C  C27  1  0.84498678  0.85715665  0.91024136  1  0  0.044769  0  3.689336  0  0  0.024054  0  3.941967  0  0  0.018483  0  3.963757  0  0  0.080293  0.027448  0  3.927559  0
C  C28  1  0.21731505  0.13458166  0.97926238  1  0  -0.061408  0  3.716265  0  0  -0.088165  0  3.977925  0  0  -0.085134  0  3.996501  0  0  -0.066882  -0.089819  0  3.965469  0
C  C29  1  0.78268238  0.86541576  0.02073643  1  0  -0.061309  0  3.716396  0  0  -0.087961  0  3.978002  0  0  -0.084926  0  3.996565  0  0  -0.066833  -0.089619  0  3.96556  0
C  C30  1  0.30645107  0.95308968  0.94740770  1  0  -0.06602  0  3.721093  0  0  -0.080664  0  3.983701  0  0  -0.087096  0  4.0054  0  0  -0.083923  -0.076692  0  3.96938  0
C  C31  1  0.69357656  0.04688632  0.05259722  1  0  -0.066121  0  3.721512  0  0  -0.080843  0  3.984115  0  0  -0.087272  0  4.005812  0  0  -0.08395  -0.076881  0  3.96981  0
C  C32  1  0.34632871  0.78468144  0.02617031  1  0  -0.00719  0  3.665094  0  0  -0.045971  0  3.930527  0  0  -0.040919  0  3.947556  0  0  -0.064833  -0.04893  0  3.918937  0
C  C33  1  0.65369756  0.21531480  0.97384057  1  0  -0.007334  0  3.665054  0  0  -0.046077  0  3.930477  0  0  -0.041033  0  3.947526  0  0  -0.064952  -0.04904  0  3.918893  0
C  C34  1  0.34685178  0.61625653  0.22050936  1  0  0.666541  0  3.785079  0  0  0.61468  0  4.086166  0  0  0.648233  0  4.076806  0  0  0.24628  0.591698  0  4.0924  0
C  C35  1  0.65315096  0.38376950  0.77947891  1  0  0.666058  0  3.784905  0  0  0.614255  0  4.085937  0  0  0.647793  0  4.076598  0  0  0.246127  0.591272  0  4.092165  0
C  C36  1  0.10398931  0.99722952  0.28974268  1  0  0.669372  0  3.968835  0  0  0.602802  0  4.296112  0  0  0.636971  0  4.28608  0  0  0.212549  0.579532  0  4.30194  0
C  C37  1  0.89600053  0.00279127  0.71024290  1  0  0.66949  0  3.968739  0  0  0.602966  0  4.29599  0  0  0.637147  0  4.285947  0  0  0.212555  0.579696  0  4.301818  0
N  N38  1  0.07904333  0.33514329  0.12026410  1  0  0.487125  0  3.928697  0  0  0.539344  0  4.184026  0  0  0.562359  0  4.190195  0  0  0.057718  0.523843  0  4.179973  0
N  N39  1  0.92093627  0.66486206  0.87972453  1  0  0.487077  0  3.928588  0  0  0.539379  0  4.183853  0  0  0.562393  0  4.190025  0  0  0.057876  0.523878  0  4.179797  0
O  O40  1  0.28245882  0.61040876  0.31809377  1  0  -0.557255  0  1.983835  0  0  -0.514632  0  2.208739  0  0  -0.534502  0  2.199784  0  0  -0.298835  -0.50124  0  2.21489  0
O  O41  1  0.71756908  0.38961193  0.68191137  1  0  -0.556934  0  1.984409  0  0  -0.514342  0  2.209313  0  0  -0.534203  0  2.200361  0  0  -0.298664  -0.500964  0  2.215463  0
O  O42  1  0.48829093  0.45803638  0.17901569  1  0  -0.529911  0  2.069975  0  0  -0.483944  0  2.286989  0  0  -0.504717  0  2.271734  0  0  -0.319176  -0.469216  0  2.297278  0
O  O43  1  0.51165642  0.54196454  0.82100537  1  0  -0.529744  0  2.069547  0  0  -0.483798  0  2.286534  0  0  -0.504566  0  2.271289  0  0  -0.319111  -0.46907  0  2.296817  0
O  O44  1  0.91944867  0.98421692  0.33256784  1  0  -0.655048  0  1.999522  0  0  -0.589544  0  2.216727  0  0  -0.616977  0  2.204952  0  0  -0.303789  -0.569736  0  2.224092  0
O  O45  1  0.08053384  0.01578975  0.66743041  1  0  -0.655095  0  1.999637  0  0  -0.589621  0  2.216859  0  0  -0.617049  0  2.205051  0  0  -0.303823  -0.569817  0  2.224223  0
O  O46  1  0.23164570  0.03039710  0.33256488  1  0  -0.617484  0  1.966898  0  0  -0.56212  0  2.185055  0  0  -0.588207  0  2.17497  0  0  -0.304046  -0.543286  0  2.19126  0
O  O47  1  0.76833075  0.96962280  0.66743530  1  0  -0.61752  0  1.966988  0  0  -0.562114  0  2.185088  0  0  -0.588202  0  2.174998  0  0  -0.304035  -0.543281  0  2.191289  0
O  O48  1  0.94309019  0.36537521  0.20384080  1  0  -0.352947  0  1.825099  0  0  -0.330939  0  2.016756  0  0  -0.344097  0  2.011611  0  0  -0.104514  -0.322403  0  2.020611  0
O  O49  1  0.05689213  0.63461128  0.79613924  1  0  -0.352813  0  1.824774  0  0  -0.33092  0  2.016503  0  0  -0.344084  0  2.011361  0  0  -0.104602  -0.322382  0  2.020353  0
O  O50  1  0.15676095  0.45947648  0.06163575  1  0  -0.352182  0  1.840072  0  0  -0.342376  0  2.055193  0  0  -0.356624  0  2.053192  0  0  -0.115114  -0.332795  0  2.056699  0
O  O51  1  0.84322945  0.54052698  0.93835519  1  0  -0.352287  0  1.840199  0  0  -0.342459  0  2.055246  0  0  -0.356711  0  2.053248  0  0  -0.115183  -0.332882  0  2.056753  0
O  O52  1  0.37340323  0.75016843  0.51828525  1  0  -0.90496  0  1.746674  0  0  -0.863933  0  1.902946  0  0  -0.879084  0  1.870393  0  0  -0.671311  -0.853196  0  1.926019  0
O  O53  1  0.62659365  0.24983623  0.48172350  1  0  -0.904949  0  1.746719  0  0  -0.863913  0  1.903042  0  0  -0.879074  0  1.870474  0  0  -0.671324  -0.853175  0  1.926116  0
O  O54  1  0.24716736  0.29685105  0.69359463  1  0  -0.843277  0  1.757008  0  0  -0.795341  0  1.903763  0  0  -0.812013  0  1.87513  0  0  -0.64109  -0.783443  0  1.923767  0
O  O55  1  0.75284886  0.70313983  0.30640244  1  0  -0.843125  0  1.757067  0  0  -0.795178  0  1.903907  0  0  -0.81185  0  1.875282  0  0  -0.640999  -0.783281  0  1.923909  0
O  O56  1  0.08298071  0.28084399  0.47596834  1  0  -0.931012  0  1.790696  0  0  -0.891092  0  1.964426  0  0  -0.907269  0  1.930983  0  0  -0.712564  -0.879528  0  1.987896  0
O  O57  1  0.91701534  0.71916502  0.52403526  1  0  -0.931071  0  1.790528  0  0  -0.891115  0  1.964234  0  0  -0.90731  0  1.930826  0  0  -0.712562  -0.879551  0  1.987703  0
