# generated using pymatgen
data_CuAg2H6C14(NO5)2
_symmetry_space_group_name_H-M   'P 1'
_cell_length_a   7.00631640
_cell_length_b   7.00633579
_cell_length_c   17.13462555
_cell_angle_alpha   84.04380824
_cell_angle_beta   84.04356900
_cell_angle_gamma   66.96373526
_symmetry_Int_Tables_number   1
_chemical_formula_structural   CuAg2H6C14(NO5)2
_chemical_formula_sum   'Cu2 Ag4 H12 C28 N4 O20'
_cell_volume   768.02799703
_cell_formula_units_Z   2
loop_
 _symmetry_equiv_pos_site_id
 _symmetry_equiv_pos_as_xyz
  1  'x, y, z'
loop_
 _atom_site_type_symbol
 _atom_site_label
 _atom_site_symmetry_multiplicity
 _atom_site_fract_x
 _atom_site_fract_y
 _atom_site_fract_z
 _atom_site_occupancy
 _atom_site_hle17_ddec_charge
 _atom_site_hle17_ddec_spin_density
 _atom_site_hle17_ddec_sum_bond_order
 _atom_site_hle17_magmom
 _atom_site_hse06_10hf_ddec_charge
 _atom_site_hse06_10hf_ddec_spin_density
 _atom_site_hse06_10hf_ddec_sum_bond_order
 _atom_site_hse06_10hf_magmom
 _atom_site_hse06_ddec_charge
 _atom_site_hse06_ddec_spin_density
 _atom_site_hse06_ddec_sum_bond_order
 _atom_site_hse06_magmom
 _atom_site_pbe_cm5_charge
 _atom_site_pbe_ddec_charge
 _atom_site_pbe_ddec_spin_density
 _atom_site_pbe_ddec_sum_bond_order
 _atom_site_pbe_magmom
Cu  Cu0  1  0.08269949  0.91729966  0.25000452  1  0.85489  0.673964  1.841075  0.511  0.852299  0.786543  2.210435  0.646  0.955434  0.864736  2.135463  0.746  0.749316  0.783329  0.717214  2.265209  0.57
Cu  Cu1  1  0.91728620  0.08270126  0.75000111  1  0.854919  0.673927  1.840868  0.511  0.852412  0.786563  2.210208  0.646  0.955531  0.864743  2.135212  0.746  0.749292  0.783409  0.717213  2.264989  0.57
Ag  Ag2  1  0.29098035  0.28326304  0.29294582  1  0.711665  0.018507  1.13313  0.012  0.582467  0.005213  1.543836  0.004  0.616435  0.000777  1.492286  0.001  0.444182  0.561252  0.015203  1.579287  0.011
Ag  Ag3  1  0.71672813  0.70902651  0.20705271  1  0.711645  0.018527  1.133187  0.012  0.582479  0.005219  1.543793  0.004  0.616447  0.000779  1.492243  0.001  0.444151  0.561268  0.015215  1.579241  0.011
Ag  Ag4  1  0.70901447  0.71672031  0.70705152  1  0.711653  0.018525  1.133076  0.012  0.582486  0.005217  1.543707  0.004  0.616462  0.000779  1.49216  0.001  0.444155  0.561274  0.015211  1.579156  0.011
Ag  Ag5  1  0.28326456  0.29098026  0.79294344  1  0.711718  0.018516  1.133072  0.012  0.582545  0.005213  1.543769  0.004  0.616522  0.000778  1.492219  0.001  0.44419  0.561333  0.015205  1.579223  0.011
H  H6  1  0.43723255  0.84643413  0.88670849  1  0.415887  -9.3e-05  0.860304  0.0  0.389014  -6.3e-05  0.933142  0.0  0.400215  -4.6e-05  0.920285  0.0  0.315113  0.380988  -7.2e-05  0.942367  0.0
H  H7  1  0.15357197  0.56277145  0.61329382  1  0.415902  -9.4e-05  0.860254  0.0  0.389028  -6.3e-05  0.933102  0.0  0.400229  -4.6e-05  0.920243  0.0  0.31513  0.381005  -7.2e-05  0.942317  0.0
H  H8  1  0.56277824  0.15356581  0.11329989  1  0.415875  -9.2e-05  0.860239  0.0  0.388993  -6.3e-05  0.933097  0.0  0.400192  -4.6e-05  0.920246  0.0  0.315124  0.380975  -7.2e-05  0.9423  0.0
H  H9  1  0.84644559  0.43723411  0.38670101  1  0.415823  -9.1e-05  0.860362  0.0  0.388953  -6.3e-05  0.933198  0.0  0.40015  -4.6e-05  0.920348  0.0  0.315079  0.380932  -7.2e-05  0.942408  0.0
H  H10  1  0.40166794  0.63523500  0.99205195  1  0.141375  0.000836  0.978865  0.001  0.149434  0.000632  1.038036  0.001  0.153983  0.000415  1.035168  0.001  0.115774  0.14599  0.000804  1.040391  0.001
H  H11  1  0.36476535  0.59836322  0.50795430  1  0.141348  0.000835  0.978953  0.001  0.149433  0.000632  1.038077  0.001  0.153976  0.000415  1.035227  0.001  0.115794  0.14599  0.000804  1.04043  0.001
H  H12  1  0.59836612  0.36475766  0.00795904  1  0.141371  0.000837  0.978865  0.001  0.149448  0.000632  1.038012  0.001  0.154002  0.000415  1.035139  0.001  0.11577  0.146002  0.000804  1.040371  0.001
H  H13  1  0.63523929  0.40167209  0.49204369  1  0.141473  0.000835  0.978744  0.001  0.149478  0.000632  1.037946  0.001  0.154031  0.000415  1.035076  0.001  0.11576  0.146034  0.000804  1.040302  0.001
H  H14  1  0.13005370  0.30559671  0.99068024  1  0.158487  0.000678  0.945994  0.001  0.163704  0.000513  1.009207  0.001  0.169061  0.000327  1.005666  0.0  0.118079  0.159639  0.000668  1.011997  0.001
H  H15  1  0.69440266  0.86993689  0.50932653  1  0.158379  0.000677  0.946202  0.001  0.163653  0.000514  1.009376  0.001  0.16901  0.000327  1.005838  0.0  0.118086  0.159591  0.000668  1.012162  0.001
H  H16  1  0.86993168  0.69439801  0.00932692  1  0.158398  0.00068  0.946179  0.001  0.163596  0.000513  1.009441  0.001  0.168949  0.000327  1.00591  0.0  0.118082  0.159534  0.000668  1.012227  0.001
H  H17  1  0.30559624  0.13004043  0.49067384  1  0.15846  0.000678  0.946036  0.001  0.163675  0.000513  1.009276  0.001  0.169033  0.000326  1.005734  0.0  0.118064  0.15961  0.000668  1.012066  0.001
C  C18  1  0.24963815  0.76793301  0.10064569  1  0.132523  -0.005978  3.750691  -0.004  0.134634  -0.001278  4.003588  0.0  0.141164  -0.002572  4.020303  -0.002  0.111384  0.129978  -0.000327  3.993148  0.0
C  C19  1  0.23206282  0.75037972  0.39935936  1  0.132635  -0.005981  3.7505  -0.004  0.134719  -0.001278  4.003412  0.0  0.141259  -0.00257  4.02013  -0.002  0.11146  0.130061  -0.000327  3.992967  0.0
C  C20  1  0.75037223  0.23206065  0.89936248  1  0.132416  -0.005966  3.750694  -0.004  0.134578  -0.001279  4.003499  0.0  0.141115  -0.00257  4.020221  -0.002  0.111388  0.129916  -0.000326  3.993057  0.0
C  C21  1  0.76793016  0.24964125  0.60063832  1  0.13258  -0.005965  3.750747  -0.004  0.134611  -0.00128  4.00362  0.0  0.141154  -0.00257  4.020342  -0.002  0.111388  0.129948  -0.000327  3.993172  0.0
C  C22  1  0.31865169  0.77635871  0.02223435  1  -0.228128  0.005606  3.652141  0.006  -0.2566  0.002629  3.896275  0.003  -0.263947  0.002336  3.911329  0.003  -0.085571  -0.251891  0.002745  3.886829  0.003
C  C23  1  0.22364602  0.68136610  0.47777016  1  -0.228029  0.00561  3.651963  0.006  -0.256537  0.002627  3.896141  0.003  -0.263889  0.002338  3.911193  0.003  -0.085558  -0.251821  0.002745  3.886676  0.003
C  C24  1  0.68137020  0.22363521  0.97777491  1  -0.22798  0.005599  3.651929  0.006  -0.256503  0.002627  3.896086  0.003  -0.263857  0.002338  3.911144  0.003  -0.08551  -0.251789  0.002745  3.886637  0.003
C  C25  1  0.77635830  0.31865497  0.52222572  1  -0.22817  0.005597  3.65211  0.006  -0.256537  0.002627  3.896152  0.003  -0.263889  0.002338  3.911205  0.003  -0.085497  -0.251823  0.002745  3.886691  0.003
C  C26  1  0.27948495  0.97092320  0.98128500  1  0.399739  -0.008938  3.771943  -0.006  0.389507  -0.003432  4.030966  -0.002  0.406201  -0.003876  4.043018  -0.002  0.107338  0.377886  -0.003017  4.022895  -0.002
C  C27  1  0.02907790  0.72052293  0.51872166  1  0.399704  -0.008939  3.771855  -0.006  0.389529  -0.003432  4.030904  -0.002  0.406226  -0.003879  4.04295  -0.002  0.107404  0.377906  -0.003017  4.022835  -0.002
C  C28  1  0.72052034  0.02906882  0.01872354  1  0.39968  -0.008932  3.771668  -0.006  0.389496  -0.00343  4.030724  -0.002  0.406188  -0.003878  4.042775  -0.002  0.107336  0.377872  -0.003017  4.022663  -0.002
C  C29  1  0.97092576  0.27948572  0.48127670  1  0.399698  -0.008927  3.771824  -0.006  0.389512  -0.00343  4.030765  -0.002  0.406203  -0.003878  4.042815  -0.002  0.107384  0.377895  -0.003017  4.022698  -0.002
C  C30  1  0.16593958  0.15198751  0.02080876  1  -0.211085  0.005741  3.597107  0.006  -0.239908  0.002495  3.845395  0.003  -0.247352  0.002303  3.860035  0.003  -0.081474  -0.235087  0.002511  3.836266  0.003
C  C31  1  0.84801141  0.83406005  0.47919850  1  -0.210916  0.005744  3.596943  0.006  -0.239921  0.002494  3.845418  0.003  -0.247369  0.002304  3.860061  0.003  -0.081507  -0.235097  0.002512  3.836283  0.003
C  C32  1  0.83405774  0.84800280  0.97919974  1  -0.210946  0.005733  3.596837  0.006  -0.239923  0.002494  3.845385  0.003  -0.247369  0.002304  3.860027  0.003  -0.081533  -0.235104  0.002512  3.836257  0.003
C  C33  1  0.15198764  0.16593134  0.52080107  1  -0.210948  0.005731  3.596974  0.006  -0.23987  0.002493  3.845334  0.003  -0.247319  0.002304  3.85998  0.003  -0.081517  -0.235049  0.002512  3.836202  0.003
C  C34  1  0.10327214  0.12974541  0.09972458  1  0.137727  -0.007521  3.731527  -0.005  0.140792  -0.002134  3.98074  -0.001  0.147724  -0.00343  3.997859  -0.002  0.113942  0.135829  -0.001203  3.969905  -0.001
C  C35  1  0.87025219  0.89672635  0.40027993  1  0.137815  -0.007527  3.731493  -0.005  0.140895  -0.002136  3.980729  -0.001  0.147839  -0.003429  3.997845  -0.002  0.113901  0.135927  -0.001203  3.969899  -0.001
C  C36  1  0.89671965  0.87025087  0.90028039  1  0.137862  -0.007511  3.731377  -0.005  0.14097  -0.002137  3.980575  -0.001  0.147913  -0.003427  3.997692  -0.002  0.114008  0.136008  -0.001203  3.969739  -0.001
C  C37  1  0.12974004  0.10327113  0.59971852  1  0.137706  -0.007505  3.731356  -0.005  0.140822  -0.002135  3.98052  -0.001  0.147763  -0.003428  3.997638  -0.002  0.113946  0.135858  -0.001203  3.969682  -0.001
C  C38  1  0.28720844  0.56683115  0.14960278  1  0.626747  -0.002329  3.911835  -0.002  0.57566  0.000286  4.208247  0.001  0.61158  0.000156  4.200095  0.001  0.211155  0.550893  0.00037  4.213217  0.001
C  C39  1  0.43315896  0.71281668  0.35039734  1  0.626629  -0.002334  3.911596  -0.002  0.575653  0.000286  4.207889  0.001  0.611555  0.000155  4.199762  0.001  0.211112  0.550889  0.00037  4.212853  0.001
C  C40  1  0.71281115  0.43315305  0.85040190  1  0.626779  -0.002338  3.911633  -0.002  0.575764  0.000285  4.207972  0.001  0.611666  0.000154  4.199843  0.001  0.211159  0.551003  0.000369  4.212935  0.001
C  C41  1  0.56682667  0.28720691  0.64959360  1  0.626794  -0.002332  3.911732  -0.002  0.575865  0.000285  4.207934  0.001  0.611748  0.000156  4.199826  0.001  0.211253  0.551114  0.00037  4.212885  0.001
C  C42  1  0.98855166  0.30814015  0.15059020  1  0.61415  -0.002598  3.912918  -0.002  0.566315  0.000383  4.19888  0.001  0.601759  0.000254  4.193871  0.001  0.202295  0.54203  0.00045  4.201145  0.001
C  C43  1  0.69186617  0.01143856  0.34941202  1  0.613774  -0.002604  3.913304  -0.002  0.565971  0.000383  4.199262  0.001  0.60141  0.000254  4.19427  0.001  0.202262  0.541685  0.00045  4.201518  0.001
C  C44  1  0.01142971  0.69186359  0.84941143  1  0.613925  -0.002605  3.913336  -0.002  0.566118  0.000382  4.199297  0.001  0.601552  0.000253  4.194299  0.001  0.202247  0.541829  0.00045  4.201556  0.001
C  C45  1  0.30813290  0.98854482  0.65058450  1  0.614135  -0.0026  3.91323  -0.002  0.566321  0.000384  4.199144  0.001  0.60176  0.000255  4.194139  0.001  0.202271  0.542034  0.00045  4.201404  0.001
N  N46  1  0.14500988  0.94207761  0.13846366  1  -0.340534  0.073003  3.396958  0.093  -0.312275  0.048527  3.692824  0.064  -0.346167  0.038485  3.715442  0.054  -0.368403  -0.292261  0.052482  3.680606  0.066
N  N47  1  0.05791980  0.85499422  0.36154226  1  -0.340634  0.073023  3.397079  0.093  -0.312345  0.048543  3.692929  0.064  -0.346247  0.038494  3.715545  0.054  -0.368478  -0.292327  0.052498  3.680711  0.066
N  N48  1  0.85498490  0.05791885  0.86154346  1  -0.340538  0.073018  3.397009  0.093  -0.312282  0.048545  3.692836  0.064  -0.346166  0.038494  3.715426  0.054  -0.368439  -0.292256  0.0525  3.680608  0.066
N  N49  1  0.94207284  0.14500955  0.63845640  1  -0.340663  0.072993  3.396964  0.093  -0.312404  0.048528  3.69285  0.064  -0.34629  0.038482  3.715452  0.054  -0.368444  -0.292374  0.052483  3.680614  0.066
O  O50  1  0.19570895  0.58648955  0.21923797  1  -0.643708  0.034024  2.207852  0.05  -0.587517  0.023127  2.511619  0.036  -0.629385  0.016114  2.499998  0.028  -0.320386  -0.558926  0.027943  2.519673  0.041
O  O51  1  0.41347554  0.80430329  0.28075791  1  -0.643681  0.034104  2.207781  0.05  -0.587504  0.023177  2.511447  0.037  -0.629375  0.016151  2.499835  0.028  -0.320364  -0.558908  0.027999  2.519499  0.041
O  O52  1  0.80428272  0.41347660  0.78076109  1  -0.643661  0.034098  2.207773  0.05  -0.587552  0.023168  2.51152  0.037  -0.629423  0.016145  2.499916  0.028  -0.320418  -0.558953  0.027989  2.519569  0.041
O  O53  1  0.58648136  0.19571969  0.71923116  1  -0.64378  0.034025  2.207821  0.05  -0.587639  0.023129  2.511519  0.036  -0.629498  0.016116  2.499926  0.028  -0.320423  -0.559054  0.027946  2.519578  0.041
O  O54  1  0.40097251  0.39847825  0.12117939  1  -0.602637  0.008983  2.017868  0.012  -0.552186  0.004955  2.250597  0.007  -0.57781  0.002058  2.240412  0.003  -0.299184  -0.533648  0.008134  2.256976  0.011
O  O55  1  0.60152568  0.59908531  0.37881383  1  -0.602609  0.008996  2.017853  0.012  -0.552233  0.004963  2.250577  0.007  -0.57785  0.002063  2.240399  0.003  -0.299183  -0.533703  0.008147  2.256977  0.011
O  O56  1  0.59907721  0.60152049  0.87882337  1  -0.602661  0.009  2.017818  0.012  -0.552276  0.004963  2.250564  0.007  -0.577894  0.002063  2.240385  0.003  -0.299121  -0.533734  0.008146  2.25694  0.011
O  O57  1  0.39847306  0.40096147  0.62116748  1  -0.602695  0.008986  2.017854  0.012  -0.552304  0.004955  2.250516  0.007  -0.577922  0.002058  2.24037  0.003  -0.299203  -0.533763  0.008134  2.256874  0.011
O  O58  1  0.98769296  0.26513200  0.22490909  1  -0.635212  0.032266  2.074996  0.047  -0.592584  0.021147  2.359093  0.034  -0.629518  0.013704  2.345159  0.024  -0.319019  -0.566945  0.02697  2.368461  0.04
O  O59  1  0.73489539  0.01229047  0.27509230  1  -0.635021  0.032335  2.075104  0.047  -0.592381  0.02119  2.359156  0.034  -0.629348  0.013736  2.345281  0.024  -0.318906  -0.56673  0.02702  2.368505  0.04
O  O60  1  0.01228395  0.73489054  0.77509349  1  -0.635121  0.03233  2.07527  0.047  -0.592496  0.021183  2.359316  0.034  -0.629473  0.01373  2.345471  0.024  -0.318917  -0.566844  0.027012  2.368669  0.04
O  O61  1  0.26511879  0.98769472  0.72490385  1  -0.635199  0.032269  2.075226  0.047  -0.592554  0.021151  2.359288  0.034  -0.629496  0.013707  2.345377  0.024  -0.318981  -0.56691  0.026976  2.368657  0.04
O  O62  1  0.89983324  0.48737012  0.11711434  1  -0.583042  0.013227  2.050449  0.018  -0.513752  0.005168  2.305949  0.007  -0.54651  0.002141  2.297259  0.003  -0.307809  -0.489829  0.008949  2.310319  0.012
O  O63  1  0.51263051  0.10014492  0.38288147  1  -0.582826  0.013239  2.050559  0.018  -0.513578  0.005175  2.30609  0.007  -0.546333  0.002144  2.297406  0.003  -0.30781  -0.489661  0.008959  2.310474  0.012
O  O64  1  0.10014218  0.51262525  0.88287991  1  -0.582915  0.013248  2.050483  0.018  -0.513701  0.005176  2.306052  0.007  -0.546456  0.002145  2.297367  0.003  -0.307832  -0.489785  0.00896  2.310444  0.012
O  O65  1  0.48736480  0.89982869  0.61710996  1  -0.582972  0.01323  2.050422  0.018  -0.513725  0.005169  2.305945  0.007  -0.546475  0.002141  2.297253  0.003  -0.307749  -0.489818  0.008951  2.310356  0.012
O  O66  1  0.34725687  0.98700393  0.90548167  1  -0.521484  -0.002494  2.160739  -0.002  -0.462937  -0.001504  2.394426  -0.001  -0.485211  -0.00156  2.382569  -0.001  -0.332132  -0.447649  -0.001295  2.40261  -0.001
O  O67  1  0.01299577  0.65274840  0.59452167  1  -0.521499  -0.002494  2.160814  -0.002  -0.46296  -0.001503  2.394498  -0.001  -0.48523  -0.001561  2.382639  -0.001  -0.332177  -0.447682  -0.001295  2.402682  -0.001
O  O68  1  0.65274624  0.01298949  0.09452458  1  -0.521516  -0.002495  2.160711  -0.002  -0.462939  -0.001503  2.394382  -0.001  -0.485204  -0.001561  2.382522  -0.001  -0.332132  -0.447661  -0.001295  2.402568  -0.001
O  O69  1  0.98701408  0.34725864  0.40547409  1  -0.521476  -0.002495  2.16087  -0.002  -0.462904  -0.001502  2.3945  -0.001  -0.485168  -0.00156  2.382643  -0.001  -0.332095  -0.447627  -0.001294  2.402686  -0.001
