# generated using pymatgen
data_AgH12C7S4(OF)3
_symmetry_space_group_name_H-M   'P 1'
_cell_length_a   8.38523519
_cell_length_b   8.53564269
_cell_length_c   9.34313286
_cell_angle_alpha   81.95408629
_cell_angle_beta   85.61336978
_cell_angle_gamma   80.39706674
_symmetry_Int_Tables_number   1
_chemical_formula_structural   AgH12C7S4(OF)3
_chemical_formula_sum   'Ag2 H24 C14 S8 O6 F6'
_cell_volume   651.89086103
_cell_formula_units_Z   2
loop_
 _symmetry_equiv_pos_site_id
 _symmetry_equiv_pos_as_xyz
  1  'x, y, z'
loop_
 _atom_site_type_symbol
 _atom_site_label
 _atom_site_symmetry_multiplicity
 _atom_site_fract_x
 _atom_site_fract_y
 _atom_site_fract_z
 _atom_site_occupancy
 _atom_site_pbe_bader_spin_density
 _atom_site_pbe_cm5_charge
 _atom_site_pbe_ddec_charge
 _atom_site_pbe_ddec_spin_density
 _atom_site_pbe_ddec_sum_bond_order
 _atom_site_pbe_magmom
Ag  Ag0  1  0.11084180  0.10744854  0.08333825  1  0  0.329826  0.113674  0  2.405434  0
Ag  Ag1  1  0.88915613  0.89255288  0.91665972  1  0  0.329832  0.113663  0  2.405465  0
H  H2  1  0.23608821  0.81145873  0.38346381  1  0  0.104183  0.129052  0  0.971881  0
H  H3  1  0.76391112  0.18854147  0.61653528  1  0  0.104183  0.129046  0  0.971858  0
H  H4  1  0.24003346  0.00688592  0.42840991  1  0  0.099112  0.124075  0  0.994326  0
H  H5  1  0.75996348  0.99311427  0.57159149  1  0  0.099098  0.124086  0  0.994285  0
H  H6  1  0.96776988  0.23688830  0.40914329  1  0  0.089518  0.106302  0  1.028439  0
H  H7  1  0.03222982  0.76310950  0.59085606  1  0  0.089508  0.106282  0  1.028456  0
H  H8  1  0.78136494  0.19488869  0.35159809  1  0  0.103927  0.134597  0  1.007583  0
H  H9  1  0.21863560  0.80511148  0.64840306  1  0  0.10392  0.134578  0  1.007576  0
H  H10  1  0.75115602  0.55734315  0.98326461  1  0  0.097165  0.119105  0  1.029211  0
H  H11  1  0.24884195  0.44265822  0.01673765  1  0  0.097171  0.119106  0  1.029201  0
H  H12  1  0.74044240  0.39026584  0.11777822  1  0  0.103484  0.130336  0  0.994135  0
H  H13  1  0.25955675  0.60973555  0.88222181  1  0  0.10348  0.130326  0  0.994154  0
H  H14  1  0.16149241  0.39630667  0.77429706  1  0  0.096828  0.119791  0  1.003521  0
H  H15  1  0.83850693  0.60369351  0.22570417  1  0  0.09681  0.119743  0  1.003513  0
H  H16  1  0.00279262  0.56302796  0.77952851  1  0  0.092175  0.110805  0  1.029463  0
H  H17  1  0.99720950  0.43696980  0.22047387  1  0  0.092161  0.110799  0  1.029426  0
H  H18  1  0.54379492  0.00431626  0.77687961  1  0  0.100167  0.121024  0  1.018553  0
H  H19  1  0.45620320  0.99568396  0.22311849  1  0  0.100154  0.120985  0  1.018592  0
H  H20  1  0.37408350  0.15951138  0.76470183  1  0  0.10394  0.12924  0  0.972195  0
H  H21  1  0.62591325  0.84049003  0.23529730  1  0  0.103949  0.129254  0  0.972194  0
H  H22  1  0.39879440  0.74170757  0.13435717  1  0  0.105581  0.13742  0  0.993148  0
H  H23  1  0.60120456  0.25829503  0.86564166  1  0  0.105571  0.137411  0  0.993162  0
H  H24  1  0.55916673  0.75492087  0.00077559  1  0  0.096945  0.115813  0  1.016442  0
H  H25  1  0.44082717  0.24507576  0.99922540  1  0  0.096951  0.115805  0  1.016435  0
C  C26  1  0.16501597  0.91243087  0.43264070  1  0  -0.148428  -0.166166  0  3.855079  0
C  C27  1  0.83498355  0.08756811  0.56736066  1  0  -0.148418  -0.166141  0  3.855007  0
C  C28  1  0.88948524  0.14557386  0.41247165  1  0  -0.156922  -0.181912  0  3.87207  0
C  C29  1  0.11051428  0.85442513  0.58752864  1  0  -0.156873  -0.181818  0  3.871986  0
C  C30  1  0.82370080  0.46333209  0.05417669  1  0  -0.153411  -0.175637  0  3.874381  0
C  C31  1  0.17630057  0.53667046  0.94582517  1  0  -0.153391  -0.175559  0  3.874282  0
C  C32  1  0.07949366  0.46802510  0.84612549  1  0  -0.155083  -0.176408  0  3.890071  0
C  C33  1  0.92050908  0.53197625  0.15387535  1  0  -0.155065  -0.176345  0  3.890102  0
C  C34  1  0.45400135  0.07899981  0.84060791  1  0  -0.148652  -0.169451  0  3.874541  0
C  C35  1  0.54599695  0.92099921  0.15939032  1  0  -0.148627  -0.169398  0  3.874586  0
C  C36  1  0.46810590  0.82569357  0.06668582  1  0  -0.153642  -0.180943  0  3.881064  0
C  C37  1  0.53189185  0.17430904  0.93331309  1  0  -0.153635  -0.180932  0  3.880892  0
C  C38  1  0.26581052  0.41209670  0.46117378  1  0  0.285753  0.501501  0  4.047232  0
C  C39  1  0.73419019  0.58790230  0.53882535  1  0  0.285688  0.501387  0  4.047412  0
S  S40  1  0.99559502  0.98387349  0.31695230  1  0  -0.025202  0.072638  0  3.069055  0
S  S41  1  0.00440690  0.01612548  0.68304889  1  0  -0.025194  0.072645  0  3.06908  0
S  S42  1  0.94594216  0.33292788  0.93635871  1  0  -0.023009  0.067498  0  3.100101  0
S  S43  1  0.05405701  0.66707348  0.06364346  1  0  -0.02304  0.067439  0  3.10014  0
S  S44  1  0.32527890  0.94611827  0.94282069  1  0  -0.017912  0.065346  0  3.110712  0
S  S45  1  0.67472227  0.05388552  0.05717783  1  0  -0.017918  0.06535  0  3.110557  0
S  S46  1  0.39135870  0.32796209  0.30822719  1  0  0.482439  0.981357  0  6.416059  0
S  S47  1  0.60864347  0.67204290  0.69177004  1  0  0.482439  0.981436  0  6.415994  0
O  O48  1  0.45264098  0.46459757  0.22468764  1  0  -0.33981  -0.546363  0  2.224426  0
O  O49  1  0.54735616  0.53540142  0.77531497  1  0  -0.339822  -0.546395  0  2.224143  0
O  O50  1  0.51043367  0.20502836  0.38089066  1  0  -0.335483  -0.539568  0  2.229256  0
O  O51  1  0.48957231  0.79497537  0.61911072  1  0  -0.335478  -0.539553  0  2.229333  0
O  O52  1  0.26942724  0.26592668  0.23614539  1  0  -0.355941  -0.581709  0  2.369276  0
O  O53  1  0.73057780  0.73406750  0.76385400  1  0  -0.355922  -0.581734  0  2.369307  0
F  F54  1  0.19142111  0.29541546  0.54121793  1  0  -0.095954  -0.204526  0  1.45038  0
F  F55  1  0.80857668  0.70458712  0.45878420  1  0  -0.095963  -0.204514  0  1.450422  0
F  F56  1  0.35318572  0.46925535  0.55206057  1  0  -0.08877  -0.169507  0  1.427606  0
F  F57  1  0.64682232  0.53074245  0.44793388  1  0  -0.088772  -0.169477  0  1.42761  0
F  F58  1  0.14774617  0.53349406  0.41213141  1  0  -0.092848  -0.187458  0  1.42536  0
F  F59  1  0.85225774  0.46650733  0.58786505  1  0  -0.092773  -0.187401  0  1.42542  0
