# generated using pymatgen
data_LuH12(C4O3)3
_symmetry_space_group_name_H-M   'P 1'
_cell_length_a   7.73595366
_cell_length_b   9.28677123
_cell_length_c   10.70647083
_cell_angle_alpha   69.32046886
_cell_angle_beta   71.50144568
_cell_angle_gamma   77.10742450
_symmetry_Int_Tables_number   1
_chemical_formula_structural   LuH12(C4O3)3
_chemical_formula_sum   'Lu2 H24 C24 O18'
_cell_volume   677.06596863
_cell_formula_units_Z   2
loop_
 _symmetry_equiv_pos_site_id
 _symmetry_equiv_pos_as_xyz
  1  'x, y, z'
loop_
 _atom_site_type_symbol
 _atom_site_label
 _atom_site_symmetry_multiplicity
 _atom_site_fract_x
 _atom_site_fract_y
 _atom_site_fract_z
 _atom_site_occupancy
 _atom_site_hle17_bader_spin_density
 _atom_site_hle17_ddec_charge
 _atom_site_hle17_ddec_spin_density
 _atom_site_hle17_ddec_sum_bond_order
 _atom_site_hle17_magmom
 _atom_site_hse06_10hf_bader_spin_density
 _atom_site_hse06_10hf_ddec_charge
 _atom_site_hse06_10hf_ddec_spin_density
 _atom_site_hse06_10hf_ddec_sum_bond_order
 _atom_site_hse06_10hf_magmom
 _atom_site_hse06_bader_spin_density
 _atom_site_hse06_ddec_charge
 _atom_site_hse06_ddec_spin_density
 _atom_site_hse06_ddec_sum_bond_order
 _atom_site_hse06_magmom
 _atom_site_pbe_bader_spin_density
 _atom_site_pbe_cm5_charge
 _atom_site_pbe_ddec_charge
 _atom_site_pbe_ddec_spin_density
 _atom_site_pbe_ddec_sum_bond_order
 _atom_site_pbe_magmom
Lu  Lu0  1  0.23647030  0.20578886  0.49074892  1  0  1.911184  0  2.230755  0  0  1.747423  0  2.713373  0  0  1.809283  0  2.652969  0  0  1.325437  1.703132  0  2.755581  0
Lu  Lu1  1  0.76352239  0.79421272  0.50925291  1  0  1.911027  0  2.231034  0  0  1.747499  0  2.713296  0  0  1.809367  0  2.652873  0  0  1.325437  1.703213  0  2.755492  0
H  H2  1  0.45094641  0.46184566  0.38608772  1  0  0.426655  0  0.86748  0  0  0.396934  0  0.931855  0  0  0.407356  0  0.916561  0  0  0.305805  0.389429  0  0.942926  0
H  H3  1  0.54904256  0.53815349  0.61391200  1  0  0.426571  0  0.867619  0  0  0.396909  0  0.931887  0  0  0.407329  0  0.916595  0  0  0.305777  0.389405  0  0.942956  0
H  H4  1  0.09266602  0.89758084  0.61513042  1  0  0.439305  0  0.859928  0  0  0.407295  0  0.925177  0  0  0.418431  0  0.908847  0  0  0.308038  0.399017  0  0.937433  0
H  H5  1  0.90734921  0.10241640  0.38486564  1  0  0.439212  0  0.860066  0  0  0.407232  0  0.925275  0  0  0.418352  0  0.908965  0  0  0.308033  0.398952  0  0.937532  0
H  H6  1  0.19369009  0.92743662  0.46172643  1  0  0.428932  0  0.835558  0  0  0.402896  0  0.902943  0  0  0.411691  0  0.893382  0  0  0.32193  0.396718  0  0.909701  0
H  H7  1  0.80630586  0.07256144  0.53826921  1  0  0.428888  0  0.83566  0  0  0.402835  0  0.903058  0  0  0.411629  0  0.8935  0  0  0.321923  0.396659  0  0.909818  0
H  H8  1  0.21104379  0.50055886  0.53326000  1  0  0.415723  0  0.890818  0  0  0.381767  0  0.961946  0  0  0.39335  0  0.94485  0  0  0.29824  0.373578  0  0.974055  0
H  H9  1  0.78895844  0.49943473  0.46674305  1  0  0.415712  0  0.890794  0  0  0.381699  0  0.962017  0  0  0.393267  0  0.944944  0  0  0.298221  0.373509  0  0.974126  0
H  H10  1  0.02635526  0.44341733  0.63627479  1  0  0.428405  0  0.867567  0  0  0.397436  0  0.934007  0  0  0.407545  0  0.919346  0  0  0.304235  0.389791  0  0.94523  0
H  H11  1  0.97364682  0.55657748  0.36373351  1  0  0.428359  0  0.867675  0  0  0.397392  0  0.934076  0  0  0.407491  0  0.919432  0  0  0.304214  0.389744  0  0.945307  0
H  H12  1  0.55991929  0.32998242  0.48170065  1  0  0.431748  0  0.855241  0  0  0.399808  0  0.923613  0  0  0.410193  0  0.908445  0  0  0.304573  0.392559  0  0.934229  0
H  H13  1  0.44007514  0.67001684  0.51829964  1  0  0.431762  0  0.855223  0  0  0.399812  0  0.923609  0  0  0.410197  0  0.908439  0  0  0.304561  0.39256  0  0.934231  0
H  H14  1  0.16871629  0.10214388  0.90724189  1  0  0.103649  0  0.950171  0  0  0.112197  0  1.01237  0  0  0.115505  0  1.011088  0  0  0.107331  0.1097  0  1.013435  0
H  H15  1  0.83127797  0.89785656  0.09276087  1  0  0.103534  0  0.95018  0  0  0.112086  0  1.012383  0  0  0.115387  0  1.011114  0  0  0.1073  0.10959  0  1.013448  0
H  H16  1  0.07584556  0.00376229  0.16614024  1  0  0.099484  0  0.961692  0  0  0.10471  0  1.032241  0  0  0.108408  0  1.029555  0  0  0.10514  0.101808  0  1.034537  0
H  H17  1  0.92415123  0.99623122  0.83386410  1  0  0.099491  0  0.961798  0  0  0.104693  0  1.032382  0  0  0.108396  0  1.029691  0  0  0.105144  0.101789  0  1.034678  0
H  H18  1  0.51661104  0.62828695  0.15868823  1  0  0.104569  0  0.938508  0  0  0.115729  0  0.995721  0  0  0.119269  0  0.993601  0  0  0.109707  0.112994  0  0.997584  0
H  H19  1  0.48339077  0.37170892  0.84131046  1  0  0.104552  0  0.938378  0  0  0.115662  0  0.995651  0  0  0.119205  0  0.993527  0  0  0.109686  0.112933  0  0.997506  0
H  H20  1  0.59688576  0.71865810  0.90098777  1  0  0.097377  0  0.974923  0  0  0.104762  0  1.040159  0  0  0.107359  0  1.039489  0  0  0.104923  0.102919  0  1.040429  0
H  H21  1  0.40312186  0.28134365  0.09900585  1  0  0.097325  0  0.975097  0  0  0.104751  0  1.040272  0  0  0.107341  0  1.03961  0  0  0.10491  0.102908  0  1.040544  0
H  H22  1  0.17909888  0.62498012  0.08019790  1  0  0.093705  0  0.994606  0  0  0.099551  0  1.064047  0  0  0.101668  0  1.065025  0  0  0.100187  0.098332  0  1.062865  0
H  H23  1  0.82090005  0.37502508  0.91980507  1  0  0.093725  0  0.994688  0  0  0.099591  0  1.064096  0  0  0.101706  0  1.065091  0  0  0.100195  0.098369  0  1.062914  0
H  H24  1  0.89777048  0.24290083  0.14625242  1  0  0.101008  0  0.949886  0  0  0.110703  0  1.010735  0  0  0.113622  0  1.009564  0  0  0.108511  0.108433  0  1.011958  0
H  H25  1  0.10222649  0.75709966  0.85374968  1  0  0.101006  0  0.9499  0  0  0.110697  0  1.010739  0  0  0.113614  0  1.009567  0  0  0.108504  0.108428  0  1.011962  0
C  C26  1  0.43277630  0.96591034  0.73334924  1  0  0.711797  0  3.834539  0  0  0.65556  0  4.131339  0  0  0.692545  0  4.119722  0  0  0.242689  0.630765  0  4.138275  0
C  C27  1  0.56721037  0.03410280  0.26665316  1  0  0.71189  0  3.834329  0  0  0.655557  0  4.131281  0  0  0.692519  0  4.119681  0  0  0.242693  0.630769  0  4.138218  0
C  C28  1  0.38650183  0.91459960  0.88859696  1  0  -0.062901  0  3.731408  0  0  -0.043936  0  3.96677  0  0  -0.050603  0  3.988885  0  0  -0.009458  -0.039615  0  3.951826  0
C  C29  1  0.61349787  0.08540093  0.11140450  1  0  -0.06293  0  3.731252  0  0  -0.043884  0  3.966568  0  0  -0.050543  0  3.988687  0  0  -0.009478  -0.039564  0  3.951627  0
C  C30  1  0.24187713  0.99720791  0.96336161  1  0  -0.069449  0  3.733332  0  0  -0.090952  0  3.981763  0  0  -0.092791  0  4.003853  0  0  -0.07774  -0.089669  0  3.966496  0
C  C31  1  0.75812313  0.00279726  0.03663639  1  0  -0.06933  0  3.733291  0  0  -0.09083  0  3.981691  0  0  -0.09267  0  4.003793  0  0  -0.07767  -0.089549  0  3.966427  0
C  C32  1  0.19113496  0.94304990  0.10708515  1  0  -0.06477  0  3.723522  0  0  -0.088733  0  3.97797  0  0  -0.089532  0  3.998665  0  0  -0.078633  -0.088158  0  3.963935  0
C  C33  1  0.80887210  0.05694723  0.89291379  1  0  -0.064633  0  3.723774  0  0  -0.088614  0  3.978257  0  0  -0.089403  0  3.998943  0  0  -0.078572  -0.088031  0  3.964219  0
C  C34  1  0.28793274  0.80916600  0.17851386  1  0  -0.07155  0  3.744385  0  0  -0.054623  0  3.987333  0  0  -0.061548  0  4.009009  0  0  -0.015642  -0.05017  0  3.973038  0
C  C35  1  0.71207881  0.19082888  0.82148567  1  0  -0.071813  0  3.74464  0  0  -0.054895  0  3.987601  0  0  -0.061827  0  4.009282  0  0  -0.015786  -0.050435  0  3.973305  0
C  C36  1  0.43909570  0.73099729  0.10380609  1  0  -0.060105  0  3.713641  0  0  -0.083679  0  3.965076  0  0  -0.084031  0  3.983953  0  0  -0.076832  -0.083552  0  3.952266  0
C  C37  1  0.56091430  0.26899875  0.89619438  1  0  -0.05998  0  3.71353  0  0  -0.0835  0  3.964952  0  0  -0.083845  0  3.983838  0  0  -0.076752  -0.083374  0  3.952141  0
C  C38  1  0.48513685  0.78194054  0.95997972  1  0  -0.063469  0  3.714471  0  0  -0.084668  0  3.962675  0  0  -0.085915  0  3.983682  0  0  -0.077212  -0.0836  0  3.947864  0
C  C39  1  0.51486264  0.21806112  0.04001956  1  0  -0.063451  0  3.714622  0  0  -0.084685  0  3.962763  0  0  -0.085928  0  3.983768  0  0  -0.077186  -0.08362  0  3.947957  0
C  C40  1  0.22338916  0.74804538  0.33260328  1  0  0.690667  0  3.839926  0  0  0.633003  0  4.140182  0  0  0.668739  0  4.12909  0  0  0.235049  0.608947  0  4.147262  0
C  C41  1  0.77661535  0.25195049  0.66739198  1  0  0.690727  0  3.839948  0  0  0.633064  0  4.140188  0  0  0.668801  0  4.129086  0  0  0.235053  0.608998  0  4.14728  0
C  C42  1  0.09755389  0.34607334  0.25765915  1  0  0.647134  0  3.882816  0  0  0.59217  0  4.179605  0  0  0.627136  0  4.169586  0  0  0.212294  0.567716  0  4.186527  0
C  C43  1  0.90244894  0.65392494  0.74234416  1  0  0.647259  0  3.882575  0  0  0.592255  0  4.179424  0  0  0.627202  0  4.16942  0  0  0.212328  0.567789  0  4.186363  0
C  C44  1  0.04367533  0.42627677  0.12619881  1  0  -0.05952  0  3.758507  0  0  -0.039434  0  3.993798  0  0  -0.04599  0  4.014849  0  0  -0.013056  -0.034654  0  3.979615  0
C  C45  1  0.95632848  0.57372387  0.87380538  1  0  -0.059572  0  3.758578  0  0  -0.03946  0  3.993849  0  0  -0.04603  0  4.014924  0  0  -0.013076  -0.03467  0  3.979663  0
C  C46  1  0.09980982  0.57187362  0.04450991  1  0  -0.061273  0  3.707273  0  0  -0.081938  0  3.950584  0  0  -0.082589  0  3.97103  0  0  -0.076539  -0.081424  0  3.936222  0
C  C47  1  0.90018427  0.42812804  0.95549624  1  0  -0.0613  0  3.707289  0  0  -0.081983  0  3.950582  0  0  -0.082654  0  3.971066  0  0  -0.076548  -0.081467  0  3.936212  0
C  C48  1  0.94325236  0.35485394  0.08143163  1  0  -0.054531  0  3.702135  0  0  -0.076412  0  3.947711  0  0  -0.076981  0  3.96743  0  0  -0.074261  -0.075993  0  3.934155  0
C  C49  1  0.05674287  0.64514885  0.91857016  1  0  -0.054471  0  3.702297  0  0  -0.076354  0  3.947863  0  0  -0.076907  0  3.967571  0  0  -0.074213  -0.07594  0  3.93431  0
O  O50  1  0.34321587  0.09070235  0.67398047  1  0  -0.676709  0  2.047639  0  0  -0.613291  0  2.300555  0  0  -0.6414  0  2.287515  0  0  -0.390606  -0.5939  0  2.309042  0
O  O51  1  0.65676312  0.90930031  0.32603543  1  0  -0.676708  0  2.047376  0  0  -0.613328  0  2.300372  0  0  -0.641427  0  2.287321  0  0  -0.390605  -0.593939  0  2.308856  0
O  O52  1  0.06365042  0.80350111  0.39102341  1  0  -0.700733  0  2.090066  0  0  -0.631355  0  2.342252  0  0  -0.6597  0  2.330755  0  0  -0.377549  -0.61157  0  2.34999  0
O  O53  1  0.93635394  0.19649600  0.60897803  1  0  -0.70078  0  2.090077  0  0  -0.631361  0  2.342256  0  0  -0.659703  0  2.330753  0  0  -0.377609  -0.611575  0  2.350005  0
O  O54  1  0.16351626  0.42145469  0.30883988  1  0  -0.674308  0  2.022756  0  0  -0.609215  0  2.255969  0  0  -0.63615  0  2.246586  0  0  -0.356839  -0.589643  0  2.262232  0
O  O55  1  0.83648538  0.57854237  0.69116128  1  0  -0.674324  0  2.022608  0  0  -0.609286  0  2.25589  0  0  -0.636224  0  2.246506  0  0  -0.356854  -0.589712  0  2.262151  0
O  O56  1  0.08457553  0.20231025  0.31829389  1  0  -0.659232  0  2.083817  0  0  -0.599898  0  2.322174  0  0  -0.625979  0  2.312531  0  0  -0.328332  -0.581472  0  2.329224  0
O  O57  1  0.91543001  0.79768805  0.68170784  1  0  -0.659302  0  2.083764  0  0  -0.599927  0  2.322088  0  0  -0.62599  0  2.312446  0  0  -0.328319  -0.581503  0  2.32915  0
O  O58  1  0.19677176  0.94998028  0.54338797  1  0  -0.837571  0  1.919422  0  0  -0.788135  0  2.124859  0  0  -0.808108  0  2.097338  0  0  -0.619681  -0.773599  0  2.144268  0
O  O59  1  0.80323291  0.05002253  0.45660134  1  0  -0.837418  0  1.919644  0  0  -0.788016  0  2.125107  0  0  -0.807973  0  2.09761  0  0  -0.619682  -0.773505  0  2.14454  0
O  O60  1  0.55642684  0.88243476  0.67064747  1  0  -0.665758  0  2.129836  0  0  -0.600367  0  2.386655  0  0  -0.629107  0  2.375626  0  0  -0.375437  -0.580261  0  2.39373  0
O  O61  1  0.44357235  0.11758424  0.32933709  1  0  -0.66571  0  2.130023  0  0  -0.600316  0  2.386999  0  0  -0.629032  0  2.375964  0  0  -0.375418  -0.580218  0  2.394077  0
O  O62  1  0.15257255  0.40506525  0.59209260  1  0  -0.858942  0  1.923027  0  0  -0.805529  0  2.118462  0  0  -0.826309  0  2.086349  0  0  -0.627784  -0.790373  0  2.14185  0
O  O63  1  0.84743243  0.59492842  0.40791352  1  0  -0.858897  0  1.923057  0  0  -0.805442  0  2.118586  0  0  -0.826183  0  2.086478  0  0  -0.627767  -0.790282  0  2.141975  0
O  O64  1  0.32806544  0.64518417  0.40024265  1  0  -0.662028  0  2.031417  0  0  -0.593829  0  2.252151  0  0  -0.618787  0  2.238363  0  0  -0.30375  -0.576664  0  2.261655  0
O  O65  1  0.67193652  0.35481046  0.59974986  1  0  -0.662042  0  2.031455  0  0  -0.593826  0  2.252119  0  0  -0.618781  0  2.23833  0  0  -0.303702  -0.576659  0  2.261622  0
O  O66  1  0.48661930  0.34825032  0.41580264  1  0  -0.828503  0  1.888265  0  0  -0.776018  0  2.079012  0  0  -0.796667  0  2.048056  0  0  -0.614777  -0.761575  0  2.100859  0
O  O67  1  0.51338209  0.65174783  0.58419170  1  0  -0.828371  0  1.888393  0  0  -0.77596  0  2.079005  0  0  -0.796599  0  2.048048  0  0  -0.614705  -0.761517  0  2.100855  0
