# generated using pymatgen
data_AgH13C14(NO)2
_symmetry_space_group_name_H-M   'P 1'
_cell_length_a   8.75837070
_cell_length_b   8.45367647
_cell_length_c   10.23534745
_cell_angle_alpha   93.57884916
_cell_angle_beta   114.72982519
_cell_angle_gamma   110.21253639
_symmetry_Int_Tables_number   1
_chemical_formula_structural   AgH13C14(NO)2
_chemical_formula_sum   'Ag2 H26 C28 N4 O4'
_cell_volume   626.60991732
_cell_formula_units_Z   2
loop_
 _symmetry_equiv_pos_site_id
 _symmetry_equiv_pos_as_xyz
  1  'x, y, z'
loop_
 _atom_site_type_symbol
 _atom_site_label
 _atom_site_symmetry_multiplicity
 _atom_site_fract_x
 _atom_site_fract_y
 _atom_site_fract_z
 _atom_site_occupancy
 _atom_site_hle17_bader_spin_density
 _atom_site_hle17_ddec_charge
 _atom_site_hle17_ddec_spin_density
 _atom_site_hle17_ddec_sum_bond_order
 _atom_site_hle17_magmom
 _atom_site_hse06_10hf_bader_spin_density
 _atom_site_hse06_10hf_ddec_charge
 _atom_site_hse06_10hf_ddec_spin_density
 _atom_site_hse06_10hf_ddec_sum_bond_order
 _atom_site_hse06_10hf_magmom
 _atom_site_hse06_bader_spin_density
 _atom_site_hse06_ddec_charge
 _atom_site_hse06_ddec_spin_density
 _atom_site_hse06_ddec_sum_bond_order
 _atom_site_hse06_magmom
 _atom_site_pbe_bader_spin_density
 _atom_site_pbe_cm5_charge
 _atom_site_pbe_ddec_charge
 _atom_site_pbe_ddec_spin_density
 _atom_site_pbe_ddec_sum_bond_order
 _atom_site_pbe_magmom
Ag  Ag0  1  0.23097532  0.67387468  0.56803534  1  0  0.543932  0  1.350809  0  0  0.40576  0  1.773958  0  0  0.439774  0  1.728358  0  0  0.441743  0.382842  0  1.804254  0
Ag  Ag1  1  0.76901665  0.32611306  0.43196652  1  0  0.543881  0  1.351068  0  0  0.405741  0  1.774183  0  0  0.439746  0  1.728588  0  0  0.441801  0.382832  0  1.804476  0
H  H2  1  0.94091643  0.86500213  0.30134754  1  0  0.13333  0  0.953928  0  0  0.15539  0  1.013672  0  0  0.157115  0  1.013673  0  0  0.102151  0.15384  0  1.014314  0
H  H3  1  0.05908065  0.13501385  0.69865274  1  0  0.133351  0  0.953992  0  0  0.155359  0  1.013765  0  0  0.157084  0  1.013765  0  0  0.102152  0.153812  0  1.014401  0
H  H4  1  0.09951086  0.08410080  0.38905237  1  0  0.154216  0  0.956731  0  0  0.17428  0  1.013518  0  0  0.176526  0  1.013064  0  0  0.104968  0.172623  0  1.01392  0
H  H5  1  0.90050003  0.91590972  0.61094410  1  0  0.154179  0  0.956664  0  0  0.174238  0  1.013467  0  0  0.176486  0  1.013011  0  0  0.104926  0.17258  0  1.013871  0
H  H6  1  0.09562075  0.92109302  0.49307615  1  0  0.134828  0  0.956831  0  0  0.157039  0  1.017614  0  0  0.158992  0  1.016628  0  0  0.100796  0.155532  0  1.018398  0
H  H7  1  0.90438537  0.07892757  0.50691996  1  0  0.134794  0  0.956851  0  0  0.156974  0  1.017652  0  0  0.158937  0  1.016654  0  0  0.100752  0.155465  0  1.018438  0
H  H8  1  0.48408800  0.00383304  0.09633190  1  0  0.101822  0  0.964365  0  0  0.11473  0  1.022699  0  0  0.117185  0  1.021755  0  0  0.104224  0.113169  0  1.023058  0
H  H9  1  0.51592137  0.99617329  0.90367942  1  0  0.101761  0  0.964472  0  0  0.114673  0  1.022803  0  0  0.117128  0  1.02186  0  0  0.10422  0.113112  0  1.02316  0
H  H10  1  0.66753190  0.82715167  0.12653196  1  0  0.079168  0  0.9706  0  0  0.092799  0  1.029221  0  0  0.095155  0  1.028619  0  0  0.097025  0.091041  0  1.029873  0
H  H11  1  0.33245096  0.17284367  0.87348147  1  0  0.07919  0  0.970381  0  0  0.092743  0  1.029102  0  0  0.095128  0  1.028469  0  0  0.097041  0.090986  0  1.029752  0
H  H12  1  0.68512440  0.63457375  0.30027521  1  0  0.100578  0  0.969345  0  0  0.109394  0  1.033958  0  0  0.112945  0  1.031505  0  0  0.098423  0.106736  0  1.035954  0
H  H13  1  0.31487737  0.36540346  0.69972302  1  0  0.100648  0  0.969375  0  0  0.109517  0  1.033901  0  0  0.11307  0  1.03145  0  0  0.098469  0.106859  0  1.035895  0
H  H14  1  0.51703136  0.61170530  0.44959520  1  0  0.094475  0  0.956956  0  0  0.106337  0  1.020513  0  0  0.109563  0  1.017408  0  0  0.101712  0.103976  0  1.022877  0
H  H15  1  0.48294085  0.38827100  0.55039273  1  0  0.0945  0  0.956998  0  0  0.106398  0  1.020522  0  0  0.109628  0  1.017406  0  0  0.101742  0.10403  0  1.022899  0
H  H16  1  0.37395531  0.19870151  0.19641393  1  0  0.063869  0  0.927391  0  0  0.07851  0  0.998029  0  0  0.080039  0  0.995056  0  0  0.105448  0.077235  0  1.000198  0
H  H17  1  0.62606993  0.80130055  0.80359051  1  0  0.063973  0  0.927465  0  0  0.07859  0  0.998122  0  0  0.080123  0  0.995161  0  0  0.105476  0.077314  0  1.000288  0
H  H18  1  0.19239490  0.17509459  0.23984864  1  0  0.08496  0  0.955216  0  0  0.10033  0  1.018143  0  0  0.101596  0  1.017325  0  0  0.114168  0.099334  0  1.018745  0
H  H19  1  0.80762810  0.82492267  0.76016156  1  0  0.085215  0  0.95502  0  0  0.100553  0  1.01797  0  0  0.10183  0  1.017149  0  0  0.114231  0.099555  0  1.018571  0
H  H20  1  0.12258422  0.15166160  0.96552920  1  0  0.069436  0  0.954648  0  0  0.088345  0  1.016807  0  0  0.088343  0  1.018421  0  0  0.092013  0.088246  0  1.015845  0
H  H21  1  0.87742621  0.84835568  0.03447523  1  0  0.069443  0  0.95469  0  0  0.088342  0  1.016886  0  0  0.088347  0  1.018491  0  0  0.092004  0.088239  0  1.015921  0
H  H22  1  0.12927415  0.94470877  0.96160116  1  0  0.08086  0  0.931088  0  0  0.098851  0  0.991777  0  0  0.099205  0  0.993344  0  0  0.095159  0.098544  0  0.990691  0
H  H23  1  0.87073703  0.05528381  0.03840237  1  0  0.080921  0  0.931161  0  0  0.098875  0  0.99189  0  0  0.099237  0  0.993456  0  0  0.095169  0.098564  0  0.990799  0
H  H24  1  0.26846246  0.48793275  0.97788680  1  0  0.096251  0  0.949908  0  0  0.107708  0  1.008785  0  0  0.110668  0  1.007487  0  0  0.099962  0.105371  0  1.010122  0
H  H25  1  0.73154378  0.51205497  0.02210973  1  0  0.096195  0  0.949985  0  0  0.107625  0  1.008889  0  0  0.110586  0  1.007586  0  0  0.099928  0.10529  0  1.010227  0
H  H26  1  0.20988317  0.39996417  0.18745528  1  0  0.080782  0  0.994849  0  0  0.094294  0  1.055644  0  0  0.096232  0  1.055456  0  0  0.09777  0.092781  0  1.056065  0
H  H27  1  0.79009560  0.60001964  0.81253452  1  0  0.080709  0  0.994807  0  0  0.094218  0  1.055615  0  0  0.096155  0  1.055426  0  0  0.097759  0.092706  0  1.056032  0
C  C28  1  0.08203809  0.94882902  0.38649995  1  0  -0.412183  0  3.698055  0  0  -0.49364  0  3.927422  0  0  -0.499075  0  3.934156  0  0  -0.236053  -0.489607  0  3.923345  0
C  C29  1  0.91796641  0.05118892  0.61350129  1  0  -0.412116  0  3.698024  0  0  -0.493479  0  3.927461  0  0  -0.498923  0  3.934187  0  0  -0.235976  -0.489448  0  3.923379  0
C  C30  1  0.21530707  0.90807985  0.35434681  1  0  0.417775  0  3.68079  0  0  0.39021  0  3.950436  0  0  0.410081  0  3.963675  0  0  0.235514  0.376722  0  3.941219  0
C  C31  1  0.78468513  0.09193396  0.64564955  1  0  0.417626  0  3.680657  0  0  0.389888  0  3.950412  0  0  0.409761  0  3.963654  0  0  0.235458  0.376403  0  3.941188  0
C  C32  1  0.39189722  0.89817666  0.25123469  1  0  0.100338  0  3.810969  0  0  0.088527  0  4.059513  0  0  0.091994  0  4.082233  0  0  0.09014  0.086357  0  4.044116  0
C  C33  1  0.60810281  0.10182543  0.74875919  1  0  0.10039  0  3.810802  0  0  0.088503  0  4.059412  0  0  0.091972  0  4.082126  0  0  0.090148  0.086334  0  4.044016  0
C  C34  1  0.48928012  0.91721006  0.17088600  1  0  -0.154355  0  3.787499  0  0  -0.175007  0  4.048979  0  0  -0.177327  0  4.068125  0  0  -0.096531  -0.173555  0  4.035722  0
C  C35  1  0.51070571  0.08277984  0.82910580  1  0  -0.154342  0  3.787448  0  0  -0.174982  0  4.048928  0  0  -0.177304  0  4.068085  0  0  -0.096513  -0.173529  0  4.035669  0
C  C36  1  0.59257812  0.81868459  0.18996510  1  0  -0.070426  0  3.7887  0  0  -0.085915  0  4.041104  0  0  -0.088123  0  4.063944  0  0  -0.096753  -0.084331  0  4.025793  0
C  C37  1  0.40742067  0.18130917  0.81004453  1  0  -0.07038  0  3.788688  0  0  -0.085792  0  4.041041  0  0  -0.088028  0  4.06389  0  0  -0.096741  -0.08421  0  4.02573  0
C  C38  1  0.60243744  0.70921915  0.28876793  1  0  -0.080925  0  3.76093  0  0  -0.093209  0  4.006259  0  0  -0.096192  0  4.029576  0  0  -0.09618  -0.09095  0  3.990679  0
C  C39  1  0.39757624  0.29076897  0.71124122  1  0  -0.081021  0  3.761382  0  0  -0.093349  0  4.006668  0  0  -0.096331  0  4.029978  0  0  -0.096237  -0.09109  0  3.99109  0
C  C40  1  0.50859719  0.69487646  0.37191030  1  0  -0.131296  0  3.742843  0  0  -0.147369  0  3.990554  0  0  -0.150194  0  4.010873  0  0  -0.090069  -0.145738  0  3.976874  0
C  C41  1  0.49137804  0.30510776  0.62807720  1  0  -0.13144  0  3.742963  0  0  -0.147525  0  3.990718  0  0  -0.150354  0  4.011047  0  0  -0.090193  -0.145891  0  3.977035  0
C  C42  1  0.40067782  0.78926554  0.35108999  1  0  0.150323  0  3.84894  0  0  0.143371  0  4.095996  0  0  0.147732  0  4.120707  0  0  0.084362  0.140692  0  4.07914  0
C  C43  1  0.59930896  0.21073262  0.64889280  1  0  0.150418  0  3.848882  0  0  0.143372  0  4.096076  0  0  0.147735  0  4.120786  0  0  0.084448  0.140692  0  4.079219  0
C  C44  1  0.23958691  0.10605456  0.18093648  1  0  0.010118  0  3.618037  0  0  -0.050942  0  3.873979  0  0  -0.046062  0  3.884268  0  0  -0.0515  -0.053969  0  3.866959  0
C  C45  1  0.76043181  0.89394534  0.81907418  1  0  0.009848  0  3.617981  0  0  -0.051265  0  3.873923  0  0  -0.046417  0  3.884263  0  0  -0.051544  -0.054297  0  3.866898  0
C  C46  1  0.10032417  0.03966231  0.01531598  1  0  -0.12519  0  3.649546  0  0  -0.167068  0  3.911166  0  0  -0.168481  0  3.925041  0  0  -0.164601  -0.165996  0  3.901712  0
C  C47  1  0.89966104  0.96033320  0.98467097  1  0  -0.125149  0  3.650074  0  0  -0.167037  0  3.911692  0  0  -0.168464  0  3.925585  0  0  -0.16466  -0.165937  0  3.902218  0
C  C48  1  0.06482526  0.60744136  0.75672259  1  0  0.611264  0  3.970422  0  0  0.563186  0  4.256545  0  0  0.597585  0  4.250837  0  0  0.181264  0.540518  0  4.258776  0
C  C49  1  0.93516024  0.39253356  0.24326641  1  0  0.61109  0  3.970494  0  0  0.563005  0  4.25663  0  0  0.597401  0  4.250923  0  0  0.181205  0.54034  0  4.258856  0
C  C50  1  0.03272406  0.55087772  0.88261711  1  0  -0.051502  0  3.740797  0  0  -0.028692  0  3.972255  0  0  -0.035201  0  3.994541  0  0  -0.021169  -0.024344  0  3.956792  0
C  C51  1  0.96724955  0.44908895  0.11736501  1  0  -0.051476  0  3.740844  0  0  -0.028599  0  3.972198  0  0  -0.035109  0  3.994483  0  0  -0.021164  -0.024253  0  3.956736  0
C  C52  1  0.15003046  0.49114087  0.98716751  1  0  -0.078207  0  3.739553  0  0  -0.101098  0  3.988509  0  0  -0.101975  0  4.009327  0  0  -0.091463  -0.10038  0  3.974539  0
C  C53  1  0.84999281  0.50889825  0.01284385  1  0  -0.078052  0  3.739532  0  0  -0.100932  0  3.988433  0  0  -0.101811  0  4.009252  0  0  -0.091361  -0.100214  0  3.974465  0
C  C54  1  0.11704403  0.44155239  0.10312247  1  0  -0.080213  0  3.762433  0  0  -0.101115  0  4.005547  0  0  -0.102591  0  4.028106  0  0  -0.089699  -0.100021  0  3.990232  0
C  C55  1  0.88295427  0.55845391  0.89687585  1  0  -0.080158  0  3.762288  0  0  -0.101024  0  4.0054  0  0  -0.102506  0  4.027973  0  0  -0.089738  -0.099929  0  3.990088  0
N  N56  1  0.28923620  0.79871797  0.41317637  1  0  -0.460924  0  3.29094  0  0  -0.385783  0  3.594014  0  0  -0.411545  0  3.608674  0  0  -0.378867  -0.368614  0  3.583582  0
N  N57  1  0.71074619  0.20129837  0.58681052  1  0  -0.460876  0  3.290858  0  0  -0.385647  0  3.593972  0  0  -0.411408  0  3.608633  0  0  -0.378915  -0.368482  0  3.583544  0
N  N58  1  0.27431247  0.97148732  0.25614522  1  0  -0.172181  0  3.46308  0  0  -0.085442  0  3.682824  0  0  -0.103448  0  3.706389  0  0  -0.240373  -0.073674  0  3.666799  0
N  N59  1  0.72569929  0.02853253  0.74386083  1  0  -0.172174  0  3.462969  0  0  -0.085159  0  3.682479  0  0  -0.103162  0  3.706067  0  0  -0.240323  -0.07339  0  3.666449  0
O  O60  1  0.97005646  0.67873132  0.67472905  1  0  -0.648466  0  1.938511  0  0  -0.59679  0  2.175092  0  0  -0.620792  0  2.163998  0  0  -0.338873  -0.580235  0  2.181797  0
O  O61  1  0.02995395  0.32126417  0.32526846  1  0  -0.648391  0  1.938304  0  0  -0.596721  0  2.174889  0  0  -0.620722  0  2.163796  0  0  -0.338883  -0.580167  0  2.181591  0
O  O62  1  0.19280655  0.57662965  0.74175126  1  0  -0.642553  0  2.088145  0  0  -0.55709  0  2.356712  0  0  -0.589816  0  2.344751  0  0  -0.354729  -0.534252  0  2.363468  0
O  O63  1  0.80721093  0.42336614  0.25826753  1  0  -0.642461  0  2.088322  0  0  -0.557002  0  2.3569  0  0  -0.589724  0  2.344936  0  0  -0.354662  -0.534165  0  2.363654  0
