# generated using pymatgen
data_Zn2H14C16N4O7
_symmetry_space_group_name_H-M   'P 1'
_cell_length_a   8.56863743
_cell_length_b   9.93194548
_cell_length_c   13.88913060
_cell_angle_alpha   105.30732927
_cell_angle_beta   100.54983061
_cell_angle_gamma   92.79706770
_symmetry_Int_Tables_number   1
_chemical_formula_structural   Zn2H14C16N4O7
_chemical_formula_sum   'Zn4 H28 C32 N8 O14'
_cell_volume   1114.90866960
_cell_formula_units_Z   2
loop_
 _symmetry_equiv_pos_site_id
 _symmetry_equiv_pos_as_xyz
  1  'x, y, z'
loop_
 _atom_site_type_symbol
 _atom_site_label
 _atom_site_symmetry_multiplicity
 _atom_site_fract_x
 _atom_site_fract_y
 _atom_site_fract_z
 _atom_site_occupancy
 _atom_site_pbe_bader_charge
 _atom_site_pbe_bader_spin_density
 _atom_site_pbe_cm5_charge
 _atom_site_pbe_ddec_charge
 _atom_site_pbe_ddec_spin_density
 _atom_site_pbe_ddec_sum_bond_order
 _atom_site_pbe_magmom
Zn  Zn0  1  0.33994062  0.64091276  0.65380259  1  1.261431  0  0.655497  0.818415  0  2.446741  0
Zn  Zn1  1  0.66007120  0.35909501  0.34620600  1  1.261443  0  0.655533  0.818537  0  2.446669  0
Zn  Zn2  1  0.33973138  0.41586870  0.46730171  1  1.376096  0  0.67197  0.92427  0  2.518108  0
Zn  Zn3  1  0.66029287  0.58412664  0.53273720  1  1.375919  0  0.671965  0.924313  0  2.517855  0
H  H4  1  0.87294091  0.77007954  0.30491848  1  0.052199  0  0.09979  0.115756  0  0.972705  0
H  H5  1  0.97769632  0.34519486  0.71864504  1  0.042686  0  0.098149  0.112816  0  0.991236  0
H  H6  1  0.02230183  0.65480235  0.28134757  1  0.042834  0  0.098111  0.112768  0  0.991232  0
H  H7  1  0.76652487  0.53955655  0.74093636  1  0.150534  0  0.129835  0.111633  0  0.972736  0
H  H8  1  0.11945108  0.15463850  0.39253175  1  0.132555  0  0.123967  0.095657  0  1.01235  0
H  H9  1  0.30284351  0.92117861  0.11758538  1  0.11472  0  0.118552  0.129057  0  0.993946  0
H  H10  1  0.23351674  0.46045760  0.25908957  1  0.150039  0  0.129787  0.111559  0  0.972758  0
H  H11  1  0.99083088  0.12852795  0.51504564  1  0.046754  0  0.095119  0.106302  0  1.007821  0
H  H12  1  0.00915766  0.87145983  0.48494828  1  0.046905  0  0.095134  0.106361  0  1.007801  0
H  H13  1  0.62171785  0.75438308  0.02796112  1  0.12512  0  0.121526  0.135086  0  0.974426  0
H  H14  1  0.15379860  0.87329135  0.40916834  1  0.037627  0  0.098705  0.114993  0  0.983184  0
H  H15  1  0.59780732  0.04338324  0.61028356  1  0.059022  0  0.094669  0.103163  0  1.008949  0
H  H16  1  0.50462529  0.93058353  0.72570145  1  0.150274  0  0.129126  0.103687  0  0.997151  0
H  H17  1  0.84619512  0.12670170  0.59083083  1  0.037565  0  0.098701  0.114941  0  0.983218  0
H  H18  1  0.69714057  0.07885644  0.88242531  1  0.110526  0  0.118536  0.129014  0  0.993969  0
H  H19  1  0.40215864  0.95652245  0.38964544  1  0.05813  0  0.094646  0.103194  0  1.009106  0
H  H20  1  0.96608529  0.66044645  0.90596260  1  0.082889  0  0.114473  0.122027  0  0.982413  0
H  H21  1  0.49535625  0.06945153  0.27431252  1  0.150049  0  0.129218  0.103721  0  0.997102  0
H  H22  1  0.43070845  0.61847023  0.86400590  1  0.12649  0  0.129443  0.106857  0  0.965491  0
H  H23  1  0.91616610  0.02119141  0.23609015  1  0.117067  0  0.11401  0.121669  0  1.011527  0
H  H24  1  0.56929339  0.38155539  0.13600827  1  0.126213  0  0.12935  0.106713  0  0.965513  0
H  H25  1  0.03394416  0.33959283  0.09405916  1  0.083259  0  0.114508  0.122131  0  0.982316  0
H  H26  1  0.08384399  0.97882786  0.76391025  1  0.117699  0  0.114036  0.12171  0  1.011604  0
H  H27  1  0.60944241  0.00556196  0.42399679  1  0.068015  0  0.100231  0.120406  0  0.993539  0
H  H28  1  0.88056812  0.84535875  0.60747011  1  0.132221  0  0.123963  0.095592  0  1.012474  0
H  H29  1  0.37828799  0.24564356  0.97204729  1  0.125141  0  0.12151  0.135084  0  0.974395  0
H  H30  1  0.39051814  0.99435323  0.57594477  1  0.067566  0  0.100249  0.120372  0  0.993623  0
H  H31  1  0.12705728  0.22990929  0.69507618  1  0.052826  0  0.099781  0.115813  0  0.972635  0
C  C32  1  0.07346079  0.80391090  0.43290365  1  -0.025665  0  -0.162506  -0.267753  0  3.929728  0
C  C33  1  0.16095220  0.36236668  0.24858246  1  0.47872  0  0.06362  0.111132  0  3.906049  0
C  C34  1  0.98550919  0.11682280  0.23788832  1  -0.005055  0  -0.07141  -0.174674  0  3.908907  0
C  C35  1  0.53375785  0.89698798  0.79497525  1  0.440136  0  0.060577  0.112392  0  3.90187  0
C  C36  1  0.64012867  0.97776405  0.88090262  1  0.019407  0  -0.070669  -0.18233  0  3.912225  0
C  C37  1  0.96289439  0.17088665  0.15326814  1  0.269397  0  0.09989  0.1904  0  4.032895  0
C  C38  1  0.40304772  0.20471434  0.03814307  1  -0.028287  0  -0.071182  -0.188263  0  3.928904  0
C  C39  1  0.92653279  0.19608004  0.56709296  1  -0.025607  0  -0.162442  -0.267515  0  3.929703  0
C  C40  1  0.59695027  0.79531756  0.96186816  1  -0.027408  0  -0.071142  -0.188237  0  3.928779  0
C  C41  1  0.82379319  0.28211594  0.50932125  1  1.588012  0  0.210349  0.642062  0  4.114208  0
C  C42  1  0.01450209  0.88319859  0.76211767  1  0.005242  0  -0.071404  -0.174768  0  3.909036  0
C  C43  1  0.50887017  0.95814860  0.44736566  1  -0.03464  0  -0.164356  -0.270292  0  3.931873  0
C  C44  1  0.67340878  0.92539131  0.96618676  1  0.341813  0  0.101763  0.193843  0  4.04605  0
C  C45  1  0.95851212  0.70844538  0.33970062  1  -0.01542  0  -0.163421  -0.275285  0  3.945774  0
C  C46  1  0.54168247  0.80501993  0.44310209  1  1.604338  0  0.210996  0.621465  0  4.144082  0
C  C47  1  0.03711772  0.82914315  0.84674239  1  0.268737  0  0.099783  0.19046  0  4.032765  0
C  C48  1  0.90335993  0.81025565  0.67609796  1  0.498262  0  0.060249  0.118927  0  3.908493  0
C  C49  1  0.35985540  0.02227205  0.11911115  1  0.015234  0  -0.070759  -0.182505  0  3.912224  0
C  C50  1  0.45829157  0.19490690  0.55686141  1  1.605126  0  0.210672  0.620854  0  4.145087  0
C  C51  1  0.83908048  0.63764952  0.75143619  1  0.478998  0  0.063666  0.111096  0  3.905882  0
C  C52  1  0.13949296  0.40140449  0.63157198  1  1.582559  0  0.216838  0.653349  0  4.098013  0
C  C53  1  0.49229859  0.72104668  0.87265877  1  0.46846  0  0.059887  0.105414  0  3.924314  0
C  C54  1  0.05176340  0.29596199  0.15895934  1  0.063514  0  -0.069607  -0.177224  0  3.918384  0
C  C55  1  0.94826347  0.70406364  0.84105597  1  0.063987  0  -0.069575  -0.177241  0  3.918358  0
C  C56  1  0.50769873  0.27897998  0.12735284  1  0.469321  0  0.060009  0.105564  0  3.924408  0
C  C57  1  0.04148762  0.29154660  0.66029483  1  -0.015843  0  -0.163445  -0.275503  0  3.945785  0
C  C58  1  0.32658955  0.07464374  0.03382581  1  0.341681  0  0.101831  0.193819  0  4.046056  0
C  C59  1  0.09665796  0.18975211  0.32390855  1  0.508575  0  0.060145  0.118694  0  3.908431  0
C  C60  1  0.86051087  0.59858120  0.36842140  1  1.582278  0  0.216826  0.653166  0  4.098302  0
C  C61  1  0.49108727  0.04176761  0.55256920  1  -0.059119  0  -0.164382  -0.269985  0  3.93194  0
C  C62  1  0.17620079  0.71788026  0.49068071  1  1.58782  0  0.210348  0.642053  0  4.114373  0
C  C63  1  0.46622905  0.10304183  0.20503773  1  0.440727  0  0.060403  0.112361  0  3.901828  0
N  N64  1  0.18258303  0.30931129  0.32882782  1  -1.189854  0  -0.301053  -0.179608  0  3.476712  0
N  N65  1  0.85466793  0.10662823  0.05999004  1  -0.458356  0  -0.13432  -0.117776  0  3.236027  0
N  N66  1  0.21958931  0.00726705  0.94100336  1  -0.448498  0  -0.137021  -0.128105  0  3.259111  0
N  N67  1  0.46167627  0.77111278  0.79082320  1  -1.229641  0  -0.320627  -0.213518  0  3.537802  0
N  N68  1  0.53831733  0.22891283  0.20918845  1  -1.229876  0  -0.320592  -0.213489  0  3.53779  0
N  N69  1  0.81744513  0.69069545  0.67118561  1  -1.190599  0  -0.301261  -0.1798  0  3.476615  0
N  N70  1  0.78041698  0.99276379  0.05900660  1  -0.448101  0  -0.137132  -0.128317  0  3.259075  0
N  N71  1  0.14533632  0.89340576  0.94002095  1  -0.457562  0  -0.13438  -0.117915  0  3.236313  0
O  O72  1  0.52123433  0.72226020  0.35519446  1  -1.031899  0  -0.272043  -0.436464  0  1.972328  0
O  O73  1  0.47870650  0.27763417  0.64477813  1  -1.032224  0  -0.271948  -0.43626  0  1.972392  0
O  O74  1  0.84406431  0.62801963  0.46000882  1  -1.163608  0  -0.29657  -0.533908  0  2.345669  0
O  O75  1  0.15595298  0.37195033  0.53998632  1  -1.164138  0  -0.296597  -0.534019  0  2.345915  0
O  O76  1  0.77554801  0.22817876  0.41186844  1  -1.180832  0  -0.337406  -0.569605  0  2.289868  0
O  O77  1  0.58871509  0.78096272  0.52872243  1  -1.172863  0  -0.316041  -0.555145  0  2.3311  0
O  O78  1  0.51134379  0.47624434  0.40324853  1  -0.945007  0  -0.461901  -0.720508  0  1.948653  0
O  O79  1  0.80194022  0.48516271  0.29888867  1  -1.181929  0  -0.330659  -0.558768  0  2.265083  0
O  O80  1  0.20742308  0.60138021  0.44067239  1  -1.18014  0  -0.297974  -0.540913  0  2.295373  0
O  O81  1  0.79257028  0.39861287  0.55933395  1  -1.180765  0  -0.298026  -0.540957  0  2.295381  0
O  O82  1  0.41131674  0.21901973  0.47125243  1  -1.173177  0  -0.316025  -0.555037  0  2.331394  0
O  O83  1  0.48865573  0.52377184  0.59676432  1  -0.945268  0  -0.462058  -0.720674  0  1.949069  0
O  O84  1  0.19804913  0.51482924  0.70109965  1  -1.181532  0  -0.330582  -0.558709  0  2.264756  0
O  O85  1  0.22444827  0.77182583  0.58813248  1  -1.181241  0  -0.337423  -0.569598  0  2.289928  0
