# generated using pymatgen
data_U2H24C25N8O17
_symmetry_space_group_name_H-M   'P 1'
_cell_length_a   11.56521444
_cell_length_b   14.70585868
_cell_length_c   19.90619095
_cell_angle_alpha   90.00009283
_cell_angle_beta   89.99985460
_cell_angle_gamma   100.30382904
_symmetry_Int_Tables_number   1
_chemical_formula_structural   U2H24C25N8O17
_chemical_formula_sum   'U8 H96 C100 N32 O68'
_cell_volume   3330.97462631
_cell_formula_units_Z   4
loop_
 _symmetry_equiv_pos_site_id
 _symmetry_equiv_pos_as_xyz
  1  'x, y, z'
loop_
 _atom_site_type_symbol
 _atom_site_label
 _atom_site_symmetry_multiplicity
 _atom_site_fract_x
 _atom_site_fract_y
 _atom_site_fract_z
 _atom_site_occupancy
 _atom_site_pbe_bader_charge
 _atom_site_pbe_bader_spin_density
 _atom_site_pbe_cm5_charge
 _atom_site_pbe_ddec_charge
 _atom_site_pbe_ddec_spin_density
 _atom_site_pbe_ddec_sum_bond_order
 _atom_site_pbe_magmom
U  U0  1  0.26652577  0.14288708  0.46759362  1  2.863226  0  2.145565  2.347549  0  4.852431  0
U  U1  1  0.23347500  0.35711005  0.96758998  1  2.863169  0  2.145613  2.347339  0  4.852703  0
U  U2  1  0.73347398  0.85711185  0.53240620  1  2.863185  0  2.145516  2.347298  0  4.852857  0
U  U3  1  0.76652617  0.64288751  0.03240934  1  2.863119  0  2.145561  2.347431  0  4.852745  0
U  U4  1  0.74716347  0.40431755  0.38740480  1  2.915122  0  2.163233  2.481608  0  4.8203  0
U  U5  1  0.75283486  0.09568552  0.88740685  1  2.914622  0  2.163139  2.481575  0  4.820261  0
U  U6  1  0.25284091  0.59568278  0.61259150  1  2.915009  0  2.163309  2.481685  0  4.82017  0
U  U7  1  0.24716056  0.90431340  0.11259447  1  2.914529  0  2.163136  2.481625  0  4.820053  0
H  H8  1  0.35427280  0.47517650  0.47684816  1  0.099886  0  0.126647  0.133434  0  0.990027  0
H  H9  1  0.14572014  0.02482063  0.97685179  1  0.099905  0  0.126631  0.133433  0  0.990159  0
H  H10  1  0.64572664  0.52482105  0.52315015  1  0.099681  0  0.126655  0.133451  0  0.990107  0
H  H11  1  0.85427695  0.97517416  0.02315004  1  0.099779  0  0.126657  0.133491  0  0.990096  0
H  H12  1  0.42736300  0.46572449  0.40001069  1  0.175638  0  0.128737  0.149904  0  0.995644  0
H  H13  1  0.07262806  0.03427044  0.90001193  1  0.175522  0  0.128715  0.149827  0  0.995625  0
H  H14  1  0.57263557  0.53427306  0.59998761  1  0.175589  0  0.128735  0.149852  0  0.995649  0
H  H15  1  0.92737083  0.96572849  0.09998738  1  0.175546  0  0.12872  0.149853  0  0.995634  0
H  H16  1  0.09600038  0.38791122  0.43929365  1  0.103396  0  0.123386  0.129967  0  0.95149  0
H  H17  1  0.40399261  0.11208930  0.93929700  1  0.103393  0  0.123376  0.129879  0  0.951481  0
H  H18  1  0.90399856  0.61209186  0.56070567  1  0.103283  0  0.123384  0.13  0  0.951523  0
H  H19  1  0.59600840  0.88790756  0.06070633  1  0.103326  0  0.123412  0.129997  0  0.95148  0
H  H20  1  0.07365477  0.48816590  0.39516675  1  0.150244  0  0.131941  0.139513  0  0.986816  0
H  H21  1  0.42633973  0.01183662  0.89516693  1  0.15037  0  0.131975  0.139543  0  0.986709  0
H  H22  1  0.92634560  0.51183579  0.60483056  1  0.150319  0  0.131979  0.139606  0  0.986705  0
H  H23  1  0.57366042  0.98816025  0.10483539  1  0.15039  0  0.131986  0.139609  0  0.986612  0
H  H24  1  0.93489316  0.38410761  0.25743855  1  0.108745  0  0.116759  0.105666  0  1.038182  0
H  H25  1  0.56509988  0.11589247  0.75743738  1  0.10862  0  0.116787  0.105699  0  1.038105  0
H  H26  1  0.06510578  0.61589547  0.74256327  1  0.108745  0  0.116769  0.105685  0  1.038102  0
H  H27  1  0.43490286  0.88410440  0.24256294  1  0.108599  0  0.116753  0.1057  0  1.038128  0
H  H28  1  0.86813694  0.43004659  0.18797481  1  0.04831  0  0.123216  0.124384  0  0.961023  0
H  H29  1  0.63185734  0.06994993  0.68797650  1  0.048346  0  0.123208  0.124325  0  0.961044  0
H  H30  1  0.13186398  0.56995373  0.81202450  1  0.048339  0  0.123206  0.124322  0  0.960975  0
H  H31  1  0.36814398  0.93004832  0.31202381  1  0.048399  0  0.123215  0.124333  0  0.960988  0
H  H32  1  0.10585851  0.56686390  0.12024828  1  0.022198  0  0.111108  0.09937  0  0.986583  0
H  H33  1  0.39413697  0.93312882  0.62025002  1  0.022267  0  0.111152  0.099409  0  0.986627  0
H  H34  1  0.89413732  0.43313295  0.87974902  1  0.022378  0  0.111095  0.099342  0  0.986596  0
H  H35  1  0.60586456  0.06687427  0.37974779  1  0.022192  0  0.11119  0.099398  0  0.98664  0
H  H36  1  0.96584534  0.50023490  0.10422646  1  0.121523  0  0.127973  0.139861  0  0.982311  0
H  H37  1  0.53415039  0.99975765  0.60422831  1  0.121407  0  0.128004  0.139873  0  0.982327  0
H  H38  1  0.03415302  0.49975781  0.89577134  1  0.121517  0  0.127978  0.139876  0  0.982255  0
H  H39  1  0.46585130  0.00024612  0.39577100  1  0.12143  0  0.12801  0.139924  0  0.982257  0
H  H40  1  0.38145305  0.48985042  0.09999252  1  0.148612  0  0.136051  0.142341  0  0.989498  0
H  H41  1  0.11854625  0.01015232  0.59999416  1  0.148602  0  0.136054  0.142343  0  0.989532  0
H  H42  1  0.61854842  0.51014852  0.90000629  1  0.148549  0  0.136039  0.142318  0  0.989532  0
H  H43  1  0.88145733  0.98985215  0.40000665  1  0.148626  0  0.136067  0.142365  0  0.98953  0
H  H44  1  0.46564904  0.40059698  0.10560121  1  0.116215  0  0.119021  0.135689  0  0.983374  0
H  H45  1  0.03435064  0.09940369  0.60560208  1  0.116178  0  0.119012  0.13569  0  0.983337  0
H  H46  1  0.53435534  0.59940335  0.89439860  1  0.116226  0  0.118995  0.13567  0  0.983329  0
H  H47  1  0.96564753  0.90059593  0.39439874  1  0.116209  0  0.119002  0.135686  0  0.983358  0
H  H48  1  0.55405110  0.50040851  0.28270641  1  0.11368  0  0.120211  0.113459  0  1.038749  0
H  H49  1  0.94594403  0.99959263  0.78270665  1  0.113754  0  0.120205  0.113463  0  1.03872  0
H  H50  1  0.44594621  0.49959111  0.71729340  1  0.113665  0  0.120236  0.113526  0  1.038671  0
H  H51  1  0.05405745  0.00040631  0.21729367  1  0.113756  0  0.120205  0.11347  0  1.038742  0
H  H52  1  0.63864894  0.50872773  0.20813408  1  0.069067  0  0.12433  0.12613  0  0.973676  0
H  H53  1  0.86134924  0.99127399  0.70813393  1  0.069067  0  0.124345  0.126151  0  0.973743  0
H  H54  1  0.36135127  0.49127328  0.79186724  1  0.069062  0  0.124331  0.126132  0  0.973743  0
H  H55  1  0.13865224  0.00872495  0.29186589  1  0.06902  0  0.124336  0.126123  0  0.973756  0
H  H56  1  0.89037454  0.68299035  0.29250875  1  0.547603  0  0.321408  0.282068  0  0.96272  0
H  H57  1  0.60962605  0.81701220  0.79250977  1  0.547591  0  0.321428  0.28201  0  0.962884  0
H  H58  1  0.10962827  0.31701067  0.70748955  1  0.547648  0  0.321417  0.282064  0  0.96278  0
H  H59  1  0.39037104  0.18298258  0.20749155  1  0.547722  0  0.32146  0.282059  0  0.962932  0
H  H60  1  0.62083792  0.22447466  0.19772008  1  0.559239  0  0.319282  0.283223  0  0.971161  0
H  H61  1  0.87916488  0.27552534  0.69771914  1  0.559259  0  0.319245  0.283174  0  0.97122  0
H  H62  1  0.37915882  0.77552633  0.80228074  1  0.559328  0  0.319297  0.28323  0  0.971122  0
H  H63  1  0.12083700  0.72447153  0.30228268  1  0.559264  0  0.319274  0.283206  0  0.971175  0
H  H64  1  0.53005540  0.28358106  0.45053600  1  0.686135  0  0.314097  0.416049  0  0.915345  0
H  H65  1  0.96994120  0.21641934  0.95053586  1  0.68617  0  0.314112  0.416113  0  0.915266  0
H  H66  1  0.46994481  0.71641994  0.54946482  1  0.686124  0  0.3141  0.416078  0  0.915299  0
H  H67  1  0.03005818  0.78357406  0.04946395  1  0.686191  0  0.314122  0.416088  0  0.915313  0
H  H68  1  0.61568801  0.20976604  0.44307490  1  0.648626  0  0.350344  0.438064  0  0.839781  0
H  H69  1  0.88431025  0.29023781  0.94307698  1  0.648571  0  0.35035  0.43806  0  0.839764  0
H  H70  1  0.38430976  0.79023565  0.55692291  1  0.6486  0  0.350337  0.438029  0  0.839808  0
H  H71  1  0.11569799  0.70976046  0.05691931  1  0.649085  0  0.350378  0.438033  0  0.839773  0
H  H72  1  0.21696194  0.73760407  0.40726654  1  0.195787  0  0.149826  0.13226  0  0.939204  0
H  H73  1  0.28303745  0.76240018  0.90726523  1  0.195887  0  0.149822  0.132271  0  0.939249  0
H  H74  1  0.78304469  0.26240248  0.59273528  1  0.195993  0  0.149834  0.132315  0  0.939117  0
H  H75  1  0.71696041  0.23759805  0.09273559  1  0.196072  0  0.149818  0.13231  0  0.939147  0
H  H76  1  0.43372987  0.73505561  0.41116266  1  0.150738  0  0.124554  0.146438  0  1.004827  0
H  H77  1  0.06627287  0.76495212  0.91116418  1  0.15069  0  0.124539  0.146421  0  1.004942  0
H  H78  1  0.56628186  0.26495441  0.58883716  1  0.150664  0  0.124502  0.14643  0  1.004825  0
H  H79  1  0.93372632  0.23504820  0.08883765  1  0.150784  0  0.12454  0.146432  0  1.004875  0
H  H80  1  0.41608178  0.67327465  0.19805958  1  0.140282  0  0.129688  0.149019  0  0.973158  0
H  H81  1  0.08391222  0.82671682  0.69805864  1  0.139271  0  0.129647  0.148977  0  0.973196  0
H  H82  1  0.58392072  0.32672499  0.80194123  1  0.140234  0  0.129645  0.148933  0  0.973262  0
H  H83  1  0.91608336  0.17328279  0.30194318  1  0.13914  0  0.129639  0.148939  0  0.973227  0
H  H84  1  0.20052672  0.68148619  0.20343948  1  0.153708  0  0.144884  0.112718  0  0.980616  0
H  H85  1  0.29946685  0.81850735  0.70343821  1  0.153737  0  0.144888  0.112746  0  0.980624  0
H  H86  1  0.79947516  0.31851067  0.79656284  1  0.154169  0  0.14488  0.112679  0  0.980677  0
H  H87  1  0.70052980  0.18149710  0.29656311  1  0.153873  0  0.144883  0.112751  0  0.980637  0
H  H88  1  0.58470498  0.66370610  0.40786052  1  0.145526  0  0.125334  0.140391  0  1.001351  0
H  H89  1  0.91529601  0.83629664  0.90785809  1  0.145633  0  0.125269  0.140286  0  1.001449  0
H  H90  1  0.41530180  0.33630114  0.59214181  1  0.145647  0  0.125291  0.140409  0  1.001362  0
H  H91  1  0.08469976  0.16369606  0.09214273  1  0.145508  0  0.125268  0.140356  0  1.001433  0
H  H92  1  0.79835692  0.65539369  0.39753593  1  0.170795  0  0.149141  0.123  0  0.969052  0
H  H93  1  0.70164473  0.84461180  0.89753433  1  0.170771  0  0.149157  0.123004  0  0.96907  0
H  H94  1  0.20164823  0.34461010  0.60246439  1  0.1708  0  0.149164  0.123005  0  0.969017  0
H  H95  1  0.29835190  0.15538091  0.10246649  1  0.170758  0  0.149193  0.123049  0  0.969087  0
H  H96  1  0.80709730  0.73629716  0.19782926  1  0.186812  0  0.142748  0.118049  0  0.995313  0
H  H97  1  0.69290148  0.76370316  0.69783159  1  0.186781  0  0.142752  0.118023  0  0.995336  0
H  H98  1  0.19290551  0.26370386  0.80216905  1  0.186872  0  0.142771  0.118071  0  0.9953  0
H  H99  1  0.30709623  0.23629439  0.30216973  1  0.18686  0  0.14277  0.118064  0  0.995263  0
H  H100  1  0.59535701  0.74953978  0.19847645  1  0.148436  0  0.128286  0.15009  0  0.980394  0
H  H101  1  0.90463824  0.75045639  0.69847595  1  0.148472  0  0.128275  0.150126  0  0.98044  0
H  H102  1  0.40464335  0.25046192  0.80152336  1  0.148421  0  0.128288  0.150068  0  0.98036  0
H  H103  1  0.09535891  0.24954254  0.30152235  1  0.148412  0  0.128275  0.15008  0  0.980496  0
C  C104  1  0.33167220  0.33792986  0.43657419  1  1.554258  0  0.225002  0.619403  0  4.104517  0
C  C105  1  0.16831358  0.16206926  0.93657393  1  1.553661  0  0.224984  0.619344  0  4.104058  0
C  C106  1  0.66831920  0.66207043  0.56342512  1  1.55374  0  0.224924  0.619334  0  4.104206  0
C  C107  1  0.83168515  0.83792899  0.06342840  1  1.553672  0  0.224907  0.619218  0  4.10409  0
C  C108  1  0.15627597  0.51564004  0.49116548  1  1.535567  0  0.203592  0.608079  0  4.161163  0
C  C109  1  0.34371926  0.98435882  0.99116886  1  1.535784  0  0.203489  0.607982  0  4.161109  0
C  C110  1  0.84372359  0.48436580  0.50883283  1  1.535271  0  0.203575  0.608136  0  4.161074  0
C  C111  1  0.65627972  0.01563666  0.00883447  1  1.535424  0  0.203568  0.608135  0  4.161066  0
C  C112  1  0.92384748  0.52628722  0.26685832  1  1.587831  0  0.233864  0.65459  0  4.104848  0
C  C113  1  0.57615550  0.97371391  0.76685907  1  1.587502  0  0.233824  0.654582  0  4.104673  0
C  C114  1  0.07615381  0.47371862  0.73313948  1  1.587238  0  0.233767  0.654495  0  4.104755  0
C  C115  1  0.42384551  0.02628295  0.23314175  1  1.587459  0  0.233806  0.654603  0  4.104541  0
C  C116  1  0.10959168  0.44464403  0.06505130  1  1.544165  0  0.202125  0.600221  0  4.175675  0
C  C117  1  0.39040764  0.05535036  0.56505461  1  1.543823  0  0.202041  0.600015  0  4.175571  0
C  C118  1  0.89040776  0.55535352  0.93494650  1  1.54406  0  0.202049  0.600054  0  4.175634  0
C  C119  1  0.60959736  0.94465273  0.43494420  1  1.543647  0  0.201975  0.600001  0  4.175447  0
C  C120  1  0.56532298  0.53519483  0.09075559  1  1.525278  0  0.206741  0.603128  0  4.155182  0
C  C121  1  0.93468030  0.96480809  0.59075128  1  1.525112  0  0.206647  0.602966  0  4.155388  0
C  C122  1  0.43467865  0.46480480  0.90924623  1  1.525161  0  0.206712  0.603061  0  4.155293  0
C  C123  1  0.06532337  0.03519293  0.40924703  1  1.525224  0  0.206695  0.603057  0  4.155315  0
C  C124  1  0.57849353  0.37023002  0.24158544  1  1.570557  0  0.234334  0.6572  0  4.085677  0
C  C125  1  0.92150641  0.12977350  0.74158377  1  1.570373  0  0.234307  0.657153  0  4.085557  0
C  C126  1  0.42150307  0.62977029  0.75841638  1  1.570217  0  0.234302  0.657096  0  4.085911  0
C  C127  1  0.07849538  0.87022682  0.25841705  1  1.570461  0  0.234309  0.657178  0  4.085664  0
C  C128  1  0.34510463  0.44162140  0.42731883  1  0.262243  0  -0.052346  -0.21985  0  3.878921  0
C  C129  1  0.15488551  0.05837771  0.92732148  1  0.262464  0  -0.05241  -0.219882  0  3.878816  0
C  C130  1  0.65489298  0.55837960  0.57268048  1  0.262544  0  -0.052345  -0.219774  0  3.878885  0
C  C131  1  0.84511566  0.94161985  0.07267984  1  0.262549  0  -0.05245  -0.219934  0  3.878945  0
C  C132  1  0.13587861  0.45965440  0.42703667  1  0.276546  0  -0.052325  -0.206208  0  3.874006  0
C  C133  1  0.36411530  0.04034610  0.92703949  1  0.276241  0  -0.052319  -0.206041  0  3.873544  0
C  C134  1  0.86412181  0.54035144  0.57296164  1  0.276622  0  -0.052345  -0.206347  0  3.873756  0
C  C135  1  0.63588540  0.95964938  0.07296183  1  0.276527  0  -0.052382  -0.206245  0  3.87373  0
C  C136  1  0.94154980  0.44384643  0.22376714  1  0.337883  0  -0.054117  -0.226433  0  3.953602  0
C  C137  1  0.55844261  0.05615014  0.72376792  1  0.338026  0  -0.054098  -0.226338  0  3.953514  0
C  C138  1  0.05845127  0.55615458  0.77623016  1  0.337827  0  -0.054091  -0.226247  0  3.953338  0
C  C139  1  0.44155872  0.94384811  0.27623189  1  0.338087  0  -0.054087  -0.226386  0  3.953484  0
C  C140  1  0.05580604  0.49582804  0.11975295  1  0.353964  0  -0.049691  -0.185888  0  3.889484  0
C  C141  1  0.44418954  0.00416229  0.61975561  1  0.353869  0  -0.049663  -0.185821  0  3.889339  0
C  C142  1  0.94419309  0.50416813  0.88024385  1  0.353752  0  -0.049655  -0.185767  0  3.889179  0
C  C143  1  0.55581271  0.99584011  0.38024470  1  0.353908  0  -0.049795  -0.186006  0  3.889301  0
C  C144  1  0.46209022  0.47157407  0.12110498  1  0.295674  0  -0.055547  -0.21548  0  3.882592  0
C  C145  1  0.03791067  0.02842457  0.62110475  1  0.295753  0  -0.055519  -0.215472  0  3.882716  0
C  C146  1  0.53791126  0.52842487  0.87889433  1  0.295822  0  -0.05549  -0.215409  0  3.882596  0
C  C147  1  0.96209096  0.97157506  0.37889657  1  0.295581  0  -0.055515  -0.215456  0  3.882639  0
C  C148  1  0.55981328  0.47001193  0.23290128  1  0.321021  0  -0.057233  -0.234209  0  3.920892  0
C  C149  1  0.94018277  0.02998950  0.73289946  1  0.320699  0  -0.05724  -0.234235  0  3.921051  0
C  C150  1  0.44018591  0.52998838  0.76710104  1  0.321069  0  -0.057231  -0.234244  0  3.921038  0
C  C151  1  0.05981902  0.97001083  0.26710035  1  0.320703  0  -0.057248  -0.234218  0  3.921062  0
C  C152  1  0.24629794  0.46081518  0.32220890  1  1.560191  0  0.343818  0.487418  0  4.139859  0
C  C153  1  0.25369624  0.03918446  0.82221088  1  1.560028  0  0.343926  0.487595  0  4.139932  0
C  C154  1  0.75370085  0.53918720  0.67779091  1  1.5602  0  0.343776  0.487404  0  4.140012  0
C  C155  1  0.74630499  0.96081724  0.17778994  1  1.559902  0  0.344012  0.487815  0  4.139673  0
C  C156  1  0.15322742  0.46159658  0.22244503  1  1.508662  0  0.338754  0.473696  0  4.147669  0
C  C157  1  0.34676796  0.03839875  0.72244687  1  1.508228  0  0.338807  0.473709  0  4.147667  0
C  C158  1  0.84677304  0.53840166  0.77755328  1  1.508112  0  0.338808  0.473878  0  4.14746  0
C  C159  1  0.65323524  0.96160019  0.27755395  1  1.508248  0  0.338775  0.473675  0  4.147717  0
C  C160  1  0.35043224  0.47025220  0.22515209  1  1.53728  0  0.33944  0.475906  0  4.151343  0
C  C161  1  0.14956477  0.02974660  0.72515270  1  1.537915  0  0.339506  0.476117  0  4.151273  0
C  C162  1  0.64956899  0.52974950  0.77484722  1  1.53735  0  0.339467  0.475997  0  4.151436  0
C  C163  1  0.85043803  0.97025442  0.27484812  1  1.537905  0  0.339541  0.476259  0  4.151249  0
C  C164  1  0.26641071  0.72364965  0.36315510  1  0.389478  0  0.082721  0.113487  0  3.833944  0
C  C165  1  0.23358620  0.77635038  0.86315538  1  0.389413  0  0.082621  0.113309  0  3.83394  0
C  C166  1  0.73358807  0.27635273  0.63684371  1  0.389267  0  0.082629  0.113334  0  3.833743  0
C  C167  1  0.76641142  0.22365062  0.13684644  1  0.389176  0  0.082712  0.1134  0  3.833734  0
C  C168  1  0.38520146  0.72040687  0.36451639  1  0.063305  0  -0.057188  -0.142284  0  3.871366  0
C  C169  1  0.11480125  0.77959595  0.86451786  1  0.063249  0  -0.057137  -0.142147  0  3.871386  0
C  C170  1  0.61480391  0.27960175  0.63548292  1  0.063345  0  -0.057115  -0.142131  0  3.87133  0
C  C171  1  0.88519763  0.22040298  0.13548447  1  0.06335  0  -0.057191  -0.142182  0  3.87141  0
C  C172  1  0.44285121  0.70455343  0.30466812  1  -0.027259  0  0.034583  0.123826  0  3.918768  0
C  C173  1  0.05714405  0.79544581  0.80466718  1  -0.027049  0  0.034625  0.123813  0  3.918748  0
C  C174  1  0.55714961  0.29545034  0.69533370  1  -0.027303  0  0.034543  0.123754  0  3.918871  0
C  C175  1  0.94284980  0.20455380  0.19533263  1  -0.027358  0  0.034566  0.123686  0  3.918893  0
C  C176  1  0.37624050  0.68803685  0.24540821  1  0.037345  0  -0.0572  -0.147146  0  3.880426  0
C  C177  1  0.12375503  0.81195469  0.74540719  1  0.038125  0  -0.057103  -0.14695  0  3.880262  0
C  C178  1  0.62376199  0.31196278  0.75459211  1  0.037471  0  -0.057109  -0.147056  0  3.880424  0
C  C179  1  0.87624258  0.18804631  0.25459363  1  0.038522  0  -0.057057  -0.14689  0  3.880444  0
C  C180  1  0.25757816  0.69122338  0.24707863  1  0.459954  0  0.085023  0.122494  0  3.854198  0
C  C181  1  0.24242114  0.80876957  0.74707894  1  0.460088  0  0.084981  0.122349  0  3.854223  0
C  C182  1  0.74243009  0.30877489  0.75292018  1  0.459381  0  0.085099  0.122653  0  3.854289  0
C  C183  1  0.75757820  0.19123144  0.25292288  1  0.459842  0  0.084956  0.122388  0  3.854291  0
C  C184  1  0.57072912  0.70562633  0.30336944  1  0.022679  0  0.030968  0.11057  0  3.92341  0
C  C185  1  0.92927035  0.79437140  0.80336896  1  0.022609  0  0.030907  0.110448  0  3.92344  0
C  C186  1  0.42927471  0.29437538  0.69663087  1  0.022743  0  0.03102  0.110577  0  3.923306  0
C  C187  1  0.07072878  0.20562477  0.19663036  1  0.022889  0  0.031018  0.110576  0  3.923291  0
C  C188  1  0.62972279  0.68156593  0.36046519  1  0.023639  0  -0.049086  -0.132567  0  3.868826  0
C  C189  1  0.87027808  0.81843535  0.86046432  1  0.023515  0  -0.049007  -0.132355  0  3.868745  0
C  C190  1  0.37027905  0.31843853  0.63953412  1  0.023329  0  -0.04904  -0.132552  0  3.86876  0
C  C191  1  0.12971768  0.18155736  0.13953600  1  0.023409  0  -0.049053  -0.132466  0  3.8687  0
C  C192  1  0.74791616  0.67685714  0.35627595  1  0.466242  0  0.097391  0.135415  0  3.822439  0
C  C193  1  0.75208158  0.82314551  0.85627526  1  0.466441  0  0.097455  0.135416  0  3.822268  0
C  C194  1  0.25208593  0.32314457  0.64372487  1  0.466266  0  0.097352  0.13535  0  3.822403  0
C  C195  1  0.24791623  0.17684858  0.14372506  1  0.46644  0  0.097446  0.135396  0  3.822267  0
C  C196  1  0.75312363  0.72286551  0.24260179  1  0.428268  0  0.080385  0.114244  0  3.826721  0
C  C197  1  0.74687450  0.77713280  0.74260256  1  0.428311  0  0.080418  0.114316  0  3.826782  0
C  C198  1  0.24687856  0.27713274  0.75739702  1  0.428287  0  0.080354  0.114192  0  3.826797  0
C  C199  1  0.25312351  0.22286613  0.25739726  1  0.428303  0  0.080423  0.114279  0  3.826746  0
C  C200  1  0.63519623  0.72863185  0.24400446  1  0.028367  0  -0.056147  -0.13761  0  3.874578  0
C  C201  1  0.86480063  0.77136854  0.74400203  1  0.02832  0  -0.056129  -0.137701  0  3.874695  0
C  C202  1  0.36480759  0.27136986  0.75599535  1  0.028432  0  -0.05618  -0.13758  0  3.874638  0
C  C203  1  0.13519729  0.22863384  0.25599728  1  0.028313  0  -0.056196  -0.137658  0  3.87461  0
N  N204  1  0.14317624  0.45653703  0.28985622  1  -1.212687  0  -0.350445  -0.530235  0  3.275466  0
N  N205  1  0.35681909  0.04346325  0.78985906  1  -1.21197  0  -0.350606  -0.530425  0  3.275518  0
N  N206  1  0.85682413  0.54346467  0.71014158  1  -1.212104  0  -0.350445  -0.530322  0  3.275546  0
N  N207  1  0.64318412  0.95653570  0.21014226  1  -1.211988  0  -0.350624  -0.530522  0  3.27563  0
N  N208  1  0.25387516  0.47147935  0.18711424  1  -1.21936  0  -0.346536  -0.527722  0  3.262235  0
N  N209  1  0.24612046  0.02851247  0.68711622  1  -1.219879  0  -0.346579  -0.527861  0  3.262473  0
N  N210  1  0.74612341  0.52851820  0.81288507  1  -1.219389  0  -0.346569  -0.527827  0  3.262277  0
N  N211  1  0.75388275  0.97148648  0.31288510  1  -1.219948  0  -0.346591  -0.527905  0  3.262513  0
N  N212  1  0.35132322  0.46268554  0.29255121  1  -1.248288  0  -0.358072  -0.547797  0  3.301857  0
N  N213  1  0.14866966  0.03731543  0.79255084  1  -1.248254  0  -0.358117  -0.547952  0  3.301989  0
N  N214  1  0.64867888  0.53731617  0.70744960  1  -1.248296  0  -0.35806  -0.547776  0  3.301975  0
N  N215  1  0.85133213  0.96268489  0.20744898  1  -1.24828  0  -0.358141  -0.548023  0  3.301797  0
N  N216  1  0.24608144  0.46525646  0.39080867  1  -1.143652  0  -0.271768  -0.080587  0  3.616222  0
N  N217  1  0.25391089  0.03474398  0.89080964  1  -1.143868  0  -0.271657  -0.080537  0  3.615949  0
N  N218  1  0.75391648  0.53474592  0.60919014  1  -1.143797  0  -0.271747  -0.080623  0  3.615935  0
N  N219  1  0.74608769  0.96525357  0.10919068  1  -1.143642  0  -0.271711  -0.080763  0  3.616175  0
N  N220  1  0.05069571  0.45604720  0.18661404  1  -1.156221  0  -0.274645  -0.086393  0  3.622247  0
N  N221  1  0.44929630  0.04394392  0.68661674  1  -1.156474  0  -0.274726  -0.086414  0  3.622233  0
N  N222  1  0.94930215  0.54395104  0.81338326  1  -1.156312  0  -0.274744  -0.086671  0  3.62224  0
N  N223  1  0.55070289  0.95605640  0.31338357  1  -1.156425  0  -0.274671  -0.08626  0  3.622101  0
N  N224  1  0.45691830  0.47940603  0.19368492  1  -1.194665  0  -0.269612  -0.072291  0  3.622638  0
N  N225  1  0.04307741  0.02059409  0.69368417  1  -1.194686  0  -0.269591  -0.072242  0  3.622527  0
N  N226  1  0.54308105  0.52059497  0.80631489  1  -1.194668  0  -0.269629  -0.07231  0  3.62274  0
N  N227  1  0.95692310  0.97940830  0.30631614  1  -1.194695  0  -0.269619  -0.072366  0  3.622586  0
N  N228  1  0.20665719  0.71005604  0.30493204  1  -1.285042  0  -0.330198  -0.117316  0  3.680297  0
N  N229  1  0.29334051  0.78994252  0.80493024  1  -1.285152  0  -0.330178  -0.117247  0  3.680134  0
N  N230  1  0.79334648  0.28994498  0.69506878  1  -1.284992  0  -0.330188  -0.117385  0  3.680194  0
N  N231  1  0.70665710  0.21005848  0.19507058  1  -1.285167  0  -0.330163  -0.117318  0  3.680158  0
N  N232  1  0.80501703  0.69623854  0.29784184  1  -1.265192  0  -0.328598  -0.107868  0  3.68548  0
N  N233  1  0.69498094  0.80376402  0.79784271  1  -1.265291  0  -0.328718  -0.107871  0  3.685635  0
N  N234  1  0.19498475  0.30376179  0.70215898  1  -1.265198  0  -0.328596  -0.107852  0  3.685521  0
N  N235  1  0.30501584  0.19622938  0.20215811  1  -1.26538  0  -0.328792  -0.107979  0  3.685834  0
O  O236  1  0.35802138  0.11461203  0.39918567  1  -0.897417  0  -0.775131  -0.737208  0  1.872637  0
O  O237  1  0.14197809  0.38538568  0.89918370  1  -0.897454  0  -0.775133  -0.737117  0  1.872639  0
O  O238  1  0.64197827  0.88539035  0.60081364  1  -0.897414  0  -0.775086  -0.73714  0  1.872655  0
O  O239  1  0.85801168  0.61461116  0.10081410  1  -0.897331  0  -0.77515  -0.737074  0  1.872995  0
O  O240  1  0.17866292  0.18156835  0.53321600  1  -0.866704  0  -0.763749  -0.69661  0  1.868181  0
O  O241  1  0.32133765  0.31842323  0.03321123  1  -0.866641  0  -0.763737  -0.696575  0  1.868204  0
O  O242  1  0.82133581  0.81842989  0.46678733  1  -0.866628  0  -0.763763  -0.696547  0  1.868351  0
O  O243  1  0.67865885  0.68158053  0.96678406  1  -0.866775  0  -0.763622  -0.696671  0  1.868044  0
O  O244  1  0.85328261  0.32906685  0.37370843  1  -0.882217  0  -0.766639  -0.723261  0  1.788967  0
O  O245  1  0.64670734  0.17094100  0.87370972  1  -0.881826  0  -0.766554  -0.723242  0  1.789021  0
O  O246  1  0.14671506  0.67093829  0.62628887  1  -0.882163  0  -0.766606  -0.72332  0  1.788696  0
O  O247  1  0.35328534  0.82905722  0.12629612  1  -0.881776  0  -0.766566  -0.723304  0  1.788861  0
O  O248  1  0.63426695  0.47296481  0.40513860  1  -0.89977  0  -0.764469  -0.731085  0  1.845827  0
O  O249  1  0.86572574  0.02703275  0.90513940  1  -0.899704  0  -0.764519  -0.731145  0  1.845758  0
O  O250  1  0.36572460  0.52703617  0.59485920  1  -0.89974  0  -0.764612  -0.731105  0  1.846166  0
O  O251  1  0.13426983  0.97296687  0.09485991  1  -0.8998  0  -0.764484  -0.731106  0  1.845744  0
O  O252  1  0.40208795  0.30306781  0.47506817  1  -1.192847  0  -0.335883  -0.614691  0  2.239907  0
O  O253  1  0.09790413  0.19692931  0.97507308  1  -1.192508  0  -0.335863  -0.61465  0  2.23984  0
O  O254  1  0.59790386  0.69693041  0.52492913  1  -1.192488  0  -0.335835  -0.614663  0  2.239875  0
O  O255  1  0.90209602  0.80306755  0.02493126  1  -1.192453  0  -0.335799  -0.614554  0  2.239814  0
O  O256  1  0.24771981  0.28529545  0.40749030  1  -1.151655  0  -0.332784  -0.562326  0  2.272954  0
O  O257  1  0.25226231  0.21470223  0.90748496  1  -1.151345  0  -0.332806  -0.562246  0  2.272677  0
O  O258  1  0.75226971  0.71470415  0.59251102  1  -1.151507  0  -0.332754  -0.562261  0  2.272732  0
O  O259  1  0.74773886  0.78529533  0.09251737  1  -1.151389  0  -0.332776  -0.56216  0  2.27258  0
O  O260  1  0.11787048  0.47925642  0.54711090  1  -1.15018  0  -0.35014  -0.597515  0  2.175572  0
O  O261  1  0.38213014  0.02074347  0.04711271  1  -1.150013  0  -0.350113  -0.597456  0  2.175517  0
O  O262  1  0.88212134  0.52075354  0.45288641  1  -1.150033  0  -0.350132  -0.597489  0  2.175427  0
O  O263  1  0.61787001  0.97925339  0.95289062  1  -1.150066  0  -0.350109  -0.597489  0  2.175545  0
O  O264  1  0.21726412  0.59725259  0.49043857  1  -1.150109  0  -0.35355  -0.611485  0  2.199551  0
O  O265  1  0.28273899  0.90274284  0.99043994  1  -1.150197  0  -0.353458  -0.611451  0  2.199499  0
O  O266  1  0.78274205  0.40275189  0.50955772  1  -1.149877  0  -0.353542  -0.611514  0  2.199719  0
O  O267  1  0.71726283  0.09724988  0.00956289  1  -1.150055  0  -0.353532  -0.611504  0  2.199489  0
O  O268  1  0.84045934  0.50758623  0.31125160  1  -1.161925  0  -0.417323  -0.677714  0  2.379088  0
O  O269  1  0.65954132  0.99241704  0.81125626  1  -1.161343  0  -0.417279  -0.677673  0  2.378917  0
O  O270  1  0.15954046  0.49241685  0.68874369  1  -1.161343  0  -0.417278  -0.677641  0  2.378869  0
O  O271  1  0.34045669  0.00758189  0.18874606  1  -1.161457  0  -0.417236  -0.677673  0  2.378889  0
O  O272  1  0.98178098  0.60518886  0.25786213  1  -1.173577  0  -0.293348  -0.515234  0  2.144698  0
O  O273  1  0.51821827  0.89481086  0.75786739  1  -1.173687  0  -0.293295  -0.51516  0  2.144596  0
O  O274  1  0.01822418  0.39481492  0.74213567  1  -1.173438  0  -0.293261  -0.515158  0  2.144584  0
O  O275  1  0.48178132  0.10518738  0.24213242  1  -1.173583  0  -0.293334  -0.515227  0  2.144568  0
O  O276  1  0.18215389  0.49265761  0.02496978  1  -1.147094  0  -0.353329  -0.57876  0  2.194699  0
O  O277  1  0.31784377  0.00734016  0.52497163  1  -1.1468  0  -0.35335  -0.578725  0  2.194715  0
O  O278  1  0.81785003  0.50734064  0.97503054  1  -1.147031  0  -0.35331  -0.578695  0  2.194727  0
O  O279  1  0.68215981  0.99266431  0.47502819  1  -1.146795  0  -0.353329  -0.578753  0  2.194605  0
O  O280  1  0.08020484  0.35730652  0.05616459  1  -1.151644  0  -0.354269  -0.609738  0  2.21417  0
O  O281  1  0.41979539  0.14268786  0.55617097  1  -1.151426  0  -0.354192  -0.609669  0  2.214057  0
O  O282  1  0.91979389  0.64269172  0.94383120  1  -1.151483  0  -0.354205  -0.609645  0  2.214039  0
O  O283  1  0.58020630  0.85731591  0.44382784  1  -1.151291  0  -0.354086  -0.609522  0  2.214037  0
O  O284  1  0.62073577  0.50464935  0.04258710  1  -1.123273  0  -0.35485  -0.560981  0  2.198002  0
O  O285  1  0.87926929  0.99535280  0.54258492  1  -1.123297  0  -0.354855  -0.56092  0  2.198099  0
O  O286  1  0.37926806  0.49535236  0.95741322  1  -1.123341  0  -0.35481  -0.560939  0  2.198002  0
O  O287  1  0.12073479  0.00464615  0.45741440  1  -1.123202  0  -0.354902  -0.561054  0  2.198085  0
O  O288  1  0.59885677  0.61788087  0.11183448  1  -1.149177  0  -0.346624  -0.58833  0  2.200467  0
O  O289  1  0.90113528  0.88211860  0.61182912  1  -1.149093  0  -0.346513  -0.588196  0  2.200514  0
O  O290  1  0.40113896  0.38211944  0.88816583  1  -1.14917  0  -0.346614  -0.58827  0  2.200547  0
O  O291  1  0.09886534  0.11788034  0.38817019  1  -1.149115  0  -0.346512  -0.588192  0  2.200499  0
O  O292  1  0.53201390  0.30893157  0.20148987  1  -1.166381  0  -0.296028  -0.520326  0  2.147071  0
O  O293  1  0.96797958  0.19107325  0.70148318  1  -1.166301  0  -0.296012  -0.520321  0  2.146901  0
O  O294  1  0.46797892  0.69106734  0.79851245  1  -1.166414  0  -0.296069  -0.520338  0  2.147112  0
O  O295  1  0.03201921  0.80892914  0.29851714  1  -1.166367  0  -0.29603  -0.520332  0  2.147008  0
O  O296  1  0.64785562  0.35467049  0.28967143  1  -1.179003  0  -0.407873  -0.682382  0  2.353508  0
O  O297  1  0.85214412  0.14533311  0.78967289  1  -1.178676  0  -0.407846  -0.682325  0  2.353403  0
O  O298  1  0.35214545  0.64533052  0.71032788  1  -1.178636  0  -0.407806  -0.682305  0  2.353612  0
O  O299  1  0.14785232  0.85466650  0.21032693  1  -1.17859  0  -0.407862  -0.682365  0  2.353509  0
O  O300  1  0.60879377  0.27348249  0.43403353  1  -1.284699  0  -0.599855  -0.834447  0  2.05051  0
O  O301  1  0.89120366  0.22652135  0.93403202  1  -1.284664  0  -0.59988  -0.834506  0  2.05044  0
O  O302  1  0.39120721  0.72652198  0.56596829  1  -1.284685  0  -0.599867  -0.834453  0  2.050472  0
O  O303  1  0.10879547  0.77347482  0.06596830  1  -1.285221  0  -0.599912  -0.834457  0  2.050526  0
