# generated using pymatgen
data_ZnH6C18Br3NO5
_symmetry_space_group_name_H-M   'P 1'
_cell_length_a   11.75238764
_cell_length_b   13.14359702
_cell_length_c   16.16837440
_cell_angle_alpha   89.89697662
_cell_angle_beta   85.16371136
_cell_angle_gamma   85.83822132
_symmetry_Int_Tables_number   1
_chemical_formula_structural   ZnH6C18Br3NO5
_chemical_formula_sum   'Zn2 H12 C36 Br6 N2 O10'
_cell_volume   2482.02929644
_cell_formula_units_Z   2
loop_
 _symmetry_equiv_pos_site_id
 _symmetry_equiv_pos_as_xyz
  1  'x, y, z'
loop_
 _atom_site_type_symbol
 _atom_site_label
 _atom_site_symmetry_multiplicity
 _atom_site_fract_x
 _atom_site_fract_y
 _atom_site_fract_z
 _atom_site_occupancy
 _atom_site_pbe_bader_charge
 _atom_site_pbe_bader_spin_density
 _atom_site_pbe_cm5_charge
 _atom_site_pbe_ddec_charge
 _atom_site_pbe_ddec_spin_density
 _atom_site_pbe_ddec_sum_bond_order
 _atom_site_pbe_magmom
Zn  Zn0  1  0.61679412  0.50175713  0.49074099  1  1.290907  0  0.665994  0.805307  0  2.458432  0
Zn  Zn1  1  0.38319522  0.49774594  0.50884018  1  1.279817  0  0.66601  0.804818  0  2.458932  0
H  H2  1  0.35793227  0.17960306  0.50551867  1  0.094147  0  0.104569  0.110672  0  1.007065  0
H  H3  1  0.21974184  0.36664342  0.60689539  1  0.190403  0  0.141547  0.12472  0  0.965125  0
H  H4  1  0.90746745  0.31322910  0.64016123  1  0.044016  0  0.114319  0.051967  0  0.959458  0
H  H5  1  0.09435200  0.66889996  0.34486788  1  0.09036  0  0.114548  0.052681  0  0.957765  0
H  H6  1  0.64182507  0.81988232  0.49384980  1  0.09314  0  0.10479  0.110308  0  1.007024  0
H  H7  1  0.72470800  0.17326083  0.49315203  1  0.122868  0  0.10033  0.103513  0  1.006296  0
H  H8  1  0.27509011  0.82617545  0.50640297  1  0.096185  0  0.100719  0.104267  0  1.00604  0
H  H9  1  0.26139227  0.01664714  0.50752186  1  0.058717  0  0.103368  0.10425  0  0.99293  0
H  H10  1  0.73828804  0.98277194  0.49194422  1  0.061426  0  0.10339  0.104019  0  0.99352  0
H  H11  1  0.80725890  0.40672432  0.56936297  1  0.144029  0  0.134855  0.107287  0  0.996991  0
H  H12  1  0.19255060  0.59222688  0.42985368  1  0.14348  0  0.135131  0.10815  0  0.993653  0
H  H13  1  0.78066270  0.63121923  0.39146747  1  0.150533  0  0.141013  0.123553  0  0.963832  0
C  C14  1  0.46836944  0.69874740  0.49937670  1  1.515107  0  0.21743  0.598398  0  4.157379  0
C  C15  1  0.44497456  0.02778674  0.50170270  1  -0.070951  0  -0.002126  0.079661  0  4.003366  0
C  C16  1  0.04554018  0.39987850  0.57651940  1  -0.002886  0  0.001828  -0.049765  0  3.945907  0
C  C17  1  0.95516439  0.59673758  0.42096669  1  -0.033076  0  0.001905  -0.049013  0  3.945625  0
C  C18  1  0.16189773  0.41245788  0.56992522  1  0.465472  0  0.081294  0.090411  0  3.829286  0
C  C19  1  0.83854457  0.58539525  0.42840965  1  0.503432  0  0.081557  0.091788  0  3.829204  0
C  C20  1  0.14619035  0.53964484  0.46996736  1  0.557103  0  0.093395  0.092573  0  3.818763  0
C  C21  1  0.85400943  0.45823126  0.52850418  1  0.563876  0  0.093144  0.093711  0  3.818295  0
C  C22  1  0.02615741  0.53402427  0.47092765  1  0.020577  0  0.022276  0.025636  0  3.959308  0
C  C23  1  0.97436076  0.46245560  0.52653210  1  -0.018428  0  0.022481  0.025088  0  3.958279  0
C  C24  1  0.49451429  0.50040848  0.33748037  1  1.661153  0  0.220967  0.667062  0  4.236732  0
C  C25  1  0.53151776  0.30070017  0.50004362  1  1.530682  0  0.217878  0.60015  0  4.154696  0
C  C26  1  0.50549066  0.49920950  0.66200457  1  1.651661  0  0.220834  0.666299  0  4.23476  0
C  C27  1  0.50250283  0.59683778  0.97047179  1  0.002163  0  -0.008668  0.038612  0  3.637211  0
C  C28  1  0.49755087  0.40292382  0.02902336  1  0.007644  0  -0.00779  0.03815  0  3.641099  0
C  C29  1  0.40421355  0.55619756  0.03074944  1  0.018505  0  -0.010932  0.037134  0  3.641548  0
C  C30  1  0.59584234  0.44354496  0.96874500  1  0.015626  0  -0.011269  0.036589  0  3.643209  0
C  C31  1  0.49344170  0.50142191  0.24807041  1  0.167423  0  -0.031694  -0.14926  0  3.937723  0
C  C32  1  0.50652933  0.49836639  0.75140810  1  0.150051  0  -0.031819  -0.149076  0  3.936426  0
C  C33  1  0.59450713  0.54216155  0.02357624  1  0.01627  0  -0.010826  0.035594  0  3.645496  0
C  C34  1  0.40552270  0.45760027  0.97591709  1  0.013697  0  -0.012107  0.033823  0  3.646899  0
C  C35  1  0.49618533  0.50181096  0.08570016  1  0.121296  0  0.002189  0.074819  0  3.81056  0
C  C36  1  0.34452153  0.97338766  0.50443969  1  -0.007617  0  -0.088954  -0.13288  0  4.002246  0
C  C37  1  0.50388473  0.49795048  0.91378545  1  0.134104  0  0.002307  0.073935  0  3.807827  0
C  C38  1  0.49330130  0.50208381  0.17286861  1  -0.383015  0  -0.04691  -0.04779  0  4.117469  0
C  C39  1  0.50669794  0.49770345  0.82661086  1  -0.369125  0  -0.045777  -0.045988  0  4.114022  0
C  C40  1  0.53958089  0.18671577  0.49982348  1  0.015999  0  -0.019007  -0.031556  0  3.982363  0
C  C41  1  0.46017557  0.81274987  0.49969846  1  0.007865  0  -0.018543  -0.029854  0  3.981201  0
C  C42  1  0.00142534  0.32104605  0.63495427  1  0.987599  0  0.112263  0.272972  0  3.950465  0
C  C43  1  0.00005709  0.67298964  0.36042919  1  0.969127  0  0.111897  0.271168  0  3.95158  0
C  C44  1  0.65520537  0.02607519  0.49501703  1  -0.088712  0  -0.088056  -0.131025  0  3.998542  0
C  C45  1  0.35165848  0.86845343  0.50366859  1  -0.079622  0  -0.089437  -0.099473  0  4.007342  0
C  C46  1  0.64808884  0.13100620  0.49586498  1  -0.090329  0  -0.089618  -0.09969  0  4.006385  0
C  C47  1  0.55933584  0.86394115  0.49667221  1  0.046968  0  -0.076229  -0.130534  0  3.924782  0
C  C48  1  0.44041239  0.13551385  0.50276360  1  0.037406  0  -0.075915  -0.130456  0  3.924981  0
C  C49  1  0.55477714  0.97165756  0.49772117  1  -0.052306  0  -0.00203  0.080671  0  4.001246  0
Br  Br50  1  0.27137457  0.63458117  0.07383516  1  -0.017384  0  0.020196  -0.047075  0  1.348349  0
Br  Br51  1  0.72872255  0.36527378  0.92568970  1  -0.015823  0  0.020905  -0.045613  0  1.348272  0
Br  Br52  1  0.50592446  0.73105531  0.92915935  1  -0.013764  0  0.027599  -0.036953  0  1.347798  0
Br  Br53  1  0.49414228  0.26880077  0.07051126  1  -0.012325  0  0.027363  -0.036797  0  1.349035  0
Br  Br54  1  0.27500911  0.39908094  0.94190991  1  -0.012174  0  0.026585  -0.037717  0  1.351185  0
Br  Br55  1  0.72509604  0.60065574  0.05751200  1  -0.012057  0  0.025408  -0.039393  0  1.350619  0
N  N56  1  0.79040901  0.51717851  0.48103226  1  -1.218258  0  -0.301814  -0.162486  0  3.504598  0
N  N57  1  0.20980493  0.48143406  0.51792810  1  -1.222316  0  -0.301643  -0.160336  0  3.505056  0
O  O58  1  0.56871056  0.65376606  0.49372088  1  -1.166975  0  -0.320035  -0.555235  0  2.348424  0
O  O59  1  0.93758423  0.73693214  0.32805840  1  -1.053741  0  -0.242368  -0.32154  0  2.077436  0
O  O60  1  0.43120973  0.34569872  0.50568900  1  -1.170236  0  -0.31956  -0.555408  0  2.35018  0
O  O61  1  0.37522055  0.65399526  0.50515275  1  -1.155118  0  -0.31945  -0.545566  0  2.311601  0
O  O62  1  0.62470312  0.34545197  0.49428418  1  -1.156984  0  -0.320533  -0.547377  0  2.310422  0
O  O63  1  0.59256349  0.49904949  0.36560777  1  -1.13857  0  -0.309891  -0.531037  0  2.248267  0
O  O64  1  0.40746711  0.50061856  0.63386955  1  -1.13609  0  -0.30939  -0.529856  0  2.247278  0
O  O65  1  0.39765009  0.50083845  0.37913592  1  -1.147253  0  -0.313639  -0.544491  0  2.258366  0
O  O66  1  0.60239304  0.49864577  0.62035766  1  -1.16041  0  -0.313225  -0.543364  0  2.256653  0
O  O67  1  0.06404653  0.26624730  0.67551696  1  -1.035287  0  -0.243024  -0.32315  0  2.076867  0
