# generated using pymatgen
data_Zn4H45C60N3O13
_symmetry_space_group_name_H-M   'P 1'
_cell_length_a   27.00525384
_cell_length_b   27.14865192
_cell_length_c   27.18569625
_cell_angle_alpha   60.78575649
_cell_angle_beta   60.60342420
_cell_angle_gamma   60.52478116
_symmetry_Int_Tables_number   1
_chemical_formula_structural   Zn4H45C60N3O13
_chemical_formula_sum   'Zn8 H90 C120 N6 O26'
_cell_volume   14296.47228215
_cell_formula_units_Z   2
loop_
 _symmetry_equiv_pos_site_id
 _symmetry_equiv_pos_as_xyz
  1  'x, y, z'
loop_
 _atom_site_type_symbol
 _atom_site_label
 _atom_site_symmetry_multiplicity
 _atom_site_fract_x
 _atom_site_fract_y
 _atom_site_fract_z
 _atom_site_occupancy
 _atom_site_pbe_bader_charge
 _atom_site_pbe_bader_spin_density
 _atom_site_pbe_cm5_charge
 _atom_site_pbe_ddec_charge
 _atom_site_pbe_ddec_spin_density
 _atom_site_pbe_ddec_sum_bond_order
 _atom_site_pbe_magmom
Zn  Zn0  1  0.03312670  0.03954447  0.90245224  1  1.32693  0  0.673279  0.970202  0  2.377554  0
Zn  Zn1  1  0.03449099  0.04146000  0.01892210  1  1.312012  0  0.672316  0.969636  0  2.369161  0
Zn  Zn2  1  0.03647725  0.92362129  0.01779974  1  1.319819  0  0.671139  0.966718  0  2.376218  0
Zn  Zn3  1  0.91733359  0.03876820  0.01981814  1  1.302146  0  0.669866  0.965333  0  2.363678  0
Zn  Zn4  1  0.47651434  0.48228076  0.57609568  1  1.322306  0  0.667948  0.96435  0  2.394371  0
Zn  Zn5  1  0.47442628  0.48208008  0.46170433  1  1.323176  0  0.668134  0.96813  0  2.379803  0
Zn  Zn6  1  0.59440235  0.48108607  0.46103195  1  1.30197  0  0.667587  0.970524  0  2.362274  0
Zn  Zn7  1  0.47797350  0.59839363  0.46059420  1  1.305475  0  0.667849  0.969258  0  2.37071  0
H  H8  1  0.19876105  0.08249410  0.91428824  1  0.107376  0  0.107874  0.112399  0  0.989638  0
H  H9  1  0.27698563  0.13235139  0.84453207  1  0.058253  0  0.102326  0.101943  0  1.000693  0
H  H10  1  0.17418237  0.24434088  0.72439895  1  0.071728  0  0.104283  0.104483  0  1.001507  0
H  H11  1  0.09942263  0.19036445  0.79127670  1  0.08751  0  0.10784  0.112143  0  0.989382  0
H  H12  1  0.31557667  0.19854016  0.75608010  1  0.055073  0  0.100162  0.046801  0  0.966093  0
H  H13  1  0.22399579  0.29250610  0.77041234  1  0.396853  0  0.307907  0.255595  0  0.944878  0
H  H14  1  0.24194669  0.37974564  0.74478699  1  0.03903  0  0.098207  0.104467  0  1.001702  0
H  H15  1  0.31192113  0.43908646  0.68029939  1  0.098635  0  0.105894  0.11169  0  0.991035  0
H  H16  1  0.41246876  0.32842033  0.56851022  1  0.068759  0  0.105209  0.113013  0  0.99446  0
H  H17  1  0.34961672  0.26553166  0.58630649  1  0.029298  0  0.102642  0.081165  0  0.939074  0
H  H18  1  0.45300680  0.21104632  0.61422274  1  0.07246  0  0.101368  0.108195  0  1.006306  0
H  H19  1  0.44577810  0.10403192  0.66364010  1  0.052081  0  0.098133  0.100648  0  1.005591  0
H  H20  1  0.33055370  0.11639904  0.72507426  1  0.046126  0  0.088603  0.086586  0  0.997656  0
H  H21  1  0.33903190  0.13381356  0.65061109  1  0.025088  0  0.092969  0.0935  0  0.969077  0
H  H22  1  0.26929045  0.23018471  0.65872394  1  0.027249  0  0.095584  0.064793  0  0.984821  0
H  H23  1  0.06960518  0.82362376  0.91435069  1  0.07921  0  0.107607  0.112192  0  0.990102  0
H  H24  1  0.11813725  0.76409300  0.84582027  1  0.045129  0  0.101908  0.101235  0  1.00105  0
H  H25  1  0.23673360  0.86802009  0.72561520  1  0.080893  0  0.104357  0.104086  0  1.000749  0
H  H26  1  0.18406471  0.93123588  0.79107151  1  0.087881  0  0.108019  0.11252  0  0.988405  0
H  H27  1  0.18622492  0.74410175  0.75844118  1  0.022449  0  0.100196  0.046751  0  0.966502  0
H  H28  1  0.28092274  0.72696113  0.77323459  1  0.416414  0  0.308171  0.25581  0  0.943892  0
H  H29  1  0.36886250  0.64851516  0.74772808  1  0.041689  0  0.09795  0.103792  0  1.00155  0
H  H30  1  0.43040053  0.58476609  0.68197519  1  0.110256  0  0.106026  0.11247  0  0.991461  0
H  H31  1  0.32130180  0.70400534  0.56878543  1  0.058588  0  0.105431  0.112919  0  0.994592  0
H  H32  1  0.25560168  0.80929985  0.58800944  1  0.022406  0  0.102267  0.080214  0  0.939756  0
H  H33  1  0.20178682  0.73117175  0.61723995  1  0.047775  0  0.101599  0.108963  0  1.006711  0
H  H34  1  0.09362300  0.79546369  0.66616959  1  0.055068  0  0.098056  0.100858  0  1.007023  0
H  H35  1  0.10509079  0.84013606  0.72599364  1  0.011038  0  0.088389  0.086327  0  0.999594  0
H  H36  1  0.12373414  0.88616953  0.65099390  1  0.03987  0  0.093256  0.094154  0  0.969986  0
H  H37  1  0.21997914  0.85322957  0.66035626  1  0.018813  0  0.095345  0.064734  0  0.984012  0
H  H38  1  0.81589044  0.20816576  0.91816363  1  0.089639  0  0.107827  0.11227  0  0.990509  0
H  H39  1  0.75841533  0.28761153  0.84835047  1  0.061167  0  0.102127  0.10163  0  1.000846  0
H  H40  1  0.86154310  0.18487689  0.72828446  1  0.063116  0  0.104329  0.104277  0  1.001787  0
H  H41  1  0.92269382  0.10868955  0.79521302  1  0.107096  0  0.107685  0.112412  0  0.990025  0
H  H42  1  0.74064222  0.32699905  0.75955333  1  0.047274  0  0.100168  0.046753  0  0.965502  0
H  H43  1  0.71895504  0.23741687  0.77500509  1  0.423811  0  0.308098  0.255808  0  0.943279  0
H  H44  1  0.63918623  0.25561208  0.74883323  1  0.040979  0  0.098117  0.10369  0  1.003979  0
H  H45  1  0.57629865  0.32397062  0.68240340  1  0.075991  0  0.105796  0.112087  0  0.992328  0
H  H46  1  0.70129187  0.42086560  0.57014640  1  0.097107  0  0.105401  0.113029  0  0.995291  0
H  H47  1  0.80733725  0.35881190  0.58964565  1  0.045092  0  0.10244  0.080189  0  0.938912  0
H  H48  1  0.73335708  0.46193700  0.61760353  1  0.050395  0  0.102091  0.109608  0  1.006005  0
H  H49  1  0.80023884  0.45406036  0.66658552  1  0.065466  0  0.098217  0.100793  0  1.006971  0
H  H50  1  0.84047501  0.33958257  0.72755396  1  0.024059  0  0.088683  0.08708  0  0.997065  0
H  H51  1  0.88731118  0.34753807  0.65277098  1  0.027026  0  0.093146  0.094056  0  0.970126  0
H  H52  1  0.84932288  0.27859326  0.66257668  1  0.027183  0  0.095527  0.064422  0  0.984354  0
H  H53  1  0.20321298  0.82448511  0.05543851  1  0.081119  0  0.107644  0.111993  0  0.990674  0
H  H54  1  0.28118132  0.76584159  0.10593478  1  0.060607  0  0.101887  0.101603  0  1.000772  0
H  H55  1  0.18056039  0.87428467  0.22041940  1  0.057129  0  0.104434  0.10467  0  1.000995  0
H  H56  1  0.10598546  0.93624067  0.16608805  1  0.088624  0  0.108183  0.112897  0  0.989005  0
H  H57  1  0.32031539  0.74845996  0.17322932  1  -0.006437  0  0.100231  0.046637  0  0.966625  0
H  H58  1  0.22824704  0.73124103  0.26597602  1  0.406082  0  0.30819  0.256411  0  0.943321  0
H  H59  1  0.24478278  0.65203277  0.35285211  1  0.030855  0  0.097744  0.103743  0  1.00246  0
H  H60  1  0.31372832  0.58713756  0.41331866  1  0.099526  0  0.105841  0.11221  0  0.991269  0
H  H61  1  0.41732960  0.70587418  0.30731663  1  0.073734  0  0.105307  0.112922  0  0.99582  0
H  H62  1  0.35723754  0.81251690  0.24474176  1  0.04377  0  0.102479  0.080759  0  0.93933  0
H  H63  1  0.45842212  0.73590696  0.18917907  1  0.102428  0  0.101477  0.108597  0  1.005867  0
H  H64  1  0.45158856  0.80207720  0.08250995  1  0.072165  0  0.098077  0.100736  0  1.006338  0
H  H65  1  0.33599802  0.84661559  0.09406708  1  0.034737  0  0.088632  0.086581  0  0.99891  0
H  H66  1  0.34710395  0.89167254  0.11467943  1  0.032175  0  0.092857  0.093371  0  0.968726  0
H  H67  1  0.27586924  0.85701511  0.20939207  1  0.022213  0  0.095457  0.064854  0  0.9837  0
H  H68  1  0.81955613  0.07223411  0.18878097  1  0.087055  0  0.10771  0.112495  0  0.990275  0
H  H69  1  0.76091397  0.12090870  0.26793195  1  0.05288  0  0.1023  0.101914  0  0.999955  0
H  H70  1  0.86225429  0.24216003  0.16594334  1  0.054341  0  0.104341  0.10475  0  1.00083  0
H  H71  1  0.92452119  0.18966191  0.09006110  1  0.093277  0  0.107694  0.112138  0  0.989243  0
H  H72  1  0.74197231  0.18871080  0.30768356  1  0.023541  0  0.100097  0.046648  0  0.965596  0
H  H73  1  0.71837386  0.28187487  0.21901656  1  0.422013  0  0.307966  0.255247  0  0.945091  0
H  H74  1  0.63718766  0.36745462  0.23788054  1  0.035777  0  0.097539  0.10296  0  1.003236  0
H  H75  1  0.57377696  0.42876004  0.30600389  1  0.089123  0  0.105484  0.111749  0  0.992533  0
H  H76  1  0.70023099  0.32702434  0.40125343  1  0.078679  0  0.105439  0.113249  0  0.995763  0
H  H77  1  0.80622850  0.26494748  0.33974943  1  0.039933  0  0.102429  0.08049  0  0.939589  0
H  H78  1  0.73314384  0.20758055  0.44256674  1  0.065246  0  0.101617  0.109141  0  1.006361  0
H  H79  1  0.80165266  0.10108916  0.43453497  1  0.063484  0  0.098475  0.101082  0  1.006092  0
H  H80  1  0.84217514  0.11254565  0.32024222  1  0.022612  0  0.08912  0.087478  0  0.997711  0
H  H81  1  0.88799805  0.13512210  0.32825198  1  0.019809  0  0.093201  0.094368  0  0.969542  0
H  H82  1  0.84889435  0.22930116  0.25956192  1  0.026262  0  0.095503  0.064701  0  0.984762  0
H  H83  1  0.81991865  0.93114192  0.05627354  1  0.098476  0  0.107697  0.112197  0  0.989721  0
H  H84  1  0.76239184  0.86034076  0.10668005  1  0.057127  0  0.102133  0.101771  0  1.001416  0
H  H85  1  0.87191129  0.74342559  0.22030180  1  0.063776  0  0.104352  0.105043  0  1.001153  0
H  H86  1  0.93262350  0.81156186  0.16615430  1  0.095917  0  0.107832  0.112362  0  0.990777  0
H  H87  1  0.74557314  0.77232973  0.17447587  1  0.026196  0  0.099955  0.046608  0  0.965154  0
H  H88  1  0.72902318  0.78971353  0.26702372  1  0.413833  0  0.307632  0.255848  0  0.945018  0
H  H89  1  0.64962164  0.76540867  0.35426557  1  0.036818  0  0.097736  0.103663  0  1.002174  0
H  H90  1  0.58421611  0.70142802  0.41437894  1  0.092977  0  0.105885  0.112065  0  0.99128  0
H  H91  1  0.70435770  0.58595336  0.30756593  1  0.076878  0  0.104912  0.112605  0  0.996783  0
H  H92  1  0.81228359  0.60286638  0.24527430  1  0.029138  0  0.102486  0.080377  0  0.940217  0
H  H93  1  0.73627960  0.62865749  0.19058909  1  0.087519  0  0.101867  0.109952  0  1.0069  0
H  H94  1  0.80157463  0.67589159  0.08348461  1  0.043385  0  0.098018  0.100156  0  1.005767  0
H  H95  1  0.84346637  0.73902576  0.09398757  1  0.023282  0  0.088732  0.087012  0  0.997359  0
H  H96  1  0.89085927  0.66436549  0.11350486  1  0.023516  0  0.092822  0.093731  0  0.969168  0
H  H97  1  0.85605947  0.67565651  0.20842852  1  0.011058  0  0.095645  0.065084  0  0.984076  0
C  C98  1  0.10041941  0.10093280  0.89657298  1  1.546052  0  0.22697  0.608676  0  4.15983  0
C  C99  1  0.14490172  0.13322145  0.85656092  1  -0.018219  0  -0.020544  -0.043809  0  3.991732  0
C  C100  1  0.19431536  0.11742729  0.87217289  1  -0.017893  0  -0.083779  -0.084695  0  3.984787  0
C  C101  1  0.23754128  0.14558138  0.83329903  1  -0.07272  0  -0.09394  -0.148159  0  4.018107  0
C  C102  1  0.23109558  0.19092965  0.77963694  1  -0.023087  0  -0.004553  0.067304  0  3.970216  0
C  C103  1  0.18026546  0.20798785  0.76541143  1  -0.086517  0  -0.089825  -0.131714  0  3.987133  0
C  C104  1  0.13810060  0.17857703  0.80285436  1  -0.000353  0  -0.081929  -0.085424  0  3.979416  0
C  C105  1  0.27850498  0.22061272  0.73740763  1  0.310225  0  0.014978  0.078217  0  3.907557  0
C  C106  1  0.29012589  0.31812308  0.69472773  1  0.389761  0  0.094231  0.199248  0  4.074995  0
C  C107  1  0.27997010  0.36815655  0.70637045  1  0.02583  0  -0.112679  -0.210457  0  4.041119  0
C  C108  1  0.31844310  0.40149636  0.67044973  1  -0.118665  0  -0.088618  -0.079385  0  4.025697  0
C  C109  1  0.36654257  0.38722809  0.62036526  1  0.010324  0  -0.036531  -0.06894  0  4.034212  0
C  C110  1  0.37537030  0.33854036  0.60797939  1  -0.084704  0  -0.085329  -0.132017  0  3.976846  0
C  C111  1  0.33903502  0.30259739  0.64517831  1  0.025576  0  -0.022438  -0.021311  0  3.934525  0
C  C112  1  0.35121512  0.24883305  0.63183473  1  0.032984  0  -0.07575  -0.020486  0  3.882189  0
C  C113  1  0.41182613  0.20053366  0.63340784  1  -0.114537  0  -0.103948  -0.146612  0  3.957272  0
C  C114  1  0.40788760  0.14563494  0.65896408  1  -0.063044  0  -0.109725  -0.113743  0  4.003324  0
C  C115  1  0.34431403  0.14729060  0.67956864  1  -0.02454  0  -0.160044  -0.171503  0  3.961151  0
C  C116  1  0.30621127  0.21355579  0.67542554  1  0.003568  0  -0.077216  -0.04162  0  3.781821  0
C  C117  1  0.40788849  0.42275030  0.58172943  1  1.54692  0  0.21901  0.604206  0  4.17032  0
C  C118  1  0.09219504  0.91856095  0.89590134  1  1.559611  0  0.228052  0.610655  0  4.158573  0
C  C119  1  0.12356952  0.88123571  0.85643553  1  -0.063538  0  -0.020578  -0.042956  0  3.988158  0
C  C120  1  0.10561424  0.83356889  0.87241358  1  0.018698  0  -0.08296  -0.084399  0  3.982778  0
C  C121  1  0.13307244  0.80032885  0.83421181  1  -0.030863  0  -0.093765  -0.147287  0  4.018069  0
C  C122  1  0.17995619  0.81271378  0.78088720  1  -0.030093  0  -0.004909  0.06549  0  3.969278  0
C  C123  1  0.19915903  0.85914991  0.76631832  1  -0.094532  0  -0.089535  -0.130316  0  3.984184  0
C  C124  1  0.17044110  0.89405337  0.80300328  1  -0.009512  0  -0.083065  -0.087902  0  3.978384  0
C  C125  1  0.20933514  0.77689523  0.73940734  1  0.364517  0  0.015643  0.080286  0  3.901749  0
C  C126  1  0.30788213  0.71067718  0.69695173  1  0.358075  0  0.093115  0.197238  0  4.076162  0
C  C127  1  0.35806465  0.66016254  0.70874426  1  -0.066862  0  -0.11277  -0.209749  0  4.041025  0
C  C128  1  0.39266414  0.62490054  0.67212852  1  -0.001269  0  -0.089066  -0.081252  0  4.028981  0
C  C129  1  0.37953146  0.64080216  0.62123415  1  -0.026582  0  -0.037463  -0.069922  0  4.040219  0
C  C130  1  0.33058942  0.69187749  0.60881748  1  0.047072  0  -0.085168  -0.13236  0  3.979541  0
C  C131  1  0.29336548  0.72623176  0.64672627  1  -0.039077  0  -0.022715  -0.020111  0  3.936779  0
C  C132  1  0.23906119  0.77951940  0.63366395  1  0.029431  0  -0.075106  -0.018579  0  3.88476  0
C  C133  1  0.19079649  0.76430818  0.63585465  1  -0.140983  0  -0.103535  -0.146987  0  3.957464  0
C  C134  1  0.13536386  0.79730888  0.66113300  1  0.00186  0  -0.109787  -0.114658  0  4.003151  0
C  C135  1  0.13670733  0.83968475  0.68078589  1  -0.03344  0  -0.15972  -0.171891  0  3.962968  0
C  C136  1  0.20317656  0.81652438  0.67709758  1  0.019465  0  -0.076941  -0.041551  0  3.781233  0
C  C137  1  0.41662908  0.60327387  0.58188042  1  1.51293  0  0.219695  0.605582  0  4.171401  0
C  C138  1  0.90986637  0.10853539  0.90004491  1  1.55858  0  0.227692  0.608899  0  4.159764  0
C  C139  1  0.87301615  0.15412002  0.86046154  1  -0.045425  0  -0.021056  -0.044466  0  3.990535  0
C  C140  1  0.82610076  0.20395092  0.87603494  1  -0.040355  0  -0.082677  -0.08367  0  3.981357  0
C  C141  1  0.79402461  0.24793201  0.83709170  1  -0.009561  0  -0.094026  -0.147583  0  4.015537  0
C  C142  1  0.80683794  0.24187080  0.78340345  1  -0.053114  0  -0.004741  0.065908  0  3.970644  0
C  C143  1  0.85239093  0.19065720  0.76927774  1  0.012799  0  -0.089585  -0.131269  0  3.990292  0
C  C144  1  0.88608619  0.14771057  0.80675202  1  -0.090235  0  -0.082189  -0.085369  0  3.982586  0
C  C145  1  0.77230638  0.28967661  0.74114926  1  0.33402  0  0.015551  0.079367  0  3.900936  0
C  C146  1  0.70436662  0.30193982  0.69839420  1  0.41221  0  0.093993  0.199334  0  4.076329  0
C  C147  1  0.65227742  0.29247620  0.70988656  1  0.003181  0  -0.113335  -0.211228  0  4.045174  0
C  C148  1  0.61747478  0.33001720  0.67293126  1  -0.062992  0  -0.088835  -0.079082  0  4.027809  0
C  C149  1  0.63520889  0.37653684  0.62212679  1  0.005333  0  -0.037607  -0.071513  0  4.038183  0
C  C150  1  0.68775500  0.38491076  0.61012048  1  -0.028002  0  -0.084945  -0.130787  0  3.979755  0
C  C151  1  0.72196372  0.34937399  0.64818945  1  -0.059962  0  -0.022953  -0.022061  0  3.936045  0
C  C152  1  0.77746582  0.36075707  0.63513083  1  -0.002731  0  -0.075107  -0.018236  0  3.879703  0
C  C153  1  0.76543567  0.42088065  0.63666482  1  -0.0735  0  -0.104348  -0.148329  0  3.956553  0
C  C154  1  0.79976417  0.41659666  0.66197252  1  -0.070883  0  -0.109628  -0.113333  0  4.001473  0
C  C155  1  0.84007999  0.35322325  0.68231266  1  -0.020319  0  -0.159946  -0.173715  0  3.961765  0
C  C156  1  0.81384875  0.31586829  0.67889627  1  0.019394  0  -0.076892  -0.03955  0  3.778732  0
C  C157  1  0.59817878  0.41626481  0.58233437  1  1.544353  0  0.219028  0.605014  0  4.16746  0
C  C158  1  0.10532478  0.92056386  0.07557380  1  1.530282  0  0.226662  0.607819  0  4.162746  0
C  C159  1  0.15030723  0.88407193  0.10747808  1  -0.015058  0  -0.020145  -0.042249  0  3.988201  0
C  C160  1  0.19915922  0.83554889  0.09105873  1  0.036213  0  -0.083118  -0.083835  0  3.983187  0
C  C161  1  0.24227473  0.80281699  0.11960442  1  -0.094799  0  -0.093728  -0.148237  0  4.016318  0
C  C162  1  0.23639504  0.81661152  0.16596499  1  -0.05117  0  -0.004436  0.067707  0  3.968058  0
C  C163  1  0.18625167  0.86408032  0.18343439  1  -0.068892  0  -0.08943  -0.131125  0  3.986527  0
C  C164  1  0.14418415  0.89835220  0.15374308  1  0.018753  0  -0.082988  -0.087539  0  3.980354  0
C  C165  1  0.28361802  0.78118347  0.19623927  1  0.377232  0  0.01485  0.078441  0  3.901529  0
C  C166  1  0.29438179  0.71417271  0.29354885  1  0.33772  0  0.093572  0.197885  0  4.07624  0
C  C167  1  0.28321846  0.66336129  0.34250692  1  -0.080525  0  -0.112451  -0.209695  0  4.041427  0
C  C168  1  0.32113333  0.62739881  0.37647255  1  0.04066  0  -0.088496  -0.08037  0  4.02746  0
C  C169  1  0.36983027  0.64269745  0.36384751  1  -0.024484  0  -0.037191  -0.06946  0  4.036825  0
C  C170  1  0.37975952  0.69413256  0.31617418  1  0.028328  0  -0.085599  -0.133014  0  3.981818  0
C  C171  1  0.34385853  0.72939471  0.27974021  1  -0.02777  0  -0.023422  -0.021  0  3.937411  0
C  C172  1  0.35732452  0.78335320  0.22709231  1  -0.000197  0  -0.074833  -0.018797  0  3.88278  0
C  C173  1  0.41760854  0.76916054  0.17875943  1  -0.176378  0  -0.103947  -0.146901  0  3.95565  0
C  C174  1  0.41385281  0.80313199  0.12409264  1  -0.053064  0  -0.110051  -0.114591  0  4.000745  0
C  C175  1  0.35071110  0.84530820  0.12611518  1  -0.026724  0  -0.160036  -0.171943  0  3.960209  0
C  C176  1  0.31224759  0.82093347  0.19168098  1  0.014354  0  -0.0775  -0.042047  0  3.782871  0
C  C177  1  0.41054681  0.60439889  0.40007133  1  1.510322  0  0.219579  0.605003  0  4.166938  0
C  C178  1  0.91289942  0.09635877  0.08971960  1  1.561173  0  0.227124  0.607885  0  4.159417  0
C  C179  1  0.87583919  0.12769383  0.13509442  1  -0.016372  0  -0.019695  -0.041059  0  3.98562  0
C  C180  1  0.82912853  0.10892019  0.18467234  1  -0.02963  0  -0.08317  -0.085412  0  3.981675  0
C  C181  1  0.79636493  0.13645127  0.22848808  1  -0.072304  0  -0.093917  -0.147366  0  4.013591  0
C  C182  1  0.80825555  0.18411235  0.22263153  1  0.03509  0  -0.004629  0.066166  0  3.966404  0
C  C183  1  0.85367686  0.20406648  0.17169371  1  -0.036654  0  -0.089409  -0.131806  0  3.987716  0
C  C184  1  0.88807343  0.17541965  0.12886128  1  -0.079479  0  -0.082365  -0.08629  0  3.979285  0
C  C185  1  0.77291247  0.21341822  0.27053433  1  0.340768  0  0.015305  0.080494  0  3.896148  0
C  C186  1  0.70328447  0.31027270  0.28333960  1  0.337915  0  0.0944  0.199705  0  4.075212  0
C  C187  1  0.65056580  0.35822987  0.27430355  1  0.100831  0  -0.112527  -0.209293  0  4.043103  0
C  C188  1  0.61543384  0.39267173  0.31171836  1  -0.148987  0  -0.089073  -0.080319  0  4.03162  0
C  C189  1  0.63342094  0.38158933  0.35770072  1  0.018007  0  -0.037766  -0.07192  0  4.042085  0
C  C190  1  0.68650660  0.33475485  0.36570162  1  -0.005073  0  -0.085796  -0.132183  0  3.983111  0
C  C191  1  0.72102539  0.29778992  0.33035756  1  -0.038446  0  -0.023516  -0.022068  0  3.939912  0
C  C192  1  0.77690710  0.24609360  0.34163614  1  0.011939  0  -0.075356  -0.019352  0  3.886852  0
C  C193  1  0.76542151  0.19742893  0.40158099  1  -0.05391  0  -0.103843  -0.147325  0  3.955634  0
C  C194  1  0.80060129  0.14283388  0.39720909  1  -0.098642  0  -0.109813  -0.113618  0  3.9984  0
C  C195  1  0.84097046  0.14530927  0.33393620  1  -0.019982  0  -0.160257  -0.174013  0  3.961587  0
C  C196  1  0.81389114  0.21063036  0.29673444  1  0.00577  0  -0.07735  -0.04173  0  3.779919  0
C  C197  1  0.59626241  0.41886896  0.39732554  1  1.546231  0  0.219321  0.605419  0  4.172128  0
C  C198  1  0.91560146  0.91623723  0.07634364  1  1.546507  0  0.226562  0.608695  0  4.156773  0
C  C199  1  0.87979011  0.87528357  0.10805463  1  0.028721  0  -0.021737  -0.044916  0  3.989548  0
C  C200  1  0.83139860  0.88949536  0.09171493  1  -0.08651  0  -0.082785  -0.082484  0  3.981659  0
C  C201  1  0.79933142  0.85002808  0.12018102  1  -0.03494  0  -0.094194  -0.149291  0  4.017878  0
C  C202  1  0.81377863  0.79703515  0.16626967  1  -0.040439  0  -0.003882  0.068381  0  3.968904  0
C  C203  1  0.86123026  0.78397609  0.18354473  1  -0.089873  0  -0.0898  -0.132877  0  3.98664  0
C  C204  1  0.89476795  0.82210656  0.15399219  1  -0.002606  0  -0.081931  -0.084807  0  3.978869  0
C  C205  1  0.77889013  0.75451482  0.19674458  1  0.373518  0  0.015164  0.078431  0  3.905308  0
C  C206  1  0.71222610  0.71355399  0.29436095  1  0.384653  0  0.093733  0.197997  0  4.079204  0
C  C207  1  0.66106582  0.72633356  0.34362972  1  -0.003379  0  -0.112573  -0.209653  0  4.042603  0
C  C208  1  0.62485702  0.69067733  0.37741786  1  -0.023264  0  -0.08852  -0.080075  0  4.0286  0
C  C209  1  0.64040320  0.63973395  0.36441193  1  -0.03732  0  -0.037116  -0.069446  0  4.03486  0
C  C210  1  0.69238485  0.62612987  0.31662484  1  -0.016041  0  -0.085391  -0.133444  0  3.982205  0
C  C211  1  0.72781735  0.66299801  0.28024540  1  -0.05509  0  -0.02295  -0.019987  0  3.935093  0
C  C212  1  0.78248079  0.64826626  0.22749087  1  0.037394  0  -0.075189  -0.018057  0  3.882411  0
C  C213  1  0.76882236  0.64810676  0.17970346  1  -0.134986  0  -0.104647  -0.150814  0  3.962044  0
C  C214  1  0.80235126  0.67254474  0.12474604  1  -0.039691  0  -0.109211  -0.110858  0  4.001222  0
C  C215  1  0.84366320  0.69388894  0.12587129  1  -0.014793  0  -0.160799  -0.174039  0  3.961509  0
C  C216  1  0.81947602  0.69174294  0.19146326  1  0.016564  0  -0.077595  -0.042138  0  3.781632  0
C  C217  1  0.60155823  0.60159341  0.40027271  1  1.551732  0  0.219762  0.605907  0  4.168237  0
N  N218  1  0.25216886  0.28413926  0.73128905  1  -1.142947  0  -0.441758  -0.37977  0  3.514366  0
N  N219  1  0.27302106  0.74567545  0.73392806  1  -1.148551  0  -0.4414  -0.378859  0  3.516419  0
N  N220  1  0.73894838  0.26452574  0.73567107  1  -1.207791  0  -0.440987  -0.378899  0  3.5171  0
N  N221  1  0.25686222  0.74977291  0.25904646  1  -1.122272  0  -0.440796  -0.378749  0  3.510201  0
N  N222  1  0.73835325  0.27575924  0.24588456  1  -1.175849  0  -0.440328  -0.377995  0  3.516773  0
N  N223  1  0.74784582  0.74994114  0.25976484  1  -1.187624  0  -0.44156  -0.380207  0  3.515409  0
O  O224  1  0.00550972  0.01104160  0.98964526  1  -1.224765  0  -0.578385  -1.036357  0  2.564949  0
O  O225  1  0.09524243  0.07740996  0.95192972  1  -1.175309  0  -0.316461  -0.549947  0  2.319704  0
O  O226  1  0.07149859  0.09904041  0.87215832  1  -1.176477  0  -0.318492  -0.552069  0  2.314815  0
O  O227  1  0.43782338  0.42142777  0.52812035  1  -1.182216  0  -0.324014  -0.558169  0  2.306161  0
O  O228  1  0.41070814  0.45212513  0.60505143  1  -1.169008  0  -0.323969  -0.55816  0  2.314591  0
O  O229  1  0.06834357  0.89342616  0.95145252  1  -1.174451  0  -0.317157  -0.551279  0  2.316854  0
O  O230  1  0.09128526  0.97285662  0.87090752  1  -1.175368  0  -0.319556  -0.553646  0  2.308692  0
O  O231  1  0.41608260  0.62771637  0.52807899  1  -1.17703  0  -0.324812  -0.559558  0  2.307833  0
O  O232  1  0.44647213  0.54889172  0.60494626  1  -1.180533  0  -0.325201  -0.558647  0  2.318602  0
O  O233  1  0.88543161  0.10369226  0.95542288  1  -1.17442  0  -0.316633  -0.548384  0  2.307752  0
O  O234  1  0.96328310  0.07804297  0.87519324  1  -1.180881  0  -0.320197  -0.555378  0  2.31794  0
O  O235  1  0.62341757  0.44593265  0.52902314  1  -1.182038  0  -0.324712  -0.559255  0  2.30272  0
O  O236  1  0.54336635  0.41777509  0.60450985  1  -1.178942  0  -0.325277  -0.559574  0  2.318427  0
O  O237  1  0.10050333  0.89496344  0.04990256  1  -1.16971  0  -0.317676  -0.550873  0  2.318794  0
O  O238  1  0.07541331  0.97430611  0.07624613  1  -1.179561  0  -0.317495  -0.551747  0  2.313727  0
O  O239  1  0.44213998  0.62814210  0.39907401  1  -1.168932  0  -0.325479  -0.558923  0  2.305952  0
O  O240  1  0.41108584  0.55026637  0.42960732  1  -1.17812  0  -0.324489  -0.559818  0  2.314443  0
O  O241  1  0.88844534  0.06943191  0.08505485  1  -1.170038  0  -0.316723  -0.549361  0  2.312752  0
O  O242  1  0.96639164  0.09860959  0.05936749  1  -1.177227  0  -0.318828  -0.553121  0  2.312012  0
O  O243  1  0.62193495  0.41943353  0.42604408  1  -1.171442  0  -0.324832  -0.559503  0  2.310364  0
O  O244  1  0.54109430  0.44771511  0.39966896  1  -1.183471  0  -0.32502  -0.559074  0  2.320208  0
O  O245  1  0.88983918  0.97096926  0.05004300  1  -1.174959  0  -0.31731  -0.550921  0  2.310151  0
O  O246  1  0.96930009  0.89333733  0.07780594  1  -1.176782  0  -0.319511  -0.55362  0  2.31296  0
O  O247  1  0.62579678  0.54731304  0.40058532  1  -1.170378  0  -0.324617  -0.559032  0  2.305701  0
O  O248  1  0.54643765  0.62616320  0.42813918  1  -1.17752  0  -0.323673  -0.559149  0  2.315509  0
O  O249  1  0.50652231  0.51111732  0.48903489  1  -1.218138  0  -0.581083  -1.03545  0  2.575049  0
