# generated using pymatgen
data_LaH13(C3O2)4
_symmetry_space_group_name_H-M   'P 1'
_cell_length_a   8.62947736
_cell_length_b   9.28852354
_cell_length_c   9.66142890
_cell_angle_alpha   111.47077632
_cell_angle_beta   96.17976006
_cell_angle_gamma   94.87182914
_symmetry_Int_Tables_number   1
_chemical_formula_structural   LaH13(C3O2)4
_chemical_formula_sum   'La2 H26 C24 O16'
_cell_volume   709.98546180
_cell_formula_units_Z   2
loop_
 _symmetry_equiv_pos_site_id
 _symmetry_equiv_pos_as_xyz
  1  'x, y, z'
loop_
 _atom_site_type_symbol
 _atom_site_label
 _atom_site_symmetry_multiplicity
 _atom_site_fract_x
 _atom_site_fract_y
 _atom_site_fract_z
 _atom_site_occupancy
 _atom_site_hle17_bader_spin_density
 _atom_site_hle17_ddec_charge
 _atom_site_hle17_ddec_spin_density
 _atom_site_hle17_ddec_sum_bond_order
 _atom_site_hle17_magmom
 _atom_site_hse06_10hf_bader_spin_density
 _atom_site_hse06_10hf_ddec_charge
 _atom_site_hse06_10hf_ddec_spin_density
 _atom_site_hse06_10hf_ddec_sum_bond_order
 _atom_site_hse06_10hf_magmom
 _atom_site_hse06_bader_spin_density
 _atom_site_hse06_ddec_charge
 _atom_site_hse06_ddec_spin_density
 _atom_site_hse06_ddec_sum_bond_order
 _atom_site_hse06_magmom
 _atom_site_pbe_bader_spin_density
 _atom_site_pbe_cm5_charge
 _atom_site_pbe_ddec_charge
 _atom_site_pbe_ddec_spin_density
 _atom_site_pbe_ddec_sum_bond_order
 _atom_site_pbe_magmom
La  La0  1  0.46813665  0.74548347  0.02759865  1  0  2.103466  0  1.752834  0  0  1.974742  0  2.274754  0  0  2.077177  0  2.175076  0  0  1.38419  1.896865  0  2.346705  0
La  La1  1  0.53186569  0.25451741  0.97240419  1  0  2.103443  0  1.752869  0  0  1.974731  0  2.27477  0  0  2.07716  0  2.175102  0  0  1.384194  1.896842  0  2.346753  0
H  H2  1  0.30614638  0.04520124  0.17348672  1  0  0.434596  0  0.867326  0  0  0.403455  0  0.931176  0  0  0.414937  0  0.914698  0  0  0.300842  0.395032  0  0.943305  0
H  H3  1  0.69385331  0.95479732  0.82651399  1  0  0.434634  0  0.867269  0  0  0.403501  0  0.931104  0  0  0.414982  0  0.914628  0  0  0.300862  0.395081  0  0.943229  0
H  H4  1  0.36821921  0.99059351  0.30361393  1  0  0.425946  0  0.818193  0  0  0.413978  0  0.864171  0  0  0.422251  0  0.855692  0  0  0.331421  0.407936  0  0.870503  0
H  H5  1  0.63178198  0.00940738  0.69638777  1  0  0.425958  0  0.818173  0  0  0.413993  0  0.864149  0  0  0.422268  0  0.855667  0  0  0.331429  0.407953  0  0.870485  0
H  H6  1  0.45773264  0.61221099  0.27581151  1  0  0.429166  0  0.876438  0  0  0.39829  0  0.9406  0  0  0.409431  0  0.92461  0  0  0.298854  0.389967  0  0.952628  0
H  H7  1  0.54226528  0.38778294  0.72418323  1  0  0.429123  0  0.876504  0  0  0.398241  0  0.94068  0  0  0.409383  0  0.924686  0  0  0.298826  0.389927  0  0.95269  0
H  H8  1  0.31594056  0.70677368  0.29398010  1  0  0.406505  0  0.873771  0  0  0.382152  0  0.945359  0  0  0.389663  0  0.935073  0  0  0.304697  0.376728  0  0.951358  0
H  H9  1  0.68405868  0.29322140  0.70601621  1  0  0.406492  0  0.873758  0  0  0.382135  0  0.945376  0  0  0.389646  0  0.935089  0  0  0.304694  0.376704  0  0.951373  0
H  H10  1  0.11073823  0.43864197  0.17366214  1  0  0.108677  0  0.95569  0  0  0.119745  0  1.01775  0  0  0.1229  0  1.015797  0  0  0.105676  0.11751  0  1.019407  0
H  H11  1  0.88926566  0.56136128  0.82633654  1  0  0.10868  0  0.955673  0  0  0.119758  0  1.017717  0  0  0.122913  0  1.015762  0  0  0.105672  0.117524  0  1.019368  0
H  H12  1  0.26135324  0.60151121  0.65059353  1  0  0.11035  0  0.972757  0  0  0.117618  0  1.040853  0  0  0.120664  0  1.040429  0  0  0.10595  0.115246  0  1.041739  0
H  H13  1  0.73864329  0.39848971  0.34940769  1  0  0.110307  0  0.972811  0  0  0.11761  0  1.040869  0  0  0.120657  0  1.040444  0  0  0.105942  0.115241  0  1.041754  0
H  H14  1  0.95438804  0.85303427  0.47057326  1  0  0.098303  0  0.954073  0  0  0.110178  0  1.015824  0  0  0.113457  0  1.014147  0  0  0.100195  0.107762  0  1.017321  0
H  H15  1  0.04561453  0.14696781  0.52942486  1  0  0.098332  0  0.954067  0  0  0.110181  0  1.015839  0  0  0.11346  0  1.014162  0  0  0.100189  0.107762  0  1.017337  0
H  H16  1  0.87518437  0.77507408  0.21169954  1  0  0.127985  0  0.957293  0  0  0.138202  0  1.020365  0  0  0.141822  0  1.017902  0  0  0.1063  0.135525  0  1.022223  0
H  H17  1  0.12481823  0.22492802  0.78829652  1  0  0.127944  0  0.957292  0  0  0.138222  0  1.020365  0  0  0.141845  0  1.017902  0  0  0.106297  0.135541  0  1.022226  0
H  H18  1  0.00108488  0.66678054  0.09090980  1  0  0.137548  0  0.937146  0  0  0.150763  0  0.997476  0  0  0.154018  0  0.995427  0  0  0.113306  0.14855  0  0.99893  0
H  H19  1  0.99891736  0.33321921  0.90908746  1  0  0.137495  0  0.937251  0  0  0.150783  0  0.997553  0  0  0.154041  0  0.995503  0  0  0.113299  0.148563  0  0.999021  0
H  H20  1  0.21361055  0.26787941  0.37969405  1  0  0.110361  0  0.946496  0  0  0.125447  0  1.007028  0  0  0.127218  0  1.006324  0  0  0.103124  0.124015  0  1.007967  0
H  H21  1  0.78638366  0.73212152  0.62030693  1  0  0.110386  0  0.946526  0  0  0.125449  0  1.007059  0  0  0.127228  0  1.006357  0  0  0.103147  0.124015  0  1.008004  0
H  H22  1  0.38229094  0.40158039  0.48734547  1  0  0.130508  0  0.925804  0  0  0.144572  0  0.982329  0  0  0.148053  0  0.979652  0  0  0.10889  0.141871  0  0.984679  0
H  H23  1  0.61770658  0.59841935  0.51265647  1  0  0.130502  0  0.925829  0  0  0.14454  0  0.982358  0  0  0.148028  0  0.979682  0  0  0.108872  0.141841  0  0.984711  0
H  H24  1  0.02290450  0.93785366  0.73560294  1  0  0.114747  0  0.925023  0  0  0.128485  0  0.982724  0  0  0.131403  0  0.980168  0  0  0.103356  0.126335  0  0.9848  0
H  H25  1  0.97709673  0.06214725  0.26439567  1  0  0.114759  0  0.925019  0  0  0.1285  0  0.982716  0  0  0.131419  0  0.980158  0  0  0.103368  0.126351  0  0.98479  0
H  H26  1  0.06723473  0.78924504  0.80511695  1  0  0.131889  0  0.92121  0  0  0.145426  0  0.978383  0  0  0.148243  0  0.976699  0  0  0.111397  0.14346  0  0.979731  0
H  H27  1  0.93275921  0.21075360  0.19487800  1  0  0.131918  0  0.921213  0  0  0.145431  0  0.978415  0  0  0.148251  0  0.976727  0  0  0.111385  0.143466  0  0.979765  0
C  C28  1  0.02313595  0.64826390  0.30727458  1  0  0.137137  0  3.769946  0  0  0.160793  0  4.004615  0  0  0.16283  0  4.027879  0  0  -0.008317  0.159436  0  3.988514  0
C  C29  1  0.97686426  0.35173818  0.69272536  1  0  0.137156  0  3.769917  0  0  0.160896  0  4.004569  0  0  0.162933  0  4.027838  0  0  -0.008292  0.159529  0  3.988479  0
C  C30  1  0.11170917  0.52424696  0.28682837  1  0  -0.208372  0  3.716427  0  0  -0.237132  0  3.964729  0  0  -0.240116  0  3.982805  0  0  -0.101549  -0.23552  0  3.952536  0
C  C31  1  0.88829337  0.47575510  0.71317182  1  0  -0.208329  0  3.716435  0  0  -0.237114  0  3.964713  0  0  -0.240094  0  3.982784  0  0  -0.101536  -0.235497  0  3.952514  0
C  C32  1  0.19809497  0.50716567  0.41005090  1  0  0.130014  0  3.770923  0  0  0.15201  0  4.009786  0  0  0.153141  0  4.034051  0  0  -0.008299  0.151644  0  3.992756  0
C  C33  1  0.80190507  0.49283524  0.58994964  1  0  0.129971  0  3.771019  0  0  0.151979  0  4.009829  0  0  0.153119  0  4.034099  0  0  -0.008309  0.151614  0  3.992798  0
C  C34  1  0.19484117  0.61496611  0.55475999  1  0  -0.176049  0  3.678652  0  0  -0.209086  0  3.9308  0  0  -0.213319  0  3.95253  0  0  -0.095681  -0.206123  0  3.916005  0
C  C35  1  0.80515902  0.38503595  0.44524202  1  0  -0.175988  0  3.678749  0  0  -0.20907  0  3.930892  0  0  -0.213302  0  3.952622  0  0  -0.095657  -0.206111  0  3.916095  0
C  C36  1  0.10748881  0.73989137  0.57799534  1  0  0.139425  0  3.7681  0  0  0.159563  0  4.010704  0  0  0.161051  0  4.035466  0  0  -0.006803  0.158462  0  3.993508  0
C  C37  1  0.89251141  0.26011071  0.42200461  1  0  0.139356  0  3.768147  0  0  0.159503  0  4.010742  0  0  0.160988  0  4.035511  0  0  -0.006844  0.158412  0  3.993533  0
C  C38  1  0.02330692  0.75618085  0.45365305  1  0  -0.1984  0  3.71866  0  0  -0.227825  0  3.964482  0  0  -0.23264  0  3.98618  0  0  -0.098528  -0.224062  0  3.949338  0
C  C39  1  0.97669465  0.24382241  0.54634539  1  0  -0.198386  0  3.71863  0  0  -0.227797  0  3.964412  0  0  -0.232607  0  3.986107  0  0  -0.098511  -0.224033  0  3.949265  0
C  C40  1  0.92598346  0.66532191  0.17617786  1  0  -0.331739  0  3.670736  0  0  -0.372095  0  3.903236  0  0  -0.378344  0  3.908218  0  0  -0.159726  -0.36733  0  3.899533  0
C  C41  1  0.07401777  0.33467901  0.82381971  1  0  -0.331655  0  3.670715  0  0  -0.372248  0  3.903397  0  0  -0.37851  0  3.908397  0  0  -0.159737  -0.367478  0  3.899694  0
C  C42  1  0.79340545  0.53212796  0.09599884  1  0  0.734458  0  3.800214  0  0  0.693934  0  4.096855  0  0  0.728549  0  4.091465  0  0  0.224063  0.669492  0  4.100377  0
C  C43  1  0.20659810  0.46787294  0.90400103  1  0  0.734544  0  3.799988  0  0  0.694059  0  4.096656  0  0  0.728676  0  4.091264  0  0  0.224099  0.669646  0  4.100128  0
C  C44  1  0.29165152  0.37165910  0.38849982  1  0  -0.319194  0  3.676173  0  0  -0.360117  0  3.91184  0  0  -0.365088  0  3.917356  0  0  -0.160198  -0.356443  0  3.907556  0
C  C45  1  0.70834718  0.62834064  0.61150120  1  0  -0.319213  0  3.676306  0  0  -0.36006  0  3.911861  0  0  -0.365063  0  3.91741  0  0  -0.160181  -0.356385  0  3.907588  0
C  C46  1  0.37016850  0.33298599  0.24911907  1  0  0.71297  0  3.822966  0  0  0.665275  0  4.12463  0  0  0.698622  0  4.119278  0  0  0.216557  0.643172  0  4.126483  0
C  C47  1  0.62983101  0.66701139  0.75088224  1  0  0.713045  0  3.823064  0  0  0.665373  0  4.124661  0  0  0.698726  0  4.11931  0  0  0.216576  0.643255  0  4.12653  0
C  C48  1  0.10459738  0.85369601  0.73633731  1  0  -0.319542  0  3.662454  0  0  -0.360791  0  3.897766  0  0  -0.366005  0  3.902195  0  0  -0.155205  -0.357184  0  3.894697  0
C  C49  1  0.89540034  0.14630492  0.26366196  1  0  -0.319626  0  3.66259  0  0  -0.360837  0  3.897942  0  0  -0.366053  0  3.902371  0  0  -0.155216  -0.357236  0  3.894875  0
C  C50  1  0.26829086  0.94181246  0.80759129  1  0  0.760221  0  3.805103  0  0  0.722783  0  4.097339  0  0  0.758303  0  4.089274  0  0  0.236723  0.698036  0  4.102249  0
C  C51  1  0.73170896  0.05818725  0.19241295  1  0  0.760418  0  3.80485  0  0  0.72286  0  4.097273  0  0  0.758387  0  4.089197  0  0  0.236753  0.69812  0  4.102176  0
O  O52  1  0.65733963  0.56337706  0.05592775  1  0  -0.758912  0  2.035827  0  0  -0.707121  0  2.300693  0  0  -0.745527  0  2.294703  0  0  -0.405733  -0.678575  0  2.304103  0
O  O53  1  0.34266324  0.43661916  0.94407142  1  0  -0.758972  0  2.035816  0  0  -0.707134  0  2.300598  0  0  -0.745539  0  2.294604  0  0  -0.405723  -0.678604  0  2.30399  0
O  O54  1  0.81619124  0.39144795  0.06651793  1  0  -0.665134  0  1.948032  0  0  -0.618562  0  2.188521  0  0  -0.649996  0  2.181758  0  0  -0.354734  -0.596002  0  2.193521  0
O  O55  1  0.18381347  0.60855294  0.93348206  1  0  -0.665248  0  1.948059  0  0  -0.618679  0  2.188561  0  0  -0.650113  0  2.181793  0  0  -0.354788  -0.596118  0  2.193517  0
O  O56  1  0.32138626  0.20678440  0.13543824  1  0  -0.673745  0  1.979906  0  0  -0.619074  0  2.209643  0  0  -0.6493  0  2.201889  0  0  -0.342423  -0.597107  0  2.214276  0
O  O57  1  0.67861441  0.79321297  0.86456422  1  0  -0.673823  0  1.979931  0  0  -0.619165  0  2.209653  0  0  -0.649399  0  2.20191  0  0  -0.342457  -0.597194  0  2.214286  0
O  O58  1  0.48458567  0.42842679  0.24554000  1  0  -0.691823  0  2.014957  0  0  -0.633756  0  2.250834  0  0  -0.664724  0  2.243676  0  0  -0.345553  -0.611565  0  2.255436  0
O  O59  1  0.51541501  0.57157060  0.75446143  1  0  -0.691823  0  2.015025  0  0  -0.633792  0  2.250937  0  0  -0.66476  0  2.243776  0  0  -0.345537  -0.611591  0  2.255532  0
O  O60  1  0.31077955  0.06583217  0.78674199  1  0  -0.691659  0  1.944136  0  0  -0.649164  0  2.186704  0  0  -0.68128  0  2.176441  0  0  -0.379182  -0.626075  0  2.193515  0
O  O61  1  0.68921823  0.93416986  0.21326700  1  0  -0.69174  0  1.94403  0  0  -0.649173  0  2.186633  0  0  -0.681292  0  2.176368  0  0  -0.379192  -0.626094  0  2.19345  0
O  O62  1  0.35799180  0.88643936  0.88354963  1  0  -0.740299  0  2.035973  0  0  -0.695521  0  2.305006  0  0  -0.731758  0  2.296616  0  0  -0.40409  -0.668839  0  2.310604  0
O  O63  1  0.64200406  0.11355689  0.11645088  1  0  -0.74039  0  2.035891  0  0  -0.69558  0  2.304991  0  0  -0.731824  0  2.296603  0  0  -0.404087  -0.668893  0  2.310582  0
O  O64  1  0.31309484  0.95136842  0.20092665  1  0  -0.849866  0  1.799666  0  0  -0.80394  0  1.97204  0  0  -0.828084  0  1.944862  0  0  -0.608623  -0.786969  0  1.991935  0
O  O65  1  0.68690735  0.04863129  0.79907473  1  0  -0.849909  0  1.799632  0  0  -0.803988  0  1.971994  0  0  -0.828132  0  1.944816  0  0  -0.608638  -0.787012  0  1.991894  0
O  O66  1  0.42523929  0.71317003  0.27550575  1  0  -0.859461  0  1.830105  0  0  -0.813179  0  2.012458  0  0  -0.8375  0  1.98304  0  0  -0.620904  -0.795205  0  2.032356  0
O  O67  1  0.57475961  0.28682272  0.72448969  1  0  -0.859437  0  1.830144  0  0  -0.813155  0  2.012513  0  0  -0.837474  0  1.983099  0  0  -0.620892  -0.795184  0  2.032399  0
