# generated using pymatgen
data_Co3H58C84(N3O5)4
_symmetry_space_group_name_H-M   'P 1'
_cell_length_a   9.95790822
_cell_length_b   14.13552212
_cell_length_c   18.25122068
_cell_angle_alpha   70.12159668
_cell_angle_beta   87.34362290
_cell_angle_gamma   71.57081297
_symmetry_Int_Tables_number   1
_chemical_formula_structural   Co3H58C84(N3O5)4
_chemical_formula_sum   'Co3 H58 C84 N12 O20'
_cell_volume   2286.68050862
_cell_formula_units_Z   1
loop_
 _symmetry_equiv_pos_site_id
 _symmetry_equiv_pos_as_xyz
  1  'x, y, z'
loop_
 _atom_site_type_symbol
 _atom_site_label
 _atom_site_symmetry_multiplicity
 _atom_site_fract_x
 _atom_site_fract_y
 _atom_site_fract_z
 _atom_site_occupancy
 _atom_site_pbe_bader_charge
 _atom_site_pbe_bader_spin_density
 _atom_site_pbe_cm5_charge
 _atom_site_pbe_ddec_charge
 _atom_site_pbe_ddec_spin_density
 _atom_site_pbe_ddec_sum_bond_order
 _atom_site_pbe_magmom
Co  Co0  1  0.85951581  0.96852744  0.43846513  1  1.285851  2.585258  0.680287  0.87321  2.825086  2.559348  2.565
Co  Co1  1  0.14047978  0.03150457  0.56147461  1  1.285564  2.585524  0.679993  0.872858  2.825157  2.558913  2.565
Co  Co2  1  0.49997197  0.99995495  0.99998003  1  1.291841  2.617862  0.660652  0.91118  2.856658  2.477552  2.601
H  H3  1  0.76540906  0.96624406  0.05348428  1  0.576671  0.000331  0.318521  0.393051  -5.2e-05  0.888674  0.0
H  H4  1  0.75988533  0.92075021  0.98419519  1  0.647344  0.000173  0.279277  0.370481  0.000185  0.983419  0.0
H  H5  1  0.50742638  0.31223241  0.74297309  1  0.455  0.000105  0.32422  0.273011  4.7e-05  0.943577  0.0
H  H6  1  0.61013641  0.00538584  0.55941762  1  0.152199  0.0005  0.111687  0.135671  0.000191  1.030034  0.0
H  H7  1  0.91897429  0.63364507  0.69279649  1  0.450105  0.000133  0.31995  0.269261  6.9e-05  0.950828  0.0
H  H8  1  0.89081128  0.25975814  0.17505175  1  0.449437  6.7e-05  0.324054  0.278389  2.3e-05  0.93348  0.0
H  H9  1  0.86214857  0.97631144  0.75747934  1  0.098165  0.000233  0.102689  0.110161  3.6e-05  1.009383  0.0
H  H10  1  0.41391427  0.38424891  0.63861151  1  0.082002  4e-06  0.110048  0.114188  0.0  1.012179  0.0
H  H11  1  0.87339490  0.79085695  0.59227177  1  0.102909  0.001828  0.119074  0.102299  0.000422  1.005056  0.001
H  H12  1  0.61049045  0.56193669  0.01909457  1  0.105521  -2.3e-05  0.100887  0.102512  -4.6e-05  1.04905  0.0
H  H13  1  0.42426435  0.99049708  0.77870117  1  0.099984  0.000815  0.104346  0.114802  0.000449  1.012203  0.0
H  H14  1  0.65853471  0.60812127  0.87782030  1  0.08018  5e-06  0.108321  0.113728  -1e-06  0.977273  0.0
H  H15  1  0.87621593  0.11756798  0.28343677  1  0.093837  0.0018  0.12072  0.104274  0.000482  0.999611  0.001
H  H16  1  0.81302853  0.57535133  0.77730590  1  0.079676  1.4e-05  0.107538  0.106082  1.3e-05  1.018332  0.0
H  H17  1  0.68263262  0.61979675  0.48065214  1  0.06183  -3.9e-05  0.11181  0.118947  -5.1e-05  0.979683  0.0
H  H18  1  0.72526628  0.16320567  0.48789817  1  0.082419  0.001648  0.119498  0.091894  0.000249  1.002693  0.001
H  H19  1  0.48214649  0.17466659  0.84591362  1  0.108113  0.001634  0.122735  0.103448  0.000465  0.9953  0.001
H  H20  1  0.70826220  0.55636113  0.62620329  1  0.100768  -1.3e-05  0.10336  0.105801  -1.8e-05  1.020324  0.0
H  H21  1  0.71154233  0.43820329  0.28633258  1  0.132681  -0.000122  0.108376  0.12202  -0.000239  1.033118  0.0
H  H22  1  0.64232522  0.40576282  0.88439283  1  0.169563  -9.5e-05  0.108609  0.122028  -0.00023  1.049604  0.0
H  H23  1  0.01346959  0.31112877  0.07967540  1  0.069273  -1.1e-05  0.105481  0.105884  -2e-05  1.013062  0.0
H  H24  1  0.97613671  0.80144711  0.36841717  1  0.129869  0.001624  0.12437  0.108124  0.000376  0.979551  0.001
H  H25  1  0.10253227  0.49675047  0.55586148  1  0.123344  -0.000165  0.105486  0.114759  -0.000322  1.048234  0.0
H  H26  1  0.66690902  0.35985380  0.42685890  1  0.066197  0.000925  0.100235  0.101643  0.000409  1.039393  0.0
H  H27  1  0.09276908  0.60375449  0.41318112  1  0.083155  0.000831  0.104489  0.111037  0.000378  1.008185  0.0
H  H28  1  0.21995272  0.32923868  0.83547579  1  0.09423  -5.4e-05  0.103685  0.10549  -8.1e-05  1.017482  0.0
H  H29  1  0.66100501  0.30205450  0.02761990  1  0.071119  0.000915  0.102106  0.104331  0.000425  1.015071  0.0
H  H30  1  0.58609007  0.13774449  0.07281170  1  0.086867  0.001154  0.115686  0.091245  5.4e-05  1.014378  0.001
H  H31  1  0.17112434  0.27869945  0.97555791  1  0.085333  0.000148  0.107281  0.119685  3e-05  0.995977  0.0
H  H32  1  0.23450657  0.03374261  0.94645976  1  0.614562  0.000251  0.318293  0.392671  -5.3e-05  0.88915  0.0
H  H33  1  0.24007651  0.07920418  0.01578595  1  0.647529  0.000173  0.278918  0.369878  0.000186  0.984077  0.0
H  H34  1  0.49254064  0.68776846  0.25703617  1  0.455577  0.000105  0.324179  0.273171  4.7e-05  0.943425  0.0
H  H35  1  0.38981477  0.99469053  0.44053631  1  0.152917  0.000499  0.111715  0.135754  0.000192  1.029759  0.0
H  H36  1  0.08103167  0.36633476  0.30721614  1  0.45015  0.000133  0.319927  0.269457  6.9e-05  0.9506  0.0
H  H37  1  0.10917853  0.74028729  0.82492924  1  0.448969  6.7e-05  0.324115  0.278488  2.3e-05  0.933352  0.0
H  H38  1  0.13789668  0.02367347  0.24250499  1  0.096332  0.000234  0.102613  0.109944  3.6e-05  1.009721  0.0
H  H39  1  0.58610817  0.61574089  0.36140602  1  0.082071  4e-06  0.110058  0.114115  0.0  1.012343  0.0
H  H40  1  0.12657650  0.20912938  0.40775089  1  0.103154  0.00183  0.119104  0.102417  0.000423  1.00533  0.001
H  H41  1  0.38947476  0.43807422  0.98087676  1  0.106389  -2.2e-05  0.100895  0.102453  -4.6e-05  1.04907  0.0
H  H42  1  0.57570432  0.00953158  0.22124740  1  0.098759  0.000815  0.104358  0.114938  0.000448  1.012214  0.0
H  H43  1  0.34142742  0.39189527  0.12215058  1  0.08064  5e-06  0.108348  0.113674  -1e-06  0.977392  0.0
H  H44  1  0.12375052  0.88245611  0.71654498  1  0.094063  0.0018  0.120603  0.103968  0.000482  0.999876  0.001
H  H45  1  0.18702752  0.42463179  0.22269728  1  0.079737  1.4e-05  0.107557  0.106024  1.3e-05  1.018104  0.0
H  H46  1  0.31742748  0.38016746  0.51938764  1  0.061164  -3.9e-05  0.111795  0.118832  -5.1e-05  0.979828  0.0
H  H47  1  0.27475909  0.83681989  0.51210677  1  0.082281  0.001645  0.119462  0.091782  0.000248  1.002829  0.001
H  H48  1  0.51783541  0.82529347  0.15406809  1  0.108799  0.001635  0.122862  0.103449  0.000465  0.995345  0.001
H  H49  1  0.29179148  0.44360412  0.37383691  1  0.100499  -1.3e-05  0.103431  0.105953  -1.8e-05  1.020411  0.0
H  H50  1  0.28853109  0.56186955  0.71366838  1  0.133947  -0.000121  0.108394  0.121953  -0.000239  1.033308  0.0
H  H51  1  0.35760216  0.59417360  0.11564762  1  0.153312  -0.000104  0.108749  0.122353  -0.00023  1.049316  0.0
H  H52  1  0.98647456  0.68893166  0.92033431  1  0.06915  -1.1e-05  0.105466  0.105869  -2.1e-05  1.012913  0.0
H  H53  1  0.02381428  0.19853169  0.63159944  1  0.129735  0.001627  0.124428  0.108225  0.000377  0.979632  0.001
H  H54  1  0.89756453  0.50321512  0.44416868  1  0.123872  -0.000165  0.105501  0.114745  -0.000321  1.048339  0.0
H  H55  1  0.33314063  0.64019343  0.57315228  1  0.06641  0.000925  0.100163  0.101597  0.000408  1.039512  0.0
H  H56  1  0.90726168  0.39622639  0.58683820  1  0.083365  0.000833  0.104442  0.110951  0.000378  1.008136  0.0
H  H57  1  0.78009172  0.67076007  0.16457693  1  0.093516  -5.4e-05  0.103723  0.105583  -8.1e-05  1.017387  0.0
H  H58  1  0.33893879  0.69786179  0.97241056  1  0.07327  0.000914  0.10195  0.104058  0.000425  1.015492  0.0
H  H59  1  0.41387963  0.86216668  0.92718334  1  0.087204  0.001155  0.115736  0.091357  5.3e-05  1.014025  0.001
H  H60  1  0.82887809  0.72129581  0.02449039  1  0.085901  0.000147  0.107258  0.119506  3e-05  0.996068  0.0
C  C61  1  0.62048739  0.99938781  0.62021248  1  -0.074251  -0.000947  -0.073354  -0.104661  -0.001553  3.888235  -0.001
C  C62  1  0.74880409  0.99322552  0.65283560  1  -0.010909  0.009252  -0.027154  -0.048388  0.004578  4.020831  0.008
C  C63  1  0.76233760  0.98134030  0.73181009  1  -0.07176  -0.002973  -0.082318  -0.112387  -0.003606  3.946001  -0.002
C  C64  1  0.50305213  0.00031130  0.66538848  1  -0.004697  0.004073  -0.021807  -0.025097  0.002115  4.001  0.003
C  C65  1  0.46250515  0.46552231  0.52311931  1  -0.089505  6.4e-05  -0.002183  0.079429  2.8e-05  3.994551  0.0
C  C66  1  0.86965634  0.00036015  0.60208103  1  1.549902  -0.002531  0.20962  0.566459  -0.003888  4.212169  0.0
C  C67  1  0.86524910  0.48752643  0.89901013  1  0.008101  1.9e-05  -0.003214  0.080564  -0.0  3.998676  0.0
C  C68  1  0.64689517  0.97654809  0.77802828  1  -0.007133  0.006516  -0.029459  -0.053008  0.003275  4.021278  0.005
C  C69  1  0.47907020  0.43154640  0.60566228  1  -0.00853  -1.1e-05  -0.077674  -0.159247  -3e-05  3.932787  0.0
C  C70  1  0.56824909  0.46274266  0.64196351  1  -0.022408  0.000163  -0.011439  -0.031228  9.5e-05  4.006377  0.0
C  C71  1  0.92271346  0.74555620  0.55456998  1  0.532633  -0.010006  0.040904  -0.012664  -0.010858  3.914756  -0.007
C  C72  1  0.59067049  0.43175696  0.72872665  1  1.389025  0.000363  0.245216  0.4791  0.000208  4.10885  0.0
C  C73  1  0.80712787  0.43305935  0.05795002  1  -0.01718  0.000111  -0.01899  -0.041583  6.5e-05  4.025781  0.0
C  C74  1  0.36454219  0.01349086  0.62897909  1  1.536089  -0.006158  0.189343  0.540381  -0.008018  4.223384  -0.007
C  C75  1  0.70795030  0.51810931  0.99990018  1  -0.039427  7.5e-05  -0.086794  -0.10286  3.3e-05  3.995621  0.0
C  C76  1  0.98613419  0.63492371  0.58513403  1  0.327382  0.004527  0.097715  0.198643  0.002186  4.054066  0.004
C  C77  1  0.51622264  0.98937550  0.74391854  1  -0.043356  -0.001984  -0.078599  -0.104044  -0.002382  3.930124  -0.001
C  C78  1  0.73566135  0.54396626  0.92248216  1  -0.065928  2.9e-05  -0.08155  -0.117393  2e-05  3.971482  0.0
C  C79  1  0.83012138  0.17460927  0.31306536  1  0.570811  -0.009752  0.038005  -0.020734  -0.010366  3.917777  -0.006
C  C80  1  0.89635027  0.51391272  0.81974061  1  -0.061146  0.00018  -0.082115  -0.154301  9.7e-05  3.958841  0.0
C  C81  1  0.66025542  0.95945983  0.86334334  1  1.549379  -0.001538  0.205949  0.570932  -0.002536  4.207058  -0.001
C  C82  1  0.62636122  0.56667123  0.51560330  1  -0.038432  4.7e-05  -0.079444  -0.119431  0.0  3.962282  0.0
C  C83  1  0.74582600  0.19967075  0.42744761  1  0.472767  -0.009119  0.043564  0.083973  -0.010038  3.931466  -0.006
C  C84  1  0.52245007  0.20591804  0.88429519  1  0.521305  -0.007586  0.04654  -0.009511  -0.008074  3.902168  -0.005
C  C85  1  0.96607793  0.40135709  0.95691318  1  -0.091063  6.6e-05  1.7e-05  0.083296  2.5e-05  3.979393  0.0
C  C86  1  0.56162877  0.29815131  0.85378662  1  0.3557  0.004557  0.1109  0.220385  0.00227  4.008403  0.004
C  C87  1  0.79823133  0.28388626  0.27353586  1  0.275715  0.004793  0.096795  0.200431  0.002345  4.03806  0.004
C  C88  1  0.02301112  0.45870965  0.79698592  1  -0.030033  5.1e-05  -0.016584  -0.036287  3.3e-05  3.999361  0.0
C  C89  1  0.76520146  0.41611859  0.14002096  1  1.380846  0.000392  0.239429  0.470948  0.00026  4.123437  0.0
C  C90  1  0.64128749  0.53169641  0.59578059  1  -0.020821  7.9e-05  -0.08279  -0.098016  4.5e-05  3.991217  0.0
C  C91  1  0.05885703  0.48512674  0.71338404  1  1.374026  0.000363  0.24119  0.481717  0.000205  4.105941  0.0
C  C92  1  0.73781050  0.35302248  0.31481144  1  -0.017712  -0.012908  -0.081491  -0.136667  -0.013729  3.930074  -0.008
C  C93  1  0.61279254  0.33411609  0.90607791  1  -0.045035  -0.010655  -0.070693  -0.118884  -0.011341  3.900656  -0.006
C  C94  1  0.93371068  0.37558261  0.03647801  1  -0.029982  7.8e-05  -0.078905  -0.153771  4.5e-05  3.935051  0.0
C  C95  1  0.98116720  0.75152884  0.42930116  1  0.40701  -0.009059  0.04096  0.075907  -0.009921  3.93637  -0.006
C  C96  1  0.05079723  0.58201336  0.53390201  1  -0.028798  -0.013588  -0.082456  -0.147796  -0.014407  3.947071  -0.008
C  C97  1  0.71240375  0.30897989  0.39273410  1  0.050192  0.004608  -0.086848  -0.110638  0.002139  4.007803  0.004
C  C98  1  0.04554577  0.64213916  0.45501210  1  0.060697  0.004508  -0.08598  -0.113769  0.002051  4.014355  0.004
C  C99  1  0.12181873  0.37262912  0.85439871  1  -0.031218  0.000152  -0.077397  -0.075153  8.4e-05  3.959886  0.0
C  C100  1  0.62221342  0.27593772  0.98547882  1  -0.022251  0.004595  -0.087385  -0.114106  0.002227  4.023718  0.004
C  C101  1  0.58201964  0.18487008  0.01114238  1  0.481268  -0.007493  0.030615  0.047168  -0.008393  3.986417  -0.005
C  C102  1  0.09443626  0.34503055  0.93214019  1  0.045718  0.000283  -0.080344  -0.114648  0.000169  3.936671  0.0
C  C103  1  0.37947700  0.00070183  0.37973069  1  -0.0734  -0.000945  -0.073262  -0.104941  -0.00155  3.888054  -0.001
C  C104  1  0.25116667  0.00685229  0.34711354  1  -0.012115  0.009266  -0.027286  -0.048814  0.004582  4.02155  0.008
C  C105  1  0.23768953  0.01864995  0.26815729  1  -0.069228  -0.002972  -0.082067  -0.111683  -0.003604  3.946569  -0.002
C  C106  1  0.49691154  0.99974171  0.33453620  1  -0.004435  0.004081  -0.021692  -0.024529  0.00212  4.000946  0.003
C  C107  1  0.53751780  0.53447992  0.47690887  1  -0.042469  6.4e-05  -0.002108  0.079706  2.8e-05  3.994256  0.0
C  C108  1  0.13033494  0.99968392  0.39788989  1  1.552365  -0.002594  0.209366  0.56647  -0.003944  4.2127  0.0
C  C109  1  0.13472898  0.51249096  0.10100394  1  0.008497  1.9e-05  -0.0032  0.080433  -0.0  3.998563  0.0
C  C110  1  0.35308958  0.02343405  0.22192176  1  -0.008838  0.006517  -0.029642  -0.053274  0.003274  4.02149  0.005
C  C111  1  0.52096661  0.56844278  0.39436874  1  -0.008608  -1.2e-05  -0.077841  -0.159402  -3.1e-05  3.933028  0.0
C  C112  1  0.43178766  0.53724125  0.35807287  1  -0.021482  0.000163  -0.011413  -0.0311  9.5e-05  4.006092  0.0
C  C113  1  0.07724728  0.25447784  0.44540083  1  0.531676  -0.009994  0.040914  -0.012884  -0.010846  3.915001  -0.007
C  C114  1  0.40934690  0.56821383  0.27130363  1  1.388067  0.000364  0.245343  0.479048  0.000208  4.108308  0.0
C  C115  1  0.19289545  0.56697159  0.94203478  1  -0.017139  0.000111  -0.018937  -0.041422  6.4e-05  4.02596  0.0
C  C116  1  0.63542468  0.98658382  0.37096832  1  1.536863  -0.006141  0.189481  0.541029  -0.008  4.223707  -0.007
C  C117  1  0.29203228  0.48190106  0.00008838  1  -0.03916  7.4e-05  -0.086783  -0.102738  3.3e-05  3.995802  0.0
C  C118  1  0.01388372  0.36508925  0.41486762  1  0.328017  0.004517  0.097612  0.198683  0.002181  4.054315  0.004
C  C119  1  0.48374468  0.01066771  0.25601875  1  -0.043  -0.001991  -0.078961  -0.104856  -0.002389  3.931255  -0.001
C  C120  1  0.26428636  0.45603489  0.07750343  1  -0.066471  2.9e-05  -0.081762  -0.117571  2e-05  3.971642  0.0
C  C121  1  0.16992233  0.82537215  0.68697374  1  0.571094  -0.009714  0.038275  -0.020359  -0.010322  3.918681  -0.006
C  C122  1  0.10368570  0.48609513  0.18028230  1  -0.061551  0.00018  -0.082114  -0.154002  9.8e-05  3.95856  0.0
C  C123  1  0.33974664  0.04048069  0.13661165  1  1.548488  -0.001544  0.206324  0.571557  -0.002535  4.207001  -0.001
C  C124  1  0.37368216  0.43330284  0.48443135  1  -0.039744  4.7e-05  -0.079422  -0.119241  0.0  3.962596  0.0
C  C125  1  0.25419734  0.80035751  0.57254674  1  0.472608  -0.009079  0.043718  0.084319  -0.010002  3.932208  -0.006
C  C126  1  0.47750282  0.79405533  0.11569388  1  0.511644  -0.007607  0.046278  -0.009865  -0.008087  3.902057  -0.005
C  C127  1  0.03390919  0.59866025  0.04309079  1  -0.090886  6.7e-05  1.2e-05  0.08315  2.5e-05  3.978947  0.0
C  C128  1  0.43832758  0.70181550  0.14621632  1  0.364669  0.004568  0.11075  0.220814  0.002273  4.007535  0.004
C  C129  1  0.20180700  0.71611269  0.72651642  1  0.275685  0.004786  0.096641  0.200713  0.002341  4.039396  0.004
C  C130  1  0.97701317  0.54127790  0.20303550  1  -0.031109  5.1e-05  -0.01661  -0.036568  3.3e-05  3.999956  0.0
C  C131  1  0.23482874  0.58389110  0.85998733  1  1.381175  0.000392  0.239351  0.470761  0.000259  4.123797  0.0
C  C132  1  0.35875165  0.46828097  0.40425377  1  -0.019778  7.9e-05  -0.082754  -0.098062  4.5e-05  3.991382  0.0
C  C133  1  0.94118290  0.51489774  0.28664110  1  1.373556  0.000363  0.241722  0.482449  0.000204  4.105613  0.0
C  C134  1  0.26217427  0.64705325  0.68518452  1  -0.018382  -0.012859  -0.081621  -0.137008  -0.013675  3.931286  -0.008
C  C135  1  0.38720005  0.66579334  0.09394552  1  -0.028218  -0.010665  -0.070971  -0.119556  -0.011361  3.900112  -0.007
C  C136  1  0.06627154  0.62443141  0.96350403  1  -0.030899  7.9e-05  -0.078854  -0.153786  4.5e-05  3.934135  0.0
C  C137  1  0.01881001  0.24844985  0.57071587  1  0.408013  -0.009049  0.040762  0.075543  -0.009907  3.936582  -0.006
C  C138  1  0.94930321  0.41796692  0.46612326  1  -0.029658  -0.013563  -0.082585  -0.147694  -0.01438  3.947376  -0.008
C  C139  1  0.28766534  0.69107189  0.60727086  1  0.050389  0.004589  -0.086741  -0.11051  0.002132  4.008207  0.004
C  C140  1  0.95446277  0.35784462  0.54500206  1  0.061006  0.004507  -0.085837  -0.113634  0.002051  4.014152  0.004
C  C141  1  0.87819221  0.62737580  0.14564273  1  -0.030463  0.000153  -0.077466  -0.075501  8.4e-05  3.959682  0.0
C  C142  1  0.37772460  0.72399423  0.01454344  1  -0.024248  0.0046  -0.087151  -0.113709  0.002229  4.023317  0.004
C  C143  1  0.41794993  0.81505246  0.98885761  1  0.481  -0.007513  0.030495  0.046919  -0.00841  3.985542  -0.005
C  C144  1  0.90558294  0.65498750  0.06789998  1  0.04623  0.000284  -0.080212  -0.113973  0.000169  3.935865  0.0
N  N145  1  0.92228191  0.80256124  0.47911060  1  -1.207263  0.04843  -0.323123  -0.219344  0.025699  3.620456  0.045
N  N146  1  0.80523637  0.13348480  0.38817480  1  -1.20611  0.049518  -0.324647  -0.213352  0.026294  3.634658  0.046
N  N147  1  0.54784939  0.34721857  0.77277790  1  -1.241066  0.00085  -0.390743  -0.358799  0.000352  3.5818  0.0
N  N148  1  0.53351835  0.15004435  0.96077859  1  -1.202901  0.053202  -0.32577  -0.232294  0.028281  3.618324  0.048
N  N149  1  0.97958004  0.58521741  0.66523396  1  -1.257003  0.000708  -0.399869  -0.38094  0.000208  3.611892  0.0
N  N150  1  0.82991917  0.31748679  0.19493586  1  -1.24729  0.000871  -0.400859  -0.386018  0.000366  3.585758  0.0
N  N151  1  0.07768698  0.19749177  0.52086439  1  -1.2074  0.048489  -0.322937  -0.218918  0.025741  3.620384  0.046
N  N152  1  0.19475915  0.86647978  0.61185841  1  -1.206433  0.049532  -0.32479  -0.213768  0.026298  3.635335  0.046
N  N153  1  0.45212716  0.65277003  0.22723081  1  -1.241724  0.000851  -0.390617  -0.358965  0.000353  3.58163  0.0
N  N154  1  0.46647481  0.84988784  0.03920920  1  -1.203759  0.053248  -0.325715  -0.232068  0.028291  3.618414  0.048
N  N155  1  0.02046822  0.41478698  0.33477646  1  -1.257157  0.000706  -0.399919  -0.381533  0.000206  3.611365  0.0
N  N156  1  0.17007718  0.68251387  0.80508966  1  -1.247847  0.00087  -0.400712  -0.385904  0.000365  3.586592  0.0
O  O157  1  0.54210422  0.98356130  0.89499114  1  -1.171415  0.077286  -0.324795  -0.581543  0.040641  2.419645  0.066
O  O158  1  0.87927050  0.96439322  0.54627627  1  -1.172795  0.091276  -0.311743  -0.573482  0.047803  2.540514  0.076
O  O159  1  0.25157853  0.02887106  0.66553897  1  -1.148205  0.082455  -0.322991  -0.552796  0.042573  2.159135  0.071
O  O160  1  0.95705883  0.04128166  0.61780619  1  -1.153138  0.081311  -0.307965  -0.546425  0.042844  2.367389  0.067
O  O161  1  0.36052516  0.00929229  0.56026343  1  -1.134392  0.093193  -0.310308  -0.53153  0.047907  2.25224  0.081
O  O162  1  0.72134445  0.92362496  0.03712862  1  -1.203597  0.064401  -0.567328  -0.754008  0.033721  2.110887  0.052
O  O163  1  0.64660115  0.47903626  0.75733024  1  -1.125374  0.000112  -0.279215  -0.461521  4.4e-05  2.142648  0.0
O  O164  1  0.67505886  0.48733678  0.15687618  1  -1.124772  1.3e-05  -0.275913  -0.456447  -8.6e-05  2.172272  0.0
O  O165  1  0.15277770  0.42298381  0.68963421  1  -1.139241  0.000168  -0.296403  -0.481473  7.3e-05  2.087845  0.0
O  O166  1  0.78242760  0.92292407  0.89867756  1  -1.175188  0.003759  -0.333157  -0.556161  0.001059  2.125504  0.003
O  O167  1  0.45790659  0.01633928  0.10499596  1  -1.170261  0.077226  -0.324911  -0.581578  0.040596  2.419183  0.066
O  O168  1  0.12078109  0.03565372  0.45368395  1  -1.172926  0.091354  -0.311555  -0.573372  0.047848  2.541353  0.076
O  O169  1  0.74836356  0.97117010  0.33444948  1  -1.148711  0.082455  -0.323012  -0.553064  0.042569  2.160595  0.071
O  O170  1  0.04293353  0.95871639  0.38224322  1  -1.155128  0.081361  -0.308069  -0.546602  0.042861  2.368429  0.067
O  O171  1  0.63939513  0.99083777  0.43966379  1  -1.134588  0.093172  -0.31045  -0.531995  0.047896  2.252305  0.081
O  O172  1  0.27862176  0.07632280  0.96283458  1  -1.24184  0.064503  -0.566782  -0.75311  0.033722  2.111302  0.052
O  O173  1  0.35340544  0.52092297  0.24271463  1  -1.124519  0.000112  -0.279293  -0.461602  4.4e-05  2.142524  0.0
O  O174  1  0.32497495  0.51268209  0.84311237  1  -1.12501  1.4e-05  -0.27573  -0.456236  -8.5e-05  2.171893  0.0
O  O175  1  0.84734306  0.57703730  0.31041218  1  -1.13903  0.000168  -0.296663  -0.481613  7.3e-05  2.088256  0.0
O  O176  1  0.21755743  0.07706299  0.10129133  1  -1.174987  0.003747  -0.333085  -0.556167  0.001054  2.125949  0.003
