# generated using pymatgen
data_CdH14C20(NO)4
_symmetry_space_group_name_H-M   'P 1'
_cell_length_a   10.45435143
_cell_length_b   15.10657350
_cell_length_c   31.67142971
_cell_angle_alpha   89.99983734
_cell_angle_beta   90.00000864
_cell_angle_gamma   109.80609021
_symmetry_Int_Tables_number   1
_chemical_formula_structural   CdH14C20(NO)4
_chemical_formula_sum   'Cd8 H112 C160 N32 O32'
_cell_volume   4705.96509368
_cell_formula_units_Z   8
loop_
 _symmetry_equiv_pos_site_id
 _symmetry_equiv_pos_as_xyz
  1  'x, y, z'
loop_
 _atom_site_type_symbol
 _atom_site_label
 _atom_site_symmetry_multiplicity
 _atom_site_fract_x
 _atom_site_fract_y
 _atom_site_fract_z
 _atom_site_occupancy
 _atom_site_pbe_bader_charge
 _atom_site_pbe_bader_spin_density
 _atom_site_pbe_cm5_charge
 _atom_site_pbe_ddec_charge
 _atom_site_pbe_ddec_spin_density
 _atom_site_pbe_ddec_sum_bond_order
 _atom_site_pbe_magmom
Cd  Cd0  1  0.65961867  0.56873875  0.14105168  1  1.292662  0  0.766318  0.870961  0  2.183311  0
Cd  Cd1  1  0.84038376  0.93126486  0.64105223  1  1.292687  0  0.766314  0.870975  0  2.183313  0
Cd  Cd2  1  0.34037902  0.43126323  0.85894799  1  1.292647  0  0.766318  0.870954  0  2.183302  0
Cd  Cd3  1  0.15962031  0.06873645  0.35894776  1  1.292621  0  0.766292  0.870901  0  2.18333  0
Cd  Cd4  1  0.75794894  0.84235435  0.14316349  1  1.292139  0  0.768716  0.868761  0  2.204358  0
Cd  Cd5  1  0.74205962  0.65765209  0.64316378  1  1.292036  0  0.768711  0.86879  0  2.204313  0
Cd  Cd6  1  0.24205839  0.15764979  0.85683681  1  1.291996  0  0.768685  0.86878  0  2.204298  0
Cd  Cd7  1  0.25794637  0.34234924  0.35683621  1  1.291976  0  0.768696  0.868792  0  2.204324  0
H  H8  1  0.93864235  0.64985334  0.71888219  1  0.113516  0  0.121485  0.100348  0  0.986395  0
H  H9  1  0.56136016  0.85014836  0.21888188  1  0.113526  0  0.121463  0.10037  0  0.986453  0
H  H10  1  0.06135779  0.35014374  0.28111874  1  0.113971  0  0.121477  0.100282  0  0.986479  0
H  H11  1  0.43864237  0.14985575  0.78111810  1  0.113514  0  0.121481  0.100325  0  0.98648  0
H  H12  1  0.95043703  0.65271077  0.79812585  1  0.117843  0  0.114729  0.125226  0  1.005596  0
H  H13  1  0.54956435  0.84729250  0.29812586  1  0.117712  0  0.11476  0.125224  0  1.005577  0
H  H14  1  0.04956158  0.34728910  0.20187477  1  0.11785  0  0.114706  0.125174  0  1.005653  0
H  H15  1  0.45043684  0.15270880  0.70187444  1  0.117843  0  0.114746  0.125242  0  1.005526  0
H  H16  1  0.54873334  0.67439033  0.79863859  1  0.113183  0  0.111675  0.127191  0  1.011279  0
H  H17  1  0.95126574  0.82561012  0.29863833  1  0.113209  0  0.111668  0.127214  0  1.01131  0
H  H18  1  0.45126555  0.32560815  0.20136140  1  0.113199  0  0.111705  0.127248  0  1.011257  0
H  H19  1  0.04873282  0.17438765  0.70136134  1  0.113216  0  0.111681  0.127188  0  1.011316  0
H  H20  1  0.55599236  0.67400639  0.71951649  1  0.098389  0  0.118522  0.091022  0  0.99659  0
H  H21  1  0.94400785  0.82599248  0.21951655  1  0.098389  0  0.118501  0.090995  0  0.996562  0
H  H22  1  0.44400716  0.32599139  0.28048350  1  0.098379  0  0.118508  0.090994  0  0.996579  0
H  H23  1  0.05599171  0.17400740  0.78048344  1  0.098388  0  0.118518  0.091012  0  0.996562  0
H  H24  1  0.65007005  0.66885086  0.86514680  1  0.132306  0  0.117797  0.101935  0  1.023858  0
H  H25  1  0.84993273  0.83115127  0.36514685  1  0.13137  0  0.117802  0.101926  0  1.023834  0
H  H26  1  0.34992985  0.33114972  0.13485350  1  0.132324  0  0.117798  0.101938  0  1.023826  0
H  H27  1  0.15006937  0.16884792  0.63485314  1  0.132309  0  0.117804  0.101961  0  1.023814  0
H  H28  1  0.57027443  0.44060866  0.06142826  1  0.117529  0  0.115427  0.09139  0  1.010664  0
H  H29  1  0.92972463  0.05939168  0.56142806  1  0.117545  0  0.115411  0.091383  0  1.010604  0
H  H30  1  0.42972475  0.55938842  0.93857204  1  0.117587  0  0.115385  0.091351  0  1.010666  0
H  H31  1  0.07027340  0.94061100  0.43857192  1  0.117515  0  0.115393  0.091369  0  1.010636  0
H  H32  1  0.60089835  0.43666999  0.98276211  1  0.085977  0  0.107725  0.114571  0  1.002543  0
H  H33  1  0.89910244  0.06332758  0.48276189  1  0.086044  0  0.107737  0.114607  0  1.002497  0
H  H34  1  0.39910179  0.56332709  0.01723756  1  0.086029  0  0.107757  0.114655  0  1.002462  0
H  H35  1  0.10089684  0.93667370  0.51723810  1  0.086023  0  0.107734  0.114605  0  1.00249  0
H  H36  1  0.89692313  0.71635119  0.99192444  1  0.113334  0  0.11287  0.120925  0  0.998957  0
H  H37  1  0.60307892  0.78364731  0.49192581  1  0.113298  0  0.112857  0.120952  0  0.998916  0
H  H38  1  0.10307413  0.28364588  0.00807523  1  0.113289  0  0.112834  0.120923  0  0.998935  0
H  H39  1  0.39692227  0.21635399  0.50807449  1  0.113267  0  0.112853  0.120958  0  0.998882  0
H  H40  1  0.85462974  0.70772309  0.07003111  1  0.125627  0  0.115658  0.087545  0  1.024971  0
H  H41  1  0.64536800  0.79227675  0.57003248  1  0.125585  0  0.115671  0.087607  0  1.024953  0
H  H42  1  0.14536469  0.29227606  0.92996793  1  0.125567  0  0.11568  0.087657  0  1.024874  0
H  H43  1  0.35462840  0.20772452  0.42996751  1  0.125594  0  0.115672  0.087658  0  1.024931  0
H  H44  1  0.85374487  0.56495430  0.21763616  1  0.123089  0  0.120988  0.098149  0  0.990707  0
H  H45  1  0.64625539  0.93504669  0.71763544  1  0.123076  0  0.120983  0.098128  0  0.990705  0
H  H46  1  0.14625349  0.43504908  0.78236382  1  0.123064  0  0.120984  0.098144  0  0.990727  0
H  H47  1  0.35374447  0.06495179  0.28236360  1  0.123078  0  0.120987  0.098118  0  0.99069  0
H  H48  1  0.86232528  0.56529690  0.29680941  1  0.096635  0  0.113527  0.125061  0  1.010532  0
H  H49  1  0.63767313  0.93470215  0.79680869  1  0.096648  0  0.113514  0.124983  0  1.010615  0
H  H50  1  0.13767174  0.43470366  0.70319057  1  0.096653  0  0.113538  0.125024  0  1.010534  0
H  H51  1  0.36232571  0.06529422  0.20319098  1  0.096632  0  0.113514  0.125002  0  1.010589  0
H  H52  1  0.45067776  0.56838407  0.29655997  1  0.117455  0  0.11262  0.12869  0  1.01146  0
H  H53  1  0.04932102  0.93161278  0.79655987  1  0.117422  0  0.112626  0.128699  0  1.011464  0
H  H54  1  0.54931984  0.43161370  0.70344034  1  0.117436  0  0.112628  0.1287  0  1.01142  0
H  H55  1  0.95067849  0.06838500  0.20344074  1  0.11746  0  0.112644  0.128722  0  1.011487  0
H  H56  1  0.46038479  0.56970680  0.21720990  1  0.111898  0  0.117795  0.092079  0  0.997211  0
H  H57  1  0.03961550  0.93029128  0.71720981  1  0.111827  0  0.117789  0.092044  0  0.997256  0
H  H58  1  0.53961218  0.43029166  0.78279040  1  0.111927  0  0.117781  0.092092  0  0.997234  0
H  H59  1  0.96038632  0.06970932  0.28279049  1  0.111903  0  0.117778  0.092068  0  0.997225  0
H  H60  1  0.55270420  0.56943570  0.36280358  1  0.174414  0  0.121472  0.107513  0  1.026874  0
H  H61  1  0.94729374  0.93056432  0.86280288  1  0.174446  0  0.121467  0.107541  0  1.026843  0
H  H62  1  0.44729507  0.43056558  0.63719703  1  0.174448  0  0.121477  0.107555  0  1.026838  0
H  H63  1  0.05270227  0.06943414  0.13719679  1  0.174434  0  0.121464  0.107536  0  1.026799  0
H  H64  1  0.93065689  0.18289193  0.13743070  1  0.079068  0  0.096982  0.093479  0  1.04273  0
H  H65  1  0.56934358  0.31710931  0.63743139  1  0.078981  0  0.096993  0.093484  0  1.042742  0
H  H66  1  0.06934368  0.81711006  0.86256897  1  0.078957  0  0.097001  0.093496  0  1.04272  0
H  H67  1  0.43065886  0.68289059  0.36256922  1  0.078935  0  0.096989  0.093511  0  1.042635  0
H  H68  1  0.49527976  0.06423531  0.14614399  1  0.093591  0  0.098181  0.097347  0  1.048479  0
H  H69  1  0.00472303  0.43576580  0.64614357  1  0.093562  0  0.098205  0.097385  0  1.048442  0
H  H70  1  0.50472201  0.93576319  0.85385600  1  0.093591  0  0.098193  0.097351  0  1.048472  0
H  H71  1  0.99528076  0.56423692  0.35385515  1  0.093615  0  0.098186  0.097364  0  1.048449  0
H  H72  1  0.91663986  0.34452676  0.13810123  1  0.116347  0  0.097278  0.09525  0  1.04949  0
H  H73  1  0.58336062  0.15547448  0.63810182  1  0.116378  0  0.097268  0.095233  0  1.049484  0
H  H74  1  0.08335942  0.65547452  0.86189971  1  0.116406  0  0.09726  0.095272  0  1.049472  0
H  H75  1  0.41664115  0.84452402  0.36189879  1  0.116362  0  0.097219  0.095208  0  1.049583  0
H  H76  1  0.60069833  0.53982641  0.48486535  1  0.113905  0  0.109972  0.112982  0  1.030652  0
H  H77  1  0.89930282  0.96017423  0.98486429  1  0.113836  0  0.109991  0.113007  0  1.030564  0
H  H78  1  0.39930286  0.46017489  0.51513495  1  0.11384  0  0.109955  0.112918  0  1.030692  0
H  H79  1  0.10070120  0.03982498  0.01513633  1  0.113934  0  0.109966  0.112941  0  1.030651  0
H  H80  1  0.58294047  0.55734580  0.56383241  1  0.112534  0  0.121069  0.096917  0  0.998811  0
H  H81  1  0.91706074  0.94265129  0.06383073  1  0.112538  0  0.121052  0.096927  0  0.998773  0
H  H82  1  0.41706289  0.44265200  0.43616853  1  0.112544  0  0.121075  0.096932  0  0.998777  0
H  H83  1  0.08294261  0.05734651  0.93616926  1  0.112576  0  0.121091  0.096933  0  0.998853  0
H  H84  1  0.96904081  0.75495934  0.56965078  1  0.105913  0  0.116037  0.087649  0  1.017974  0
H  H85  1  0.53096072  0.74503842  0.06964998  1  0.105928  0  0.116048  0.087645  0  1.017976  0
H  H86  1  0.03096163  0.24504056  0.43034921  1  0.105938  0  0.116043  0.087655  0  1.017975  0
H  H87  1  0.46903981  0.25496147  0.93035001  1  0.105923  0  0.116042  0.087636  0  1.017975  0
H  H88  1  0.00305278  0.74648009  0.49144084  1  0.050429  0  0.112872  0.121309  0  0.985314  0
H  H89  1  0.49694720  0.75352110  0.99143975  1  0.050413  0  0.112842  0.121283  0  0.985383  0
H  H90  1  0.99694621  0.25352260  0.50855915  1  0.050442  0  0.112824  0.121243  0  0.985456  0
H  H91  1  0.50305275  0.24648159  0.00856024  1  0.050401  0  0.112844  0.121304  0  0.985332  0
H  H92  1  0.48112493  0.22581591  0.14652308  1  0.069705  0  0.093264  0.081632  0  1.068678  0
H  H93  1  0.01887752  0.27418449  0.64652225  1  0.069686  0  0.093264  0.081628  0  1.068615  0
H  H94  1  0.51887425  0.77418117  0.85347785  1  0.069718  0  0.093265  0.081631  0  1.068668  0
H  H95  1  0.98112722  0.72581823  0.35347742  1  0.06976  0  0.093267  0.081639  0  1.068689  0
H  H96  1  0.90620424  0.68985779  0.42119462  1  0.118385  0  0.117301  0.088318  0  1.006238  0
H  H97  1  0.59379551  0.81014395  0.92119375  1  0.118369  0  0.11736  0.08842  0  1.00621  0
H  H98  1  0.09379633  0.31014420  0.57880568  1  0.118414  0  0.117311  0.088347  0  1.006177  0
H  H99  1  0.40620405  0.18985593  0.07880687  1  0.118373  0  0.117353  0.088406  0  1.006189  0
H  H100  1  0.70421101  0.51515485  0.91691123  1  0.165714  0  0.117372  0.101874  0  1.029339  0
H  H101  1  0.79579283  0.98484344  0.41691170  1  0.165736  0  0.117364  0.101881  0  1.029334  0
H  H102  1  0.29578687  0.48484151  0.08308876  1  0.165791  0  0.11734  0.101891  0  1.029174  0
H  H103  1  0.20421125  0.01515787  0.58308798  1  0.165764  0  0.117365  0.101916  0  1.029299  0
H  H104  1  0.44158107  0.82502567  0.13876490  1  0.116223  0  0.100445  0.118666  0  1.063052  0
H  H105  1  0.05841853  0.67497503  0.63876420  1  0.116216  0  0.100427  0.118663  0  1.063055  0
H  H106  1  0.55841792  0.17497702  0.86123572  1  0.116238  0  0.100409  0.118665  0  1.063081  0
H  H107  1  0.94158324  0.32502346  0.36123705  1  0.116236  0  0.100405  0.118671  0  1.06308  0
H  H108  1  0.17726224  0.53545314  0.14469851  1  0.100914  0  0.100092  0.103207  0  1.025641  0
H  H109  1  0.32273513  0.96454891  0.64469870  1  0.100848  0  0.100099  0.103203  0  1.025633  0
H  H110  1  0.82273641  0.46454884  0.85529990  1  0.100882  0  0.100103  0.103203  0  1.02561  0
H  H111  1  0.67726314  0.03545027  0.35530318  1  0.100807  0  0.100074  0.103161  0  1.025674  0
H  H112  1  0.97555758  0.58710522  0.14486015  1  0.146558  0  0.100496  0.11939  0  1.057665  0
H  H113  1  0.52444067  0.91289763  0.64485977  1  0.146547  0  0.100498  0.119403  0  1.057763  0
H  H114  1  0.02444140  0.41289746  0.85513983  1  0.146534  0  0.100496  0.119426  0  1.057751  0
H  H115  1  0.47555985  0.08710226  0.35514180  1  0.146558  0  0.100508  0.11947  0  1.057702  0
H  H116  1  0.23937378  0.87648139  0.13877938  1  0.097515  0  0.101691  0.109152  0  1.016495  0
H  H117  1  0.26062744  0.62352072  0.63877750  1  0.097576  0  0.101653  0.109108  0  1.016519  0
H  H118  1  0.76062550  0.12351989  0.86122187  1  0.097564  0  0.101649  0.109094  0  1.016515  0
H  H119  1  0.73937528  0.37647778  0.36122375  1  0.09761  0  0.101663  0.109136  0  1.01647  0
C  C120  1  0.85586585  0.65680374  0.73805151  1  0.427487  0  0.047736  0.092211  0  3.949774  0
C  C121  1  0.64413503  0.84319852  0.23805153  1  0.427447  0  0.047711  0.092108  0  3.9499  0
C  C122  1  0.14413170  0.34319192  0.26194911  1  0.427009  0  0.047745  0.092337  0  3.949811  0
C  C123  1  0.35586751  0.15680559  0.76194877  1  0.42748  0  0.047795  0.092314  0  3.949722  0
C  C124  1  0.86133667  0.65771236  0.78184082  1  0.025297  0  -0.075637  -0.163191  0  3.916965  0
C  C125  1  0.63866605  0.84229173  0.28184021  1  0.025438  0  -0.075666  -0.163224  0  3.917022  0
C  C126  1  0.13866122  0.34228400  0.21815980  1  0.025306  0  -0.07567  -0.163238  0  3.917021  0
C  C127  1  0.36133615  0.15771168  0.71815946  1  0.025301  0  -0.075723  -0.163346  0  3.916842  0
C  C128  1  0.75006889  0.66490237  0.80477315  1  -0.065195  0  0.012289  0.118728  0  4.016306  0
C  C129  1  0.74993410  0.83510227  0.30477319  1  -0.065183  0  0.012294  0.118877  0  4.016188  0
C  C130  1  0.24992803  0.33509399  0.19522715  1  -0.065204  0  0.012288  0.118727  0  4.016367  0
C  C131  1  0.25006805  0.16489903  0.69522680  1  -0.065153  0  0.012233  0.118777  0  4.016293  0
C  C132  1  0.63811241  0.67091742  0.78200467  1  0.056017  0  -0.077177  -0.16713  0  3.918965  0
C  C133  1  0.86188835  0.82908455  0.28200473  1  0.055972  0  -0.077219  -0.167287  0  3.919156  0
C  C134  1  0.36188356  0.32907893  0.21799500  1  0.056013  0  -0.077275  -0.167302  0  3.919098  0
C  C135  1  0.13811218  0.17091534  0.71799463  1  0.055918  0  -0.077203  -0.167251  0  3.919091  0
C  C136  1  0.64146035  0.67007908  0.73820305  1  0.414242  0  0.04766  0.097148  0  3.9648  0
C  C137  1  0.85853890  0.82992176  0.23820342  1  0.414218  0  0.04768  0.097149  0  3.964948  0
C  C138  1  0.35853624  0.32991657  0.26179662  1  0.413829  0  0.047693  0.097186  0  3.964738  0
C  C139  1  0.14146134  0.17007953  0.76179657  1  0.414277  0  0.04774  0.097304  0  3.964761  0
C  C140  1  0.74317074  0.66429024  0.85071077  1  0.640202  0  0.072596  0.014189  0  3.906409  0
C  C141  1  0.75682925  0.83571408  0.35071049  1  0.640252  0  0.072562  0.014136  0  3.906509  0
C  C142  1  0.25682556  0.33570682  0.14928922  1  0.640212  0  0.072676  0.014273  0  3.906383  0
C  C143  1  0.24316906  0.16428720  0.64928918  1  0.640225  0  0.072571  0.014164  0  3.906367  0
C  C144  1  0.64116524  0.50000922  0.04447888  1  0.461848  0  0.044251  0.090923  0  3.966095  0
C  C145  1  0.85883160  0.99999077  0.54447871  1  0.461874  0  0.044215  0.09085  0  3.965934  0
C  C146  1  0.35883168  0.49998713  0.95552111  1  0.462026  0  0.044171  0.090775  0  3.966231  0
C  C147  1  0.14116546  0.00001190  0.45552096  1  0.461824  0  0.044181  0.090817  0  3.966086  0
C  C148  1  0.65958994  0.49821061  0.00104573  1  -0.037065  0  -0.083883  -0.18049  0  3.9579  0
C  C149  1  0.84040764  0.00178871  0.50104560  1  -0.037112  0  -0.083917  -0.180503  0  3.957963  0
C  C150  1  0.34040828  0.50178646  0.99895457  1  -0.037223  0  -0.083899  -0.180562  0  3.958022  0
C  C151  1  0.15958909  0.99821326  0.49895407  1  -0.037031  0  -0.083892  -0.180516  0  3.957999  0
C  C152  1  0.75048168  0.57729512  0.98079684  1  -0.054879  0  0.009816  0.117966  0  4.03237  0
C  C153  1  0.74951531  0.92270482  0.48079739  1  -0.054909  0  0.009808  0.117803  0  4.032534  0
C  C154  1  0.24951495  0.42270264  0.01920315  1  -0.055  0  0.009756  0.117897  0  4.032519  0
C  C155  1  0.25048463  0.07729788  0.51920228  1  -0.054843  0  0.009784  0.117845  0  4.032534  0
C  C156  1  0.82394509  0.65398949  0.00619507  1  -0.025181  0  -0.078783  -0.165089  0  3.927896  0
C  C157  1  0.67605315  0.84601147  0.50619573  1  -0.02511  0  -0.078799  -0.165056  0  3.927867  0
C  C158  1  0.17605222  0.34600968  0.99380492  1  -0.025067  0  -0.078802  -0.165104  0  3.927871  0
C  C159  1  0.32394487  0.15399121  0.49380394  1  -0.02513  0  -0.078774  -0.165009  0  3.927864  0
C  C160  1  0.80045204  0.64961335  0.04934216  1  0.492834  0  0.044864  0.096935  0  3.956491  0
C  C161  1  0.69954484  0.85038872  0.54934344  1  0.492859  0  0.044837  0.09678  0  3.956711  0
C  C162  1  0.19954335  0.35038580  0.95065688  1  0.492833  0  0.044867  0.096752  0  3.956468  0
C  C163  1  0.30045257  0.14961465  0.45065654  1  0.492912  0  0.044886  0.096751  0  3.956585  0
C  C164  1  0.76736550  0.56642573  0.23655921  1  0.426627  0  0.047657  0.092978  0  3.948348  0
C  C165  1  0.73263500  0.93357373  0.73655881  1  0.426646  0  0.04767  0.093045  0  3.948183  0
C  C166  1  0.23263349  0.43357695  0.76344046  1  0.426632  0  0.047627  0.092924  0  3.94839  0
C  C167  1  0.26736548  0.06642406  0.26344086  1  0.426557  0  0.04765  0.093031  0  3.948262  0
C  C168  1  0.77114380  0.56594206  0.28037188  1  0.093283  0  -0.073855  -0.160291  0  3.912564  0
C  C169  1  0.72885658  0.93405711  0.78037148  1  0.093294  0  -0.073801  -0.160174  0  3.912683  0
C  C170  1  0.22886316  0.43405927  0.71962747  1  0.09329  0  -0.073856  -0.160165  0  3.912922  0
C  C171  1  0.27114390  0.06594068  0.21962882  1  0.093297  0  -0.073817  -0.160187  0  3.912623  0
C  C172  1  0.54224975  0.56887633  0.27999614  1  0.063602  0  -0.076185  -0.163541  0  3.915104  0
C  C173  1  0.95774928  0.93112003  0.77999607  1  0.06366  0  -0.076236  -0.163589  0  3.914982  0
C  C174  1  0.45774755  0.43112283  0.72000416  1  0.063718  0  -0.07626  -0.163577  0  3.91502  0
C  C175  1  0.04225024  0.06887775  0.22000423  1  0.063607  0  -0.076209  -0.163521  0  3.915204  0
C  C176  1  0.54730925  0.56946618  0.23617274  1  0.417281  0  0.045964  0.092699  0  3.962359  0
C  C177  1  0.95268990  0.93053047  0.73617298  1  0.417419  0  0.046025  0.092789  0  3.962303  0
C  C178  1  0.45268839  0.43053369  0.76382725  1  0.417277  0  0.04603  0.092659  0  3.962361  0
C  C179  1  0.04731091  0.06946802  0.26382732  1  0.417318  0  0.046018  0.092706  0  3.962328  0
C  C180  1  0.65623835  0.56739971  0.30305194  1  -0.10646  0  0.013033  0.114175  0  4.006242  0
C  C181  1  0.84375937  0.93259790  0.80305123  1  -0.106503  0  0.013023  0.114179  0  4.006234  0
C  C182  1  0.34375962  0.43260087  0.69694867  1  -0.10663  0  0.013081  0.114152  0  4.006561  0
C  C183  1  0.15623789  0.06739917  0.19694907  1  -0.106505  0  0.012987  0.114066  0  4.006381  0
C  C184  1  0.64894677  0.56930952  0.34900566  1  0.609855  0  0.080017  0.040175  0  3.887775  0
C  C185  1  0.85105217  0.93069059  0.84900527  1  0.609847  0  0.079974  0.039996  0  3.887909  0
C  C186  1  0.35105183  0.43069036  0.65099496  1  0.609871  0  0.080016  0.040155  0  3.887763  0
C  C187  1  0.14894802  0.06930859  0.15099503  1  0.609889  0  0.080015  0.040092  0  3.88782  0
C  C188  1  0.72232969  0.01678043  0.14282084  1  1.566621  0  0.186187  0.552055  0  4.241335  0
C  C189  1  0.77766885  0.48322076  0.64282006  1  1.566575  0  0.186281  0.552171  0  4.241271  0
C  C190  1  0.27766699  0.98321943  0.85717820  1  1.56651  0  0.186221  0.552109  0  4.241248  0
C  C191  1  0.22233359  0.51677914  0.35717614  1  1.566462  0  0.186267  0.552144  0  4.24121  0
C  C192  1  0.71398865  0.11376559  0.14255650  1  -0.025118  0  -0.019932  -0.018998  0  3.965188  0
C  C193  1  0.78601023  0.38623631  0.64255616  1  -0.024826  0  -0.019952  -0.018966  0  3.96506  0
C  C194  1  0.28601125  0.88623500  0.85744317  1  -0.02508  0  -0.019934  -0.01895  0  3.965092  0
C  C195  1  0.21399000  0.61376498  0.35744256  1  -0.025058  0  -0.019972  -0.018931  0  3.965193  0
C  C196  1  0.83253903  0.19286474  0.13995505  1  -0.038925  0  -0.090346  -0.099714  0  3.982979  0
C  C197  1  0.66746273  0.30713721  0.63995513  1  -0.039125  0  -0.090407  -0.099775  0  3.983011  0
C  C198  1  0.16746120  0.80713655  0.86004525  1  -0.038528  0  -0.090446  -0.099799  0  3.982998  0
C  C199  1  0.33253976  0.69286480  0.36004423  1  -0.038519  0  -0.090385  -0.09982  0  3.982938  0
C  C200  1  0.58720165  0.12594319  0.14496402  1  -0.104182  0  -0.091983  -0.104863  0  3.994582  0
C  C201  1  0.91279818  0.37405870  0.64496339  1  -0.104222  0  -0.091981  -0.104906  0  3.994556  0
C  C202  1  0.41279825  0.87405740  0.85503628  1  -0.104237  0  -0.091978  -0.104881  0  3.994561  0
C  C203  1  0.08720493  0.62594261  0.35503502  1  -0.103936  0  -0.09199  -0.104916  0  3.994707  0
C  C204  1  0.82481080  0.28297940  0.14026189  1  -0.016101  0  -0.091652  -0.101712  0  3.986366  0
C  C205  1  0.67519063  0.21702184  0.64026272  1  -0.015972  0  -0.091627  -0.101707  0  3.98648  0
C  C206  1  0.17518559  0.71702187  0.85973810  1  -0.016403  0  -0.091576  -0.101732  0  3.986256  0
C  C207  1  0.32481503  0.78297879  0.35973758  1  -0.016371  0  -0.091531  -0.10164  0  3.986299  0
C  C208  1  0.68405728  0.58776549  0.50295291  1  -0.005685  0  -0.075343  -0.159263  0  3.914914  0
C  C209  1  0.81594285  0.91223340  0.00295222  1  -0.005708  0  -0.075367  -0.159296  0  3.914805  0
C  C210  1  0.31594420  0.41223441  0.49704739  1  -0.005692  0  -0.075292  -0.159064  0  3.914965  0
C  C211  1  0.18406147  0.08776441  0.99704745  1  -0.005818  0  -0.075335  -0.159142  0  3.914794  0
C  C212  1  0.67397698  0.59751495  0.54625755  1  0.476752  0  0.04994  0.092576  0  3.942438  0
C  C213  1  0.82602427  0.90248226  0.04625561  1  0.476872  0  0.049935  0.092492  0  3.942337  0
C  C214  1  0.32602575  0.40248355  0.45374275  1  0.47679  0  0.04994  0.092492  0  3.9424  0
C  C215  1  0.17397711  0.09751343  0.95374343  1  0.476761  0  0.049904  0.092472  0  3.942328  0
C  C216  1  0.89008290  0.70844354  0.54956141  1  0.513126  0  0.048369  0.098905  0  3.963941  0
C  C217  1  0.60991772  0.79155434  0.04955992  1  0.513657  0  0.048419  0.098928  0  3.963996  0
C  C218  1  0.10991954  0.29155636  0.45043890  1  0.51314  0  0.048409  0.098986  0  3.963924  0
C  C219  1  0.39008309  0.20844414  0.95043975  1  0.513132  0  0.048396  0.098933  0  3.963982  0
C  C220  1  0.90812243  0.70334911  0.50622772  1  0.005117  0  -0.079769  -0.175968  0  3.936391  0
C  C221  1  0.59187898  0.79665047  0.00622685  1  0.00514  0  -0.079755  -0.175976  0  3.936492  0
C  C222  1  0.09187814  0.29665288  0.49377227  1  0.005134  0  -0.079702  -0.175928  0  3.936559  0
C  C223  1  0.40812476  0.20335014  0.99377313  1  0.005145  0  -0.079709  -0.175984  0  3.936412  0
C  C224  1  0.80339480  0.64170741  0.48189226  1  -0.051591  0  0.012745  0.119366  0  4.023633  0
C  C225  1  0.69660507  0.85829254  0.98189101  1  -0.051872  0  0.012752  0.119438  0  4.023579  0
C  C226  1  0.19660577  0.35829458  0.51810804  1  -0.051867  0  0.012704  0.119313  0  4.02376  0
C  C227  1  0.30339636  0.14170525  0.01810866  1  -0.051862  0  0.01277  0.119409  0  4.023634  0
C  C228  1  0.68926409  0.39205657  0.14193240  1  1.524136  0  0.185622  0.551551  0  4.243232  0
C  C229  1  0.81073801  0.10794606  0.64193339  1  1.524059  0  0.185633  0.551557  0  4.243103  0
C  C230  1  0.31073974  0.60794825  0.85806664  1  1.523969  0  0.185593  0.551525  0  4.2431  0
C  C231  1  0.18926117  0.89205101  0.35806691  1  1.524065  0  0.18555  0.551377  0  4.243132  0
C  C232  1  0.69803506  0.29521668  0.14259142  1  -0.033875  0  -0.021646  -0.022253  0  3.974024  0
C  C233  1  0.80196478  0.20478523  0.64259165  1  -0.03395  0  -0.021651  -0.022217  0  3.974043  0
C  C234  1  0.30196263  0.70478529  0.85740857  1  -0.033834  0  -0.021626  -0.022214  0  3.973963  0
C  C235  1  0.19803900  0.79521749  0.35740802  1  -0.034018  0  -0.02163  -0.022115  0  3.97397  0
C  C236  1  0.57954008  0.21602114  0.14485313  1  -0.051429  0  -0.098456  -0.119332  0  4.02328  0
C  C237  1  0.92045845  0.28398005  0.64485326  1  -0.051371  0  -0.098432  -0.119307  0  4.023264  0
C  C238  1  0.42045722  0.78397803  0.85514685  1  -0.051416  0  -0.09846  -0.119346  0  4.023373  0
C  C239  1  0.07954595  0.71602197  0.35514673  1  -0.051674  0  -0.098467  -0.119398  0  4.023452  0
C  C240  1  0.81895991  0.63667967  0.43625965  1  0.589295  0  0.07032  0.016205  0  3.918647  0
C  C241  1  0.68104038  0.86331918  0.93625840  1  0.589388  0  0.070273  0.01611  0  3.918525  0
C  C242  1  0.18104191  0.36332093  0.56374065  1  0.589421  0  0.070331  0.016154  0  3.918536  0
C  C243  1  0.31895981  0.13668001  0.06374159  1  0.589408  0  0.070267  0.016075  0  3.91852  0
C  C244  1  0.76089404  0.57860850  0.93490279  1  0.584897  0  0.063805  -0.003046  0  3.916349  0
C  C245  1  0.73910946  0.92139108  0.43490303  1  0.584905  0  0.063821  -0.002981  0  3.916222  0
C  C246  1  0.23910255  0.42138716  0.06509751  1  0.584955  0  0.063895  -0.002984  0  3.916282  0
C  C247  1  0.26089461  0.07861023  0.56509759  1  0.584929  0  0.063855  -0.003054  0  3.916207  0
C  C248  1  0.44171639  0.64283412  0.14034878  1  1.553083  0  0.19301  0.55094  0  4.231364  0
C  C249  1  0.05828292  0.85716797  0.64034879  1  1.553022  0  0.192948  0.550916  0  4.231254  0
C  C250  1  0.55828226  0.35716786  0.85965089  1  1.553179  0  0.192995  0.550997  0  4.231294  0
C  C251  1  0.94171660  0.14282981  0.35965151  1  1.552924  0  0.192972  0.550959  0  4.231454  0
C  C252  1  0.32219587  0.67631535  0.14131682  1  -0.094895  0  -0.024814  -0.044437  0  3.994729  0
C  C253  1  0.17780310  0.82368603  0.64131783  1  -0.094997  0  -0.024742  -0.044394  0  3.994688  0
C  C254  1  0.67780408  0.32368734  0.85868253  1  -0.094987  0  -0.024766  -0.044434  0  3.994719  0
C  C255  1  0.82219767  0.17631036  0.35868342  1  -0.094915  0  -0.024725  -0.04441  0  3.994639  0
C  C256  1  0.33989466  0.77271258  0.13990791  1  -0.074573  0  -0.092061  -0.108311  0  3.95723  0
C  C257  1  0.16010272  0.72728950  0.63990747  1  -0.075942  0  -0.092074  -0.108319  0  3.95713  0
C  C258  1  0.66010466  0.22729081  0.86009333  1  -0.074583  0  -0.092063  -0.10833  0  3.957171  0
C  C259  1  0.83989646  0.27270757  0.36009346  1  -0.074523  0  -0.09209  -0.108375  0  3.957004  0
C  C260  1  0.19015693  0.61009988  0.14326499  1  -0.029394  0  -0.0894  -0.095159  0  3.970485  0
C  C261  1  0.30983948  0.88990217  0.64326560  1  -0.02943  0  -0.08946  -0.095231  0  3.970475  0
C  C262  1  0.80984143  0.38990350  0.85673405  1  -0.029329  0  -0.089401  -0.095168  0  3.970424  0
C  C263  1  0.69015778  0.11009489  0.35673534  1  -0.029343  0  -0.089382  -0.095079  0  3.970413  0
C  C264  1  0.97517512  0.76884488  0.14204929  1  1.533956  0  0.192629  0.551237  0  4.23274  0
C  C265  1  0.52482602  0.73115801  0.64205010  1  1.533711  0  0.192577  0.551264  0  4.23275  0
C  C266  1  0.02482742  0.23115923  0.85795132  1  1.533768  0  0.192615  0.55131  0  4.232807  0
C  C267  1  0.47517446  0.26883977  0.35795209  1  1.533676  0  0.192629  0.551397  0  4.232609  0
C  C268  1  0.09504724  0.73563451  0.14194258  1  -0.092043  0  -0.019163  -0.030035  0  3.975393  0
C  C269  1  0.40495205  0.76436756  0.64194273  1  -0.091825  0  -0.019188  -0.030161  0  3.975536  0
C  C270  1  0.90495400  0.26436889  0.85805836  1  -0.09194  0  -0.019214  -0.030159  0  3.975625  0
C  C271  1  0.59504780  0.23563092  0.35805821  1  -0.092087  0  -0.019243  -0.030258  0  3.975619  0
C  C272  1  0.07727368  0.63926904  0.14359302  1  -0.049029  0  -0.090966  -0.105378  0  3.954786  0
C  C273  1  0.42272532  0.86073443  0.64359304  1  -0.049006  0  -0.090953  -0.105278  0  3.954882  0
C  C274  1  0.92272564  0.36073435  0.85640728  1  -0.049196  0  -0.090982  -0.105379  0  3.954977  0
C  C275  1  0.57727261  0.13926404  0.35640821  1  -0.048966  0  -0.090975  -0.105414  0  3.954994  0
C  C276  1  0.22693587  0.80189385  0.14011344  1  0.025648  0  -0.085039  -0.087698  0  3.950576  0
C  C277  1  0.27306376  0.69810894  0.64011241  1  0.027035  0  -0.08496  -0.087616  0  3.950402  0
C  C278  1  0.77306407  0.19810884  0.85988781  1  0.025731  0  -0.084925  -0.087563  0  3.950386  0
C  C279  1  0.72693417  0.30188953  0.35988852  1  0.025723  0  -0.084904  -0.087546  0  3.950321  0
N  N280  1  0.74805775  0.66320315  0.71647559  1  -1.224455  0  -0.328248  -0.235767  0  3.509935  0
N  N281  1  0.75194443  0.83679785  0.21647531  1  -1.224415  0  -0.328125  -0.235559  0  3.509819  0
N  N282  1  0.25194043  0.33679181  0.28352503  1  -1.224045  0  -0.328176  -0.235682  0  3.509875  0
N  N283  1  0.24805906  0.16320626  0.78352436  1  -1.224461  0  -0.328239  -0.235787  0  3.509874  0
N  N284  1  0.83970462  0.65465656  0.87352156  1  -0.745008  0  -0.162956  -0.078737  0  3.45097  0
N  N285  1  0.66029814  0.84534552  0.37352158  1  -0.745036  0  -0.162979  -0.078813  0  3.451079  0
N  N286  1  0.16029163  0.34533839  0.12647843  1  -0.745166  0  -0.163008  -0.078741  0  3.450969  0
N  N287  1  0.33970627  0.15465650  0.62647841  1  -0.74501  0  -0.162907  -0.078736  0  3.45096  0
N  N288  1  0.83126779  0.65476125  0.91541862  1  -0.689569  0  -0.173877  -0.102281  0  3.42274  0
N  N289  1  0.66873289  0.84523844  0.41541896  1  -0.689584  0  -0.173829  -0.102182  0  3.422524  0
N  N290  1  0.16872880  0.34523441  0.08458042  1  -0.689596  0  -0.173855  -0.102293  0  3.422778  0
N  N291  1  0.33126994  0.15476427  0.58458071  1  -0.689674  0  -0.173883  -0.102249  0  3.422618  0
N  N292  1  0.70895924  0.57485890  0.06834324  1  -1.227278  0  -0.325473  -0.235629  0  3.483473  0
N  N293  1  0.79103499  0.92514162  0.56834412  1  -1.227331  0  -0.325382  -0.235475  0  3.483475  0
N  N294  1  0.29103581  0.42513955  0.93165611  1  -1.227253  0  -0.325353  -0.235369  0  3.483451  0
N  N295  1  0.20895919  0.07486103  0.43165650  1  -1.227346  0  -0.32542  -0.235485  0  3.483402  0
N  N296  1  0.65770817  0.56862598  0.21469881  1  -1.245335  0  -0.326165  -0.229777  0  3.501543  0
N  N297  1  0.84229301  0.93137293  0.71469873  1  -1.245441  0  -0.326184  -0.229831  0  3.501392  0
N  N298  1  0.34229082  0.43137671  0.78530086  1  -1.245309  0  -0.326175  -0.229738  0  3.501507  0
N  N299  1  0.15770910  0.06862627  0.28530125  1  -1.245306  0  -0.326193  -0.229792  0  3.501408  0
N  N300  1  0.75131843  0.57153196  0.37236141  1  -0.734325  0  -0.179258  -0.117588  0  3.379689  0
N  N301  1  0.74868016  0.92846940  0.87236039  1  -0.734409  0  -0.179179  -0.117384  0  3.379567  0
N  N302  1  0.24868022  0.42847002  0.62763889  1  -0.73436  0  -0.179252  -0.117581  0  3.379566  0
N  N303  1  0.25131840  0.07152837  0.12763929  1  -0.734393  0  -0.179222  -0.11749  0  3.379725  0
N  N304  1  0.73072845  0.57212232  0.41451044  1  -0.73559  0  -0.179026  -0.110139  0  3.375297  0
N  N305  1  0.76927166  0.92788017  0.91450910  1  -0.735383  0  -0.179103  -0.110279  0  3.375154  0
N  N306  1  0.26927279  0.42788108  0.58548986  1  -0.735457  0  -0.179053  -0.110149  0  3.375166  0
N  N307  1  0.23072724  0.07211830  0.08549057  1  -0.735417  0  -0.179052  -0.110156  0  3.375197  0
N  N308  1  0.77504119  0.65736460  0.56931394  1  -1.220462  0  -0.322566  -0.232909  0  3.492286  0
N  N309  1  0.72496063  0.84263176  0.06931270  1  -1.220962  0  -0.322571  -0.232838  0  3.492345  0
N  N310  1  0.22496279  0.34263250  0.43068636  1  -1.22048  0  -0.322625  -0.232979  0  3.492373  0
N  N311  1  0.27504239  0.15736534  0.93068760  1  -1.22033  0  -0.322605  -0.232902  0  3.492334  0
O  O312  1  0.83910043  0.00863746  0.13668724  1  -1.176166  0  -0.335626  -0.574133  0  2.256885  0
O  O313  1  0.66089779  0.49136308  0.63668676  1  -1.176204  0  -0.335663  -0.574215  0  2.256901  0
O  O314  1  0.16089592  0.99136170  0.86331211  1  -1.176221  0  -0.33562  -0.574174  0  2.256804  0
O  O315  1  0.33910465  0.50863682  0.36330944  1  -1.176213  0  -0.335595  -0.574143  0  2.256832  0
O  O316  1  0.61554068  0.94650480  0.14950162  1  -1.185354  0  -0.333886  -0.563576  0  2.187433  0
O  O317  1  0.88445789  0.55349873  0.64950048  1  -1.185313  0  -0.333927  -0.563632  0  2.187461  0
O  O318  1  0.38445509  0.05349716  0.85049710  1  -1.185207  0  -0.333909  -0.563582  0  2.187442  0
O  O319  1  0.11554297  0.44650187  0.35049603  1  -1.185165  0  -0.333948  -0.563653  0  2.187403  0
O  O320  1  0.57312687  0.39989532  0.13390907  1  -1.177049  0  -0.341329  -0.585873  0  2.234172  0
O  O321  1  0.92687588  0.10010667  0.63391039  1  -1.177074  0  -0.341266  -0.585787  0  2.234061  0
O  O322  1  0.42687303  0.60010527  0.86608870  1  -1.177034  0  -0.341274  -0.585758  0  2.23424  0
O  O323  1  0.07313271  0.89989608  0.36609054  1  -1.176015  0  -0.34127  -0.585682  0  2.23422  0
O  O324  1  0.79532958  0.46244604  0.14914327  1  -1.172141  0  -0.332846  -0.559672  0  2.189587  0
O  O325  1  0.70467375  0.03755515  0.64914309  1  -1.172067  0  -0.332902  -0.559756  0  2.189662  0
O  O326  1  0.20467003  0.53755595  0.85085577  1  -1.172088  0  -0.332882  -0.559764  0  2.189418  0
O  O327  1  0.29533479  0.96244549  0.35085374  1  -1.172122  0  -0.332844  -0.559726  0  2.189248  0
O  O328  1  0.56317443  0.70210534  0.14143679  1  -1.197947  0  -0.338612  -0.585821  0  2.360237  0
O  O329  1  0.93682215  0.79789402  0.64143658  1  -1.197758  0  -0.33858  -0.585784  0  2.359953  0
O  O330  1  0.43682350  0.29789313  0.85856383  1  -1.197887  0  -0.338609  -0.585839  0  2.360079  0
O  O331  1  0.06317674  0.20210446  0.35856435  1  -1.197765  0  -0.338618  -0.585819  0  2.360062  0
O  O332  1  0.42034579  0.55474743  0.13822547  1  -1.170054  0  -0.325233  -0.554093  0  2.222683  0
O  O333  1  0.07965438  0.94525047  0.63822663  1  -1.170077  0  -0.325242  -0.554117  0  2.222958  0
O  O334  1  0.57965276  0.44525034  0.86177230  1  -1.170085  0  -0.325257  -0.554141  0  2.222936  0
O  O335  1  0.92034643  0.05474802  0.36177431  1  -1.17002  0  -0.325227  -0.554113  0  2.223017  0
O  O336  1  0.99504056  0.85623483  0.13799858  1  -1.162214  0  -0.325637  -0.542422  0  2.186095  0
O  O337  1  0.50496092  0.64376879  0.63799667  1  -1.162117  0  -0.325622  -0.542404  0  2.186015  0
O  O338  1  0.00496327  0.14376999  0.86200330  1  -1.162078  0  -0.325605  -0.542391  0  2.186058  0
O  O339  1  0.49503893  0.35622969  0.36200553  1  -1.162082  0  -0.325675  -0.542467  0  2.185913  0
O  O340  1  0.85463308  0.70905950  0.14654644  1  -1.195471  0  -0.342052  -0.595204  0  2.353126  0
O  O341  1  0.64536526  0.79094755  0.64655065  1  -1.195411  0  -0.342023  -0.595251  0  2.353114  0
O  O342  1  0.14536701  0.29094951  0.85345323  1  -1.195363  0  -0.342074  -0.59527  0  2.353088  0
O  O343  1  0.35463560  0.20905304  0.35345218  1  -1.195426  0  -0.342042  -0.595278  0  2.353151  0
