# generated using pymatgen
data_ZnH12C16O5
_symmetry_space_group_name_H-M   'P 1'
_cell_length_a   5.72290601
_cell_length_b   7.90796413
_cell_length_c   15.00600466
_cell_angle_alpha   97.14645228
_cell_angle_beta   90.06954603
_cell_angle_gamma   90.18197748
_symmetry_Int_Tables_number   1
_chemical_formula_structural   ZnH12C16O5
_chemical_formula_sum   'Zn2 H24 C32 O10'
_cell_volume   673.83968841
_cell_formula_units_Z   2
loop_
 _symmetry_equiv_pos_site_id
 _symmetry_equiv_pos_as_xyz
  1  'x, y, z'
loop_
 _atom_site_type_symbol
 _atom_site_label
 _atom_site_symmetry_multiplicity
 _atom_site_fract_x
 _atom_site_fract_y
 _atom_site_fract_z
 _atom_site_occupancy
 _atom_site_hle17_bader_spin_density
 _atom_site_hle17_ddec_charge
 _atom_site_hle17_ddec_spin_density
 _atom_site_hle17_ddec_sum_bond_order
 _atom_site_hle17_magmom
 _atom_site_hse06_10hf_bader_spin_density
 _atom_site_hse06_10hf_ddec_charge
 _atom_site_hse06_10hf_ddec_spin_density
 _atom_site_hse06_10hf_ddec_sum_bond_order
 _atom_site_hse06_10hf_magmom
 _atom_site_hse06_bader_spin_density
 _atom_site_hse06_ddec_charge
 _atom_site_hse06_ddec_spin_density
 _atom_site_hse06_ddec_sum_bond_order
 _atom_site_hse06_magmom
 _atom_site_pbe_bader_spin_density
 _atom_site_pbe_cm5_charge
 _atom_site_pbe_ddec_charge
 _atom_site_pbe_ddec_spin_density
 _atom_site_pbe_ddec_sum_bond_order
 _atom_site_pbe_magmom
Zn  Zn0  1  0.68989302  0.25021338  0.50007237  1  0  1.235807  0  1.681567  0  0  1.067981  0  2.155771  0  0  1.115722  0  2.090716  0  0  0.704831  1.034163  0  2.201114  0
Zn  Zn1  1  0.31017079  0.74976273  0.49994696  1  0  1.236001  0  1.681541  0  0  1.068057  0  2.155798  0  0  1.115811  0  2.090719  0  0  0.704887  1.034231  0  2.201164  0
H  H2  1  0.13259628  0.15416581  0.51608766  1  0  0.439081  0  0.864701  0  0  0.408805  0  0.926111  0  0  0.419152  0  0.911028  0  0  0.29805  0.401493  0  0.936774  0
H  H3  1  0.13373303  0.34692081  0.48540567  1  0  0.439743  0  0.864399  0  0  0.409237  0  0.926333  0  0  0.419635  0  0.911178  0  0  0.297559  0.401891  0  0.937043  0
H  H4  1  0.86745597  0.84598232  0.48410503  1  0  0.439839  0  0.863555  0  0  0.40935  0  0.925378  0  0  0.419701  0  0.910284  0  0  0.297942  0.402037  0  0.936045  0
H  H5  1  0.86625805  0.65321974  0.51478865  1  0  0.439606  0  0.86454  0  0  0.40908  0  0.92653  0  0  0.419454  0  0.911416  0  0  0.297548  0.401741  0  0.937233  0
H  H6  1  0.98601570  0.06894269  0.32560499  1  0  0.105503  0  0.939777  0  0  0.114673  0  1.000264  0  0  0.118131  0  0.997782  0  0  0.106084  0.112107  0  1.002144  0
H  H7  1  0.98412908  0.43183578  0.67432656  1  0  0.107356  0  0.941743  0  0  0.116312  0  1.002612  0  0  0.119793  0  1.000042  0  0  0.106688  0.113783  0  1.004468  0
H  H8  1  0.01409681  0.93100874  0.67431451  1  0  0.105335  0  0.940094  0  0  0.114634  0  1.000498  0  0  0.118143  0  0.997955  0  0  0.105997  0.112059  0  1.002385  0
H  H9  1  0.01582088  0.56808605  0.32560820  1  0  0.107283  0  0.941772  0  0  0.116331  0  1.00247  0  0  0.119817  0  0.999907  0  0  0.106816  0.113798  0  1.00433  0
H  H10  1  0.12215292  0.09690446  0.17209056  1  0  0.09134  0  0.974874  0  0  0.10159  0  1.038139  0  0  0.103488  0  1.039495  0  0  0.098274  0.099946  0  1.037868  0
H  H11  1  0.12091511  0.40357835  0.82790123  1  0  0.092079  0  0.974344  0  0  0.101596  0  1.038245  0  0  0.103595  0  1.03943  0  0  0.098315  0.099996  0  1.03787  0
H  H12  1  0.87780944  0.90310274  0.82783015  1  0  0.09143  0  0.974973  0  0  0.101614  0  1.038278  0  0  0.103574  0  1.039564  0  0  0.098397  0.099983  0  1.037997  0
H  H13  1  0.87915918  0.59645562  0.17203743  1  0  0.091898  0  0.974468  0  0  0.101337  0  1.038451  0  0  0.103302  0  1.039734  0  0  0.098272  0.09974  0  1.038075  0
H  H14  1  0.49894902  0.83560236  0.06485875  1  0  0.085265  0  0.966891  0  0  0.097285  0  1.029267  0  0  0.100142  0  1.028302  0  0  0.096468  0.095318  0  1.029907  0
H  H15  1  0.49971663  0.66384129  0.93514331  1  0  0.084951  0  0.96756  0  0  0.096649  0  1.030338  0  0  0.09949  0  1.029368  0  0  0.096346  0.094699  0  1.030974  0
H  H16  1  0.50095392  0.16435902  0.93511584  1  0  0.085212  0  0.967043  0  0  0.097266  0  1.029344  0  0  0.100097  0  1.02843  0  0  0.09646  0.095302  0  1.029982  0
H  H17  1  0.50036290  0.33615076  0.06484942  1  0  0.084932  0  0.967818  0  0  0.096585  0  1.030635  0  0  0.099431  0  1.029657  0  0  0.096357  0.094631  0  1.031276  0
H  H18  1  0.36961079  0.80320313  0.21946969  1  0  0.101092  0  0.967135  0  0  0.108543  0  1.033132  0  0  0.110893  0  1.033144  0  0  0.102352  0.106602  0  1.033719  0
H  H19  1  0.36985638  0.69654558  0.78050351  1  0  0.101289  0  0.966498  0  0  0.108814  0  1.032403  0  0  0.111109  0  1.032496  0  0  0.102447  0.10688  0  1.033018  0
H  H20  1  0.63044073  0.19676742  0.78052470  1  0  0.10108  0  0.967029  0  0  0.108534  0  1.033018  0  0  0.110856  0  1.033106  0  0  0.102326  0.10659  0  1.033609  0
H  H21  1  0.63012341  0.30338331  0.21949560  1  0  0.101405  0  0.966311  0  0  0.108899  0  1.032302  0  0  0.111191  0  1.032383  0  0  0.102512  0.10697  0  1.032913  0
H  H22  1  0.76759578  0.92220049  0.96281205  1  0  0.08056  0  0.981162  0  0  0.091352  0  1.048741  0  0  0.093551  0  1.048444  0  0  0.096234  0.089729  0  1.049146  0
H  H23  1  0.76850676  0.57776639  0.03712835  1  0  0.080792  0  0.981178  0  0  0.091573  0  1.048741  0  0  0.093775  0  1.048449  0  0  0.096351  0.089957  0  1.049143  0
H  H24  1  0.23230724  0.07781336  0.03713230  1  0  0.080497  0  0.981465  0  0  0.091345  0  1.04895  0  0  0.093542  0  1.048659  0  0  0.096239  0.089742  0  1.049337  0
H  H25  1  0.23153603  0.42222766  0.96283912  1  0  0.080756  0  0.981527  0  0  0.091622  0  1.048936  0  0  0.093824  0  1.048637  0  0  0.09633  0.089953  0  1.049385  0
C  C26  1  0.59850069  0.90921408  0.37506484  1  0  0.68177  0  3.85738  0  0  0.626831  0  4.147698  0  0  0.66341  0  4.137849  0  0  0.224854  0.601933  0  4.153601  0
C  C27  1  0.59745624  0.59152109  0.62504015  1  0  0.682162  0  3.857219  0  0  0.626651  0  4.148038  0  0  0.663223  0  4.13821  0  0  0.225023  0.601765  0  4.153928  0
C  C28  1  0.40171681  0.09075110  0.62492267  1  0  0.681949  0  3.857386  0  0  0.627138  0  4.147593  0  0  0.663725  0  4.137745  0  0  0.225043  0.602235  0  4.153492  0
C  C29  1  0.40226143  0.40840467  0.37495475  1  0  0.681178  0  3.857803  0  0  0.626133  0  4.14803  0  0  0.662718  0  4.138203  0  0  0.224875  0.601246  0  4.153908  0
C  C30  1  0.67047577  0.93314214  0.28228462  1  0  -0.074947  0  3.744477  0  0  -0.051845  0  3.978005  0  0  -0.062056  0  4.001484  0  0  -0.018754  -0.045264  0  3.962012  0
C  C31  1  0.66982514  0.56731382  0.71775790  1  0  -0.075288  0  3.745662  0  0  -0.052137  0  3.9796  0  0  -0.062426  0  4.003106  0  0  -0.019367  -0.045558  0  3.963671  0
C  C32  1  0.32957568  0.06681531  0.71768583  1  0  -0.075525  0  3.744396  0  0  -0.052425  0  3.977972  0  0  -0.062643  0  4.001457  0  0  -0.018828  -0.04584  0  3.961979  0
C  C33  1  0.33011787  0.43260451  0.28219937  1  0  -0.075721  0  3.74629  0  0  -0.052726  0  3.980222  0  0  -0.063012  0  4.003722  0  0  -0.019783  -0.046146  0  3.964297  0
C  C34  1  0.88171387  0.01683009  0.26777742  1  0  -0.038346  0  3.70863  0  0  -0.065029  0  3.960281  0  0  -0.062796  0  3.978567  0  0  -0.073433  -0.066  0  3.94774  0
C  C35  1  0.88070377  0.48381393  0.73221434  1  0  -0.039034  0  3.707176  0  0  -0.065933  0  3.958646  0  0  -0.063602  0  3.97684  0  0  -0.074024  -0.066993  0  3.946193  0
C  C36  1  0.11830611  0.98312970  0.73217246  1  0  -0.037673  0  3.70806  0  0  -0.064504  0  3.959663  0  0  -0.062311  0  3.977957  0  0  -0.073459  -0.065469  0  3.947127  0
C  C37  1  0.11927427  0.51614926  0.26773034  1  0  -0.038958  0  3.707455  0  0  -0.065919  0  3.958956  0  0  -0.0636  0  3.977152  0  0  -0.073956  -0.066977  0  3.946503  0
C  C38  1  0.95722113  0.03196453  0.18131307  1  0  -0.117966  0  3.701532  0  0  -0.13189  0  3.943246  0  0  -0.136787  0  3.965013  0  0  -0.087391  -0.128651  0  3.928956  0
C  C39  1  0.95636575  0.46837509  0.81868809  1  0  -0.118239  0  3.700639  0  0  -0.13149  0  3.942063  0  0  -0.136425  0  3.963716  0  0  -0.087171  -0.128261  0  3.927868  0
C  C40  1  0.04276047  0.96803272  0.81862853  1  0  -0.118189  0  3.701579  0  0  -0.131928  0  3.943443  0  0  -0.136859  0  3.965158  0  0  -0.087263  -0.128716  0  3.929191  0
C  C41  1  0.04368406  0.53164767  0.18125404  1  0  -0.117762  0  3.70107  0  0  -0.131115  0  3.942436  0  0  -0.136069  0  3.964105  0  0  -0.087042  -0.12789  0  3.92824  0
C  C42  1  0.82268178  0.96496280  0.10597398  1  0  0.100554  0  3.810087  0  0  0.118649  0  4.037612  0  0  0.121357  0  4.061189  0  0  -0.006092  0.116925  0  4.021303  0
C  C43  1  0.82250543  0.53501310  0.89399792  1  0  0.099943  0  3.81176  0  0  0.118417  0  4.038514  0  0  0.121116  0  4.062148  0  0  -0.006014  0.116695  0  4.022191  0
C  C44  1  0.17725795  0.03505439  0.89398120  1  0  0.100779  0  3.810368  0  0  0.11842  0  4.038481  0  0  0.121119  0  4.062082  0  0  -0.006245  0.116703  0  4.022168  0
C  C45  1  0.17756532  0.46499038  0.10595866  1  0  0.099564  0  3.812723  0  0  0.118511  0  4.038775  0  0  0.121222  0  4.062391  0  0  -0.006355  0.116782  0  4.022453  0
C  C46  1  0.60761556  0.88588017  0.12189806  1  0  -0.137507  0  3.742407  0  0  -0.15397  0  3.992558  0  0  -0.159375  0  4.013071  0  0  -0.092675  -0.150183  0  3.978492  0
C  C47  1  0.60784832  0.61387716  0.87809704  1  0  -0.13739  0  3.743551  0  0  -0.15374  0  3.993784  0  0  -0.159141  0  4.01428  0  0  -0.092669  -0.149963  0  3.979711  0
C  C48  1  0.39231020  0.11413497  0.87806436  1  0  -0.137822  0  3.743305  0  0  -0.154149  0  3.993634  0  0  -0.159562  0  4.014151  0  0  -0.092779  -0.150357  0  3.979546  0
C  C49  1  0.39220845  0.38611195  0.12187221  1  0  -0.137013  0  3.743382  0  0  -0.153493  0  3.993481  0  0  -0.158888  0  4.013946  0  0  -0.092472  -0.149718  0  3.979421  0
C  C50  1  0.53320842  0.86814357  0.20834793  1  0  -0.057213  0  3.73758  0  0  -0.081556  0  3.985579  0  0  -0.079378  0  4.005835  0  0  -0.083331  -0.082766  0  3.97221  0
C  C51  1  0.53320215  0.63185125  0.79166253  1  0  -0.057632  0  3.738318  0  0  -0.082135  0  3.986604  0  0  -0.079895  0  4.00692  0  0  -0.083506  -0.08337  0  3.973184  0
C  C52  1  0.46679247  0.13185655  0.79163449  1  0  -0.05691  0  3.737985  0  0  -0.081258  0  3.98598  0  0  -0.079092  0  4.006235  0  0  -0.083285  -0.082463  0  3.972605  0
C  C53  1  0.46680559  0.36808888  0.20831510  1  0  -0.057637  0  3.738114  0  0  -0.082121  0  3.986387  0  0  -0.07987  0  4.006685  0  0  -0.083477  -0.083356  0  3.972961  0
C  C54  1  0.89590176  0.97128560  0.01360795  1  0  -0.108842  0  3.742704  0  0  -0.12814  0  3.991443  0  0  -0.130678  0  4.012676  0  0  -0.091233  -0.126323  0  3.976862  0
C  C55  1  0.89612022  0.52872714  0.98635078  1  0  -0.108472  0  3.742944  0  0  -0.127907  0  3.991594  0  0  -0.130436  0  4.012837  0  0  -0.091238  -0.126111  0  3.977001  0
C  C56  1  0.10402398  0.02873451  0.98633470  1  0  -0.108631  0  3.743325  0  0  -0.127892  0  3.992231  0  0  -0.130417  0  4.013463  0  0  -0.091189  -0.126097  0  3.977637  0
C  C57  1  0.10394183  0.47128448  0.01361351  1  0  -0.108947  0  3.74383  0  0  -0.128551  0  3.99228  0  0  -0.131095  0  4.013513  0  0  -0.091274  -0.126703  0  3.977725  0
O  O58  1  0.71302463  0.98479311  0.44192159  1  0  -0.69783  0  2.126848  0  0  -0.625971  0  2.384169  0  0  -0.65229  0  2.366682  0  0  -0.323427  -0.607553  0  2.395761  0
O  O59  1  0.71181506  0.51686925  0.55823592  1  0  -0.695307  0  2.126668  0  0  -0.623282  0  2.383505  0  0  -0.649643  0  2.366313  0  0  -0.321983  -0.604847  0  2.394943  0
O  O60  1  0.28733782  0.01516912  0.55802115  1  0  -0.697248  0  2.126763  0  0  -0.625626  0  2.384158  0  0  -0.651969  0  2.366701  0  0  -0.32337  -0.607215  0  2.395774  0
O  O61  1  0.28769465  0.48308877  0.44169707  1  0  -0.694883  0  2.127512  0  0  -0.622815  0  2.383793  0  0  -0.649211  0  2.366623  0  0  -0.321859  -0.604382  0  2.395219  0
O  O62  1  0.42966286  0.80631516  0.38356196  1  0  -0.636498  0  2.071342  0  0  -0.564046  0  2.343367  0  0  -0.594121  0  2.329421  0  0  -0.303258  -0.543053  0  2.352331  0
O  O63  1  0.42836715  0.69357475  0.61652459  1  0  -0.638596  0  2.072575  0  0  -0.5652  0  2.344422  0  0  -0.595249  0  2.330314  0  0  -0.303802  -0.544216  0  2.3535  0
O  O64  1  0.57057220  0.19365821  0.61646996  1  0  -0.636452  0  2.071474  0  0  -0.564126  0  2.343542  0  0  -0.594171  0  2.329552  0  0  -0.303381  -0.543132  0  2.352503  0
O  O65  1  0.57133312  0.30633736  0.38352968  1  0  -0.638184  0  2.072101  0  0  -0.565238  0  2.34402  0  0  -0.595268  0  2.329871  0  0  -0.303802  -0.544266  0  2.353116  0
O  O66  1  0.03441942  0.25259094  0.50336754  1  0  -0.870487  0  1.919201  0  0  -0.800625  0  2.144661  0  0  -0.823195  0  2.106568  0  0  -0.590377  -0.784693  0  2.171134  0
O  O67  1  0.96565351  0.74787087  0.49728183  1  0  -0.87088  0  1.91838  0  0  -0.801032  0  2.144115  0  0  -0.823579  0  2.106006  0  0  -0.59031  -0.785094  0  2.17056  0
