# generated using pymatgen
data_GdH8C5O8
_symmetry_space_group_name_H-M   'P 1'
_cell_length_a   9.65401390
_cell_length_b   9.65399597
_cell_length_c   13.74356527
_cell_angle_alpha   99.87392019
_cell_angle_beta   99.87401939
_cell_angle_gamma   120.89506779
_symmetry_Int_Tables_number   1
_chemical_formula_structural   GdH8C5O8
_chemical_formula_sum   'Gd4 H32 C20 O32'
_cell_volume   1030.57867384
_cell_formula_units_Z   4
loop_
 _symmetry_equiv_pos_site_id
 _symmetry_equiv_pos_as_xyz
  1  'x, y, z'
loop_
 _atom_site_type_symbol
 _atom_site_label
 _atom_site_symmetry_multiplicity
 _atom_site_fract_x
 _atom_site_fract_y
 _atom_site_fract_z
 _atom_site_occupancy
 _atom_site_hle17_bader_spin_density
 _atom_site_hle17_ddec_charge
 _atom_site_hle17_ddec_spin_density
 _atom_site_hle17_ddec_sum_bond_order
 _atom_site_hle17_magmom
 _atom_site_hse06_10hf_bader_spin_density
 _atom_site_hse06_10hf_ddec_charge
 _atom_site_hse06_10hf_ddec_spin_density
 _atom_site_hse06_10hf_ddec_sum_bond_order
 _atom_site_hse06_10hf_magmom
 _atom_site_hse06_bader_spin_density
 _atom_site_hse06_ddec_charge
 _atom_site_hse06_ddec_spin_density
 _atom_site_hse06_ddec_sum_bond_order
 _atom_site_hse06_magmom
 _atom_site_pbe_bader_spin_density
 _atom_site_pbe_cm5_charge
 _atom_site_pbe_ddec_charge
 _atom_site_pbe_ddec_spin_density
 _atom_site_pbe_ddec_sum_bond_order
 _atom_site_pbe_magmom
Gd  Gd0  1  0.00151374  0.25138987  0.50241817  1  0  2.215226  0  1.788258  0  0  2.12833  0  2.144116  0  0  2.179714  0  2.092526  0  0  1.457974  2.085896  0  2.189606  0
Gd  Gd1  1  0.24865779  0.49858118  0.99758097  1  0  2.21521  0  1.78817  0  0  2.128144  0  2.14429  0  0  2.179733  0  2.092388  0  0  1.457819  2.085678  0  2.189842  0
Gd  Gd2  1  0.99854729  0.74865073  0.49758132  1  0  2.215285  0  1.788164  0  0  2.128098  0  2.14454  0  0  2.179787  0  2.092474  0  0  1.457807  2.085629  0  2.190091  0
Gd  Gd3  1  0.75137303  0.50147013  0.00241553  1  0  2.215295  0  1.788133  0  0  2.128053  0  2.144556  0  0  2.179781  0  2.092436  0  0  1.457911  2.085593  0  2.190092  0
H  H4  1  0.45468394  0.85904387  0.51409504  1  0  0.11777  0  0.915303  0  0  0.132681  0  0.97289  0  0  0.135562  0  0.97113  0  0  0.11255  0.130605  0  0.974262  0
H  H5  1  0.84425039  0.94094635  0.98629420  1  0  0.118578  0  0.915845  0  0  0.133559  0  0.973109  0  0  0.136388  0  0.97135  0  0  0.113003  0.131519  0  0.974469  0
H  H6  1  0.64100407  0.04532174  0.98593188  1  0  0.117805  0  0.915198  0  0  0.132676  0  0.972803  0  0  0.13556  0  0.97104  0  0  0.112558  0.1306  0  0.974175  0
H  H7  1  0.55903321  0.65577301  0.51370529  1  0  0.118581  0  0.915722  0  0  0.133509  0  0.972973  0  0  0.136334  0  0.971222  0  0  0.112996  0.131471  0  0.974327  0
H  H8  1  0.54535657  0.14096516  0.48591442  1  0  0.117693  0  0.915353  0  0  0.132634  0  0.972929  0  0  0.13552  0  0.971161  0  0  0.112469  0.130557  0  0.974304  0
H  H9  1  0.15574000  0.05907581  0.01369860  1  0  0.118751  0  0.915612  0  0  0.13364  0  0.972952  0  0  0.136463  0  0.971199  0  0  0.11305  0.131601  0  0.97431  0
H  H10  1  0.35898974  0.95469689  0.01406017  1  0  0.117849  0  0.915182  0  0  0.132733  0  0.972752  0  0  0.135625  0  0.970972  0  0  0.112611  0.130657  0  0.974124  0
H  H11  1  0.44100515  0.34423369  0.48631601  1  0  0.118542  0  0.915669  0  0  0.133441  0  0.972855  0  0  0.136263  0  0.971106  0  0  0.112975  0.131405  0  0.974213  0
H  H12  1  0.50601778  0.90482304  0.64830722  1  0  0.102484  0  0.916513  0  0  0.119239  0  0.971038  0  0  0.121455  0  0.97009  0  0  0.104184  0.117647  0  0.971806  0
H  H13  1  0.75592848  0.85740123  0.85208933  1  0  0.102478  0  0.916433  0  0  0.119445  0  0.970777  0  0  0.121658  0  0.969784  0  0  0.103986  0.117861  0  0.971576  0
H  H14  1  0.59520100  0.99399032  0.85171790  1  0  0.102472  0  0.916446  0  0  0.119239  0  0.970937  0  0  0.121456  0  0.969987  0  0  0.10417  0.117644  0  0.97171  0
H  H15  1  0.64259724  0.74408793  0.64790719  1  0  0.102403  0  0.916521  0  0  0.119339  0  0.970805  0  0  0.121552  0  0.96981  0  0  0.103917  0.117742  0  0.971619  0
H  H16  1  0.49400664  0.09517532  0.35170058  1  0  0.102533  0  0.916451  0  0  0.119259  0  0.971009  0  0  0.121474  0  0.970064  0  0  0.104167  0.117669  0  0.971776  0
H  H17  1  0.24405496  0.14260345  0.14790718  1  0  0.102408  0  0.916406  0  0  0.119348  0  0.970741  0  0  0.121563  0  0.969743  0  0  0.103949  0.117755  0  0.971551  0
H  H18  1  0.40478580  0.00601688  0.14827347  1  0  0.102483  0  0.916471  0  0  0.119242  0  0.970945  0  0  0.121461  0  0.969994  0  0  0.104139  0.117646  0  0.971717  0
H  H19  1  0.35744205  0.25592865  0.35211392  1  0  0.102388  0  0.916235  0  0  0.119201  0  0.970623  0  0  0.121413  0  0.969626  0  0  0.103803  0.117604  0  0.971441  0
H  H20  1  0.80336700  0.90629420  0.34110053  1  0  0.437916  0  0.861237  0  0  0.405425  0  0.927178  0  0  0.417379  0  0.909593  0  0  0.300006  0.396882  0  0.939734  0
H  H21  1  0.06527970  0.46249874  0.15887429  1  0  0.437832  0  0.861458  0  0  0.405578  0  0.927217  0  0  0.417575  0  0.909558  0  0  0.299979  0.397018  0  0.939795  0
H  H22  1  0.59383407  0.69687421  0.15884392  1  0  0.437856  0  0.861431  0  0  0.405258  0  0.927598  0  0  0.417228  0  0.909988  0  0  0.299848  0.396705  0  0.940165  0
H  H23  1  0.03770715  0.43483464  0.34116453  1  0  0.437958  0  0.861262  0  0  0.405585  0  0.92716  0  0  0.417579  0  0.909507  0  0  0.300019  0.397027  0  0.939732  0
H  H24  1  0.19677293  0.09377936  0.65887336  1  0  0.437908  0  0.861344  0  0  0.405369  0  0.927377  0  0  0.417325  0  0.909792  0  0  0.300018  0.396822  0  0.939935  0
H  H25  1  0.93478666  0.53762244  0.84114608  1  0  0.437973  0  0.86124  0  0  0.405652  0  0.927068  0  0  0.417652  0  0.909403  0  0  0.300093  0.397096  0  0.939639  0
H  H26  1  0.40624878  0.30327983  0.84111813  1  0  0.437894  0  0.86133  0  0  0.40531  0  0.927418  0  0  0.417265  0  0.909836  0  0  0.300011  0.396767  0  0.939971  0
H  H27  1  0.96240882  0.56523630  0.65886158  1  0  0.437907  0  0.861311  0  0  0.405579  0  0.92714  0  0  0.417569  0  0.909492  0  0  0.300067  0.397021  0  0.939714  0
H  H28  1  0.75029177  0.00465112  0.27963483  1  0  0.426957  0  0.826407  0  0  0.41209  0  0.878869  0  0  0.420549  0  0.866436  0  0  0.325938  0.405883  0  0.886208  0
H  H29  1  0.22505091  0.47064172  0.22028388  1  0  0.426311  0  0.827284  0  0  0.411484  0  0.879595  0  0  0.419942  0  0.86717  0  0  0.325332  0.405289  0  0.886917  0
H  H30  1  0.49465973  0.74875799  0.22021875  1  0  0.426311  0  0.827107  0  0  0.411655  0  0.879115  0  0  0.420085  0  0.866938  0  0  0.326044  0.405488  0  0.88636  0
H  H31  1  0.02850721  0.27435684  0.27984852  1  0  0.426074  0  0.827552  0  0  0.411362  0  0.879627  0  0  0.419785  0  0.867299  0  0  0.325705  0.405178  0  0.886923  0
H  H32  1  0.24913363  0.99492302  0.72027539  1  0  0.426424  0  0.827246  0  0  0.411699  0  0.879405  0  0  0.420143  0  0.866965  0  0  0.32597  0.405516  0  0.886691  0
H  H33  1  0.77459516  0.52885220  0.77979326  1  0  0.426398  0  0.827047  0  0  0.411627  0  0.879252  0  0  0.420076  0  0.866887  0  0  0.325673  0.405433  0  0.886571  0
H  H34  1  0.50492466  0.25067529  0.77968557  1  0  0.426863  0  0.826345  0  0  0.412011  0  0.87879  0  0  0.420474  0  0.866489  0  0  0.325986  0.405809  0  0.886126  0
H  H35  1  0.97099716  0.72530101  0.72023847  1  0  0.426075  0  0.827538  0  0  0.411322  0  0.879729  0  0  0.419767  0  0.867333  0  0  0.325561  0.405133  0  0.887031  0
C  C36  1  0.29714211  0.65224779  0.56356485  1  0  0.772023  0  3.788048  0  0  0.732012  0  4.084561  0  0  0.766173  0  4.07513  0  0  0.233706  0.708685  0  4.089797  0
C  C37  1  0.58804032  0.73337950  0.93654191  1  0  0.773595  0  3.787217  0  0  0.733202  0  4.083886  0  0  0.767344  0  4.074409  0  0  0.234347  0.709891  0  4.08916  0
C  C38  1  0.84777785  0.20287955  0.93645326  1  0  0.771924  0  3.787592  0  0  0.731848  0  4.08415  0  0  0.766017  0  4.074725  0  0  0.233626  0.708521  0  4.089383  0
C  C39  1  0.76663988  0.91198005  0.56345027  1  0  0.773607  0  3.787577  0  0  0.733158  0  4.084277  0  0  0.767262  0  4.074834  0  0  0.234252  0.709859  0  4.089536  0
C  C40  1  0.70290478  0.34774540  0.43643550  1  0  0.771856  0  3.788411  0  0  0.732058  0  4.084639  0  0  0.76622  0  4.075222  0  0  0.233768  0.708731  0  4.089869  0
C  C41  1  0.41195441  0.26666894  0.06346317  1  0  0.773152  0  3.78776  0  0  0.732627  0  4.084665  0  0  0.766736  0  4.075241  0  0  0.233995  0.709319  0  4.089931  0
C  C42  1  0.15220489  0.79714824  0.06353275  1  0  0.772115  0  3.787724  0  0  0.732082  0  4.084186  0  0  0.766243  0  4.074776  0  0  0.23367  0.708758  0  4.089415  0
C  C43  1  0.23340944  0.08803569  0.43656535  1  0  0.773071  0  3.787941  0  0  0.732517  0  4.084708  0  0  0.766604  0  4.075324  0  0  0.234071  0.709207  0  4.089965  0
C  C44  1  0.47047124  0.80649200  0.57693516  1  0  -0.239309  0  3.689475  0  0  -0.278855  0  3.938392  0  0  -0.284086  0  3.946515  0  0  -0.157669  -0.275311  0  3.932887  0
C  C45  1  0.72874122  0.89337506  0.92326291  1  0  -0.242031  0  3.692395  0  0  -0.281453  0  3.941645  0  0  -0.286489  0  3.949618  0  0  -0.158159  -0.278041  0  3.936246  0
C  C46  1  0.69355068  0.02954219  0.92308177  1  0  -0.239453  0  3.689501  0  0  -0.278799  0  3.938341  0  0  -0.28403  0  3.946463  0  0  -0.157566  -0.275251  0  3.932838  0
C  C47  1  0.60663144  0.77129250  0.57674318  1  0  -0.242086  0  3.692283  0  0  -0.28122  0  3.941189  0  0  -0.286244  0  3.949175  0  0  -0.158069  -0.277803  0  3.935782  0
C  C48  1  0.52957087  0.19352209  0.42307725  1  0  -0.239335  0  3.689941  0  0  -0.278963  0  3.938681  0  0  -0.284195  0  3.946797  0  0  -0.157609  -0.275419  0  3.933177  0
C  C49  1  0.27125880  0.10665136  0.07673440  1  0  -0.241919  0  3.692377  0  0  -0.281191  0  3.941525  0  0  -0.286209  0  3.949497  0  0  -0.158112  -0.277775  0  3.936124  0
C  C50  1  0.30644075  0.97048608  0.07690676  1  0  -0.239743  0  3.689678  0  0  -0.279077  0  3.938372  0  0  -0.284309  0  3.946486  0  0  -0.157664  -0.275529  0  3.932869  0
C  C51  1  0.39341434  0.22871445  0.42327174  1  0  -0.241965  0  3.692289  0  0  -0.280818  0  3.940923  0  0  -0.285831  0  3.948905  0  0  -0.157871  -0.277404  0  3.935522  0
C  C52  1  0.07902040  0.42096362  0.74999315  1  0  0.584786  0  3.868562  0  0  0.53639  0  4.170786  0  0  0.567078  0  4.161124  0  0  0.234867  0.515517  0  4.176307  0
C  C53  1  0.17116689  0.32881756  0.74999962  1  0  0.582536  0  3.869313  0  0  0.535609  0  4.170114  0  0  0.566182  0  4.160538  0  0  0.235191  0.514801  0  4.175573  0
C  C54  1  0.92095589  0.57900730  0.24999279  1  0  0.584215  0  3.86908  0  0  0.535962  0  4.171061  0  0  0.566656  0  4.16141  0  0  0.234752  0.515089  0  4.176571  0
C  C55  1  0.82880251  0.67114815  0.24998928  1  0  0.582647  0  3.869014  0  0  0.535646  0  4.169832  0  0  0.566224  0  4.160276  0  0  0.235211  0.514837  0  4.17528  0
O  O56  1  0.27715348  0.51119815  0.56154194  1  0  -0.703089  0  1.972299  0  0  -0.664657  0  2.211083  0  0  -0.69037  0  2.201269  0  0  -0.382238  -0.646123  0  2.21737  0
O  O57  1  0.44891620  0.71519431  0.93850934  1  0  -0.703008  0  1.971957  0  0  -0.664519  0  2.21105  0  0  -0.690277  0  2.201255  0  0  -0.382176  -0.645977  0  2.217324  0
O  O58  1  0.98885486  0.22289025  0.93849484  1  0  -0.703029  0  1.971566  0  0  -0.664562  0  2.210352  0  0  -0.690304  0  2.200534  0  0  -0.382177  -0.646025  0  2.216639  0
O  O59  1  0.78482177  0.05107993  0.56145582  1  0  -0.7031  0  1.972389  0  0  -0.664646  0  2.211489  0  0  -0.690351  0  2.201708  0  0  -0.382129  -0.646115  0  2.217761  0
O  O60  1  0.72290399  0.48882691  0.43848880  1  0  -0.703243  0  1.971882  0  0  -0.664877  0  2.210574  0  0  -0.690639  0  2.200755  0  0  -0.382346  -0.646336  0  2.21686  0
O  O61  1  0.55104779  0.28482218  0.06145063  1  0  -0.702909  0  1.972022  0  0  -0.664349  0  2.211157  0  0  -0.690113  0  2.201367  0  0  -0.382122  -0.645811  0  2.217434  0
O  O62  1  0.01115977  0.77716960  0.06153934  1  0  -0.703032  0  1.97171  0  0  -0.664558  0  2.210464  0  0  -0.690326  0  2.200652  0  0  -0.382154  -0.646024  0  2.216746  0
O  O63  1  0.21520876  0.94889233  0.43852274  1  0  -0.702979  0  1.971782  0  0  -0.664462  0  2.210951  0  0  -0.690207  0  2.201167  0  0  -0.382185  -0.64592  0  2.217219  0
O  O64  1  0.17486022  0.67180225  0.55291099  1  0  -0.786508  0  2.090807  0  0  -0.747961  0  2.357731  0  0  -0.774654  0  2.344778  0  0  -0.437969  -0.728073  0  2.365723  0
O  O65  1  0.61840617  0.62182592  0.94709430  1  0  -0.78734  0  2.089833  0  0  -0.748888  0  2.357304  0  0  -0.775609  0  2.344387  0  0  -0.438444  -0.728988  0  2.365271  0
O  O66  1  0.82818450  0.32513348  0.94706682  1  0  -0.786466  0  2.090627  0  0  -0.747944  0  2.357665  0  0  -0.774652  0  2.344719  0  0  -0.437997  -0.728056  0  2.365654  0
O  O67  1  0.87818722  0.88159421  0.55292957  1  0  -0.787431  0  2.089863  0  0  -0.749017  0  2.357386  0  0  -0.775708  0  2.344478  0  0  -0.43848  -0.729124  0  2.365355  0
O  O68  1  0.82515414  0.32816982  0.44703729  1  0  -0.786262  0  2.091137  0  0  -0.747876  0  2.357993  0  0  -0.774512  0  2.34507  0  0  -0.437971  -0.727993  0  2.365982  0
O  O69  1  0.38160343  0.37825398  0.05297145  1  0  -0.787233  0  2.090348  0  0  -0.74871  0  2.357708  0  0  -0.775393  0  2.34483  0  0  -0.438249  -0.728808  0  2.365671  0
O  O70  1  0.17175852  0.67486930  0.05287530  1  0  -0.786482  0  2.090691  0  0  -0.748024  0  2.357772  0  0  -0.77471  0  2.344849  0  0  -0.438006  -0.72813  0  2.365758  0
O  O71  1  0.12189641  0.11842183  0.44713736  1  0  -0.786662  0  2.090213  0  0  -0.748322  0  2.357874  0  0  -0.774956  0  2.345013  0  0  -0.438156  -0.728428  0  2.365833  0
O  O72  1  0.00434269  0.41494386  0.66259763  1  0  -0.643786  0  2.120786  0  0  -0.59448  0  2.352008  0  0  -0.61961  0  2.342673  0  0  -0.332553  -0.576511  0  2.358047  0
O  O73  1  0.25179734  0.34076607  0.83742128  1  0  -0.643176  0  2.120065  0  0  -0.594184  0  2.350702  0  0  -0.619266  0  2.3414  0  0  -0.33276  -0.576246  0  2.356723  0
O  O74  1  0.08503196  0.49564829  0.83739225  1  0  -0.643729  0  2.12047  0  0  -0.594411  0  2.351714  0  0  -0.619582  0  2.342386  0  0  -0.332527  -0.576436  0  2.357748  0
O  O75  1  0.15923737  0.24819390  0.66258958  1  0  -0.643108  0  2.120311  0  0  -0.594169  0  2.350996  0  0  -0.61922  0  2.341689  0  0  -0.332731  -0.576234  0  2.357016  0
O  O76  1  0.99564117  0.58502520  0.33739989  1  0  -0.64357  0  2.120402  0  0  -0.594249  0  2.351522  0  0  -0.619429  0  2.342196  0  0  -0.332503  -0.576273  0  2.357549  0
O  O77  1  0.74818501  0.65921413  0.16258317  1  0  -0.643126  0  2.120421  0  0  -0.594086  0  2.351129  0  0  -0.619193  0  2.341823  0  0  -0.332719  -0.576147  0  2.357141  0
O  O78  1  0.91494238  0.50432883  0.16260146  1  0  -0.643458  0  2.121012  0  0  -0.59418  0  2.352175  0  0  -0.619359  0  2.342838  0  0  -0.332509  -0.57621  0  2.35821  0
O  O79  1  0.84075962  0.75179818  0.33741941  1  0  -0.643172  0  2.119593  0  0  -0.594195  0  2.350277  0  0  -0.619298  0  2.340976  0  0  -0.332768  -0.576252  0  2.356294  0
O  O80  1  0.77914956  0.99633279  0.34876312  1  0  -0.883948  0  1.854316  0  0  -0.847608  0  2.033137  0  0  -0.865641  0  2.001398  0  0  -0.612853  -0.834121  0  2.05401  0
O  O81  1  0.14743343  0.43033382  0.15116247  1  0  -0.883049  0  1.854609  0  0  -0.846853  0  2.032337  0  0  -0.864928  0  2.000571  0  0  -0.611908  -0.833362  0  2.053212  0
O  O82  1  0.50405117  0.72146163  0.15122496  1  0  -0.882755  0  1.85433  0  0  -0.846414  0  2.032964  0  0  -0.864462  0  2.001376  0  0  -0.611938  -0.832935  0  2.053803  0
O  O83  1  0.07015919  0.35287249  0.34883931  1  0  -0.882502  0  1.85445  0  0  -0.846274  0  2.032179  0  0  -0.864315  0  2.000482  0  0  -0.611605  -0.832777  0  2.053023  0
O  O84  1  0.22124240  0.00391367  0.65123169  1  0  -0.883171  0  1.85478  0  0  -0.846752  0  2.033407  0  0  -0.864851  0  2.001656  0  0  -0.612375  -0.833252  0  2.054231  0
O  O85  1  0.85273534  0.56994216  0.84884116  1  0  -0.882995  0  1.85414  0  0  -0.846771  0  2.03191  0  0  -0.864841  0  2.000132  0  0  -0.611969  -0.833274  0  2.052766  0
O  O86  1  0.49617352  0.27889794  0.84876138  1  0  -0.883613  0  1.854075  0  0  -0.847166  0  2.032937  0  0  -0.865251  0  2.001313  0  0  -0.612573  -0.833675  0  2.053786  0
O  O87  1  0.93014071  0.64732408  0.65116668  1  0  -0.882647  0  1.854599  0  0  -0.846385  0  2.032386  0  0  -0.864472  0  2.000632  0  0  -0.611929  -0.832892  0  2.05324  0
