# generated using pymatgen
data_CuH11C7IN2
_symmetry_space_group_name_H-M   'P 1'
_cell_length_a   4.34204497
_cell_length_b   8.50443366
_cell_length_c   12.39641228
_cell_angle_alpha   81.74777764
_cell_angle_beta   83.43945614
_cell_angle_gamma   84.51747400
_symmetry_Int_Tables_number   1
_chemical_formula_structural   CuH11C7IN2
_chemical_formula_sum   'Cu2 H22 C14 I2 N4'
_cell_volume   448.59101995
_cell_formula_units_Z   2
loop_
 _symmetry_equiv_pos_site_id
 _symmetry_equiv_pos_as_xyz
  1  'x, y, z'
loop_
 _atom_site_type_symbol
 _atom_site_label
 _atom_site_symmetry_multiplicity
 _atom_site_fract_x
 _atom_site_fract_y
 _atom_site_fract_z
 _atom_site_occupancy
 _atom_site_hle17_bader_spin_density
 _atom_site_hle17_ddec_charge
 _atom_site_hle17_ddec_spin_density
 _atom_site_hle17_ddec_sum_bond_order
 _atom_site_hle17_magmom
 _atom_site_hse06_10hf_bader_spin_density
 _atom_site_hse06_10hf_ddec_charge
 _atom_site_hse06_10hf_ddec_spin_density
 _atom_site_hse06_10hf_ddec_sum_bond_order
 _atom_site_hse06_10hf_magmom
 _atom_site_hse06_bader_spin_density
 _atom_site_hse06_ddec_charge
 _atom_site_hse06_ddec_spin_density
 _atom_site_hse06_ddec_sum_bond_order
 _atom_site_hse06_magmom
 _atom_site_pbe_bader_spin_density
 _atom_site_pbe_cm5_charge
 _atom_site_pbe_ddec_charge
 _atom_site_pbe_ddec_spin_density
 _atom_site_pbe_ddec_sum_bond_order
 _atom_site_pbe_magmom
Cu  Cu0  1  0.69224189  0.43638217  0.11038705  1  0  0.302114  0  2.009473  0  0  0.213131  0  2.480322  0  0  0.22694  0  2.42915  0  0  0.26288  0.202887  0  2.519188  0
Cu  Cu1  1  0.30775903  0.56361712  0.88961256  1  0  0.302131  0  2.009458  0  0  0.213106  0  2.480264  0  0  0.226973  0  2.429156  0  0  0.262859  0.202881  0  2.51914  0
H  H2  1  0.78142801  0.47968841  0.35784358  1  0  0.114727  0  0.946203  0  0  0.135044  0  1.007469  0  0  0.13742  0  1.005729  0  0  0.089519  0.133285  0  1.008754  0
H  H3  1  0.21856809  0.52031209  0.64215609  1  0  0.114761  0  0.9462  0  0  0.135081  0  1.007458  0  0  0.137456  0  1.005719  0  0  0.089541  0.133321  0  1.008742  0
H  H4  1  0.15367092  0.38747391  0.32225226  1  0  0.12285  0  0.975579  0  0  0.137449  0  1.043868  0  0  0.1393  0  1.044144  0  0  0.086733  0.136143  0  1.043526  0
H  H5  1  0.84632537  0.61252540  0.67774672  1  0  0.122869  0  0.975512  0  0  0.137458  0  1.043813  0  0  0.139308  0  1.044094  0  0  0.086735  0.136152  0  1.043473  0
H  H6  1  0.96025885  0.33494891  0.45556645  1  0  0.111325  0  0.942104  0  0  0.136732  0  0.99391  0  0  0.1379  0  0.993941  0  0  0.091715  0.135906  0  0.993858  0
H  H7  1  0.03973743  0.66505039  0.54443333  1  0  0.111341  0  0.942061  0  0  0.136745  0  0.99387  0  0  0.137912  0  0.993902  0  0  0.091718  0.135919  0  0.99382  0
H  H8  1  0.79423962  0.03196781  0.46429416  1  0  0.127246  0  0.990112  0  0  0.140112  0  1.048257  0  0  0.142717  0  1.048691  0  0  0.102117  0.138268  0  1.048132  0
H  H9  1  0.20574934  0.96803390  0.53570729  1  0  0.127253  0  0.990113  0  0  0.1401  0  1.048285  0  0  0.142704  0  1.048718  0  0  0.102119  0.138257  0  1.048158  0
H  H10  1  0.21916324  0.84847256  0.32152945  1  0  0.116549  0  0.956962  0  0  0.134421  0  1.023053  0  0  0.136334  0  1.022911  0  0  0.091059  0.133083  0  1.022945  0
H  H11  1  0.78083499  0.15152911  0.67847244  1  0  0.116569  0  0.956949  0  0  0.134438  0  1.023045  0  0  0.136353  0  1.022898  0  0  0.091063  0.1331  0  1.022934  0
H  H12  1  0.51371896  0.78315789  0.41039524  1  0  0.116854  0  0.94557  0  0  0.142434  0  0.99782  0  0  0.143545  0  0.997967  0  0  0.096388  0.141529  0  0.997779  0
H  H13  1  0.48627429  0.21684618  0.58960662  1  0  0.11686  0  0.945571  0  0  0.142445  0  0.997816  0  0  0.143551  0  0.997968  0  0  0.096384  0.141538  0  0.997775  0
H  H14  1  0.58910973  0.77346799  0.26715220  1  0  0.116002  0  0.972074  0  0  0.130289  0  1.044561  0  0  0.133049  0  1.043088  0  0  0.084139  0.127887  0  1.04635  0
H  H15  1  0.41088471  0.22652774  0.73285203  1  0  0.115995  0  0.972075  0  0  0.130275  0  1.044565  0  0  0.133034  0  1.043095  0  0  0.084114  0.127874  0  1.04635  0
H  H16  1  0.30171871  0.21780555  0.09342316  1  0  0.073197  0  0.956767  0  0  0.079187  0  1.042295  0  0  0.0827  0  1.036858  0  0  0.096474  0.076311  0  1.046554  0
H  H17  1  0.69828916  0.78219372  0.90657618  1  0  0.073185  0  0.9568  0  0  0.079174  0  1.042324  0  0  0.08268  0  1.036895  0  0  0.096474  0.076298  0  1.046584  0
H  H18  1  0.16798640  0.03541786  0.16268423  1  0  0.078077  0  0.929261  0  0  0.092617  0  0.993931  0  0  0.092842  0  0.995094  0  0  0.108688  0.092414  0  0.993113  0
H  H19  1  0.83202380  0.96458140  0.83731341  1  0  0.078049  0  0.929228  0  0  0.092592  0  0.993904  0  0  0.092818  0  0.995058  0  0  0.108653  0.092387  0  0.993082  0
H  H20  1  0.65650784  0.88636547  0.08897675  1  0  0.064602  0  0.97798  0  0  0.082028  0  1.042568  0  0  0.08228  0  1.044286  0  0  0.074132  0.081234  0  1.042588  0
H  H21  1  0.34350449  0.11363496  0.91102310  1  0  0.064617  0  0.977964  0  0  0.082051  0  1.042581  0  0  0.082305  0  1.044298  0  0  0.074138  0.081248  0  1.042625  0
H  H22  1  0.79343540  0.06978881  0.02359103  1  0  0.067574  0  0.982792  0  0  0.08588  0  1.047212  0  0  0.086577  0  1.047925  0  0  0.079858  0.085387  0  1.046459  0
H  H23  1  0.20657228  0.93021164  0.97641062  1  0  0.067606  0  0.982695  0  0  0.085928  0  1.047141  0  0  0.086624  0  1.047858  0  0  0.079871  0.085435  0  1.046392  0
C  C24  1  0.92665720  0.36652337  0.36848582  1  0  -0.357506  0  3.727185  0  0  -0.432914  0  3.959018  0  0  -0.436156  0  3.965433  0  0  -0.242808  -0.430367  0  3.954365  0
C  C25  1  0.07334105  0.63347831  0.63151366  1  0  -0.357577  0  3.727131  0  0  -0.432987  0  3.958977  0  0  -0.436224  0  3.965395  0  0  -0.242838  -0.430445  0  3.954318  0
C  C26  1  0.77923217  0.23677069  0.32943080  1  0  0.267348  0  3.769675  0  0  0.264932  0  4.039703  0  0  0.275281  0  4.057515  0  0  0.089034  0.258103  0  4.027459  0
C  C27  1  0.22075929  0.76322982  0.67056906  1  0  0.267333  0  3.769883  0  0  0.26494  0  4.039879  0  0  0.275274  0  4.057714  0  0  0.089047  0.258134  0  4.027605  0
C  C28  1  0.73159120  0.08284435  0.38383988  1  0  -0.352206  0  3.757771  0  0  -0.378548  0  4.015168  0  0  -0.390046  0  4.034944  0  0  -0.130394  -0.371155  0  4.002038  0
C  C29  1  0.26840258  0.91715615  0.61615988  1  0  -0.352184  0  3.75786  0  0  -0.378512  0  4.015268  0  0  -0.390007  0  4.035041  0  0  -0.130408  -0.371128  0  4.002131  0
C  C30  1  0.57756157  0.00819409  0.31527071  1  0  0.216512  0  3.751383  0  0  0.20772  0  4.015307  0  0  0.218842  0  4.032909  0  0  0.095347  0.200502  0  4.003125  0
C  C31  1  0.42243685  0.99180639  0.68472887  1  0  0.216394  0  3.751423  0  0  0.207597  0  4.015366  0  0  0.218731  0  4.032954  0  0  0.095319  0.200379  0  4.003177  0
C  C32  1  0.46962721  0.84495806  0.32910325  1  0  -0.357683  0  3.741391  0  0  -0.435584  0  3.979653  0  0  -0.438841  0  3.985375  0  0  -0.238146  -0.432882  0  3.975471  0
C  C33  1  0.53036870  0.15504363  0.67089793  1  0  -0.357661  0  3.741352  0  0  -0.43555  0  3.979604  0  0  -0.438807  0  3.985323  0  0  -0.238094  -0.432851  0  3.975426  0
C  C34  1  0.37745918  0.09742364  0.13152281  1  0  -6.9e-05  0  3.619193  0  0  -0.062795  0  3.878428  0  0  -0.058768  0  3.888765  0  0  -0.056744  -0.065311  0  3.871405  0
C  C35  1  0.62254656  0.90257445  0.86847511  1  0  -1.6e-05  0  3.61903  0  0  -0.062704  0  3.878326  0  0  -0.058667  0  3.888649  0  0  -0.056668  -0.065223  0  3.87131  0
C  C36  1  0.58325113  0.00642346  0.04967618  1  0  -0.134037  0  3.698031  0  0  -0.170878  0  3.943083  0  0  -0.173419  0  3.958223  0  0  -0.178942  -0.16886  0  3.932349  0
C  C37  1  0.41676120  0.99357697  0.95032448  1  0  -0.134048  0  3.697794  0  0  -0.171083  0  3.943063  0  0  -0.173628  0  3.958201  0  0  -0.17897  -0.169069  0  3.932332  0
I  I38  1  0.16065527  0.61698308  0.10321860  1  0  -0.412685  0  1.808866  0  0  -0.346076  0  2.292857  0  0  -0.361143  0  2.244018  0  0  -0.162516  -0.333779  0  2.332306  0
I  I39  1  0.83935010  0.38301739  0.89678153  1  0  -0.412685  0  1.808858  0  0  -0.346066  0  2.292838  0  0  -0.36116  0  2.244045  0  0  -0.162515  -0.333772  0  2.332298  0
N  N40  1  0.66186235  0.25640427  0.23145308  1  0  -0.28925  0  3.19253  0  0  -0.248306  0  3.505463  0  0  -0.258745  0  3.511302  0  0  -0.284486  -0.241149  0  3.500763  0
N  N41  1  0.33814107  0.74359382  0.76854493  1  0  -0.289294  0  3.192716  0  0  -0.248333  0  3.505587  0  0  -0.258785  0  3.511492  0  0  -0.284492  -0.241188  0  3.500886  0
N  N42  1  0.53652106  0.11677845  0.22517265  1  0  0.008419  0  3.506097  0  0  0.093158  0  3.720599  0  0  0.08142  0  3.747791  0  0  -0.154053  0.100599  0  3.702314  0
N  N43  1  0.46348003  0.88321965  0.77482626  1  0  0.008543  0  3.506101  0  0  0.093269  0  3.720599  0  0  0.081527  0  3.747791  0  0  -0.15404  0.100716  0  3.702311  0
