# generated using pymatgen
data_ZnH18C27N4O5
_symmetry_space_group_name_H-M   'P 1'
_cell_length_a   8.80231978
_cell_length_b   10.94657713
_cell_length_c   14.46612700
_cell_angle_alpha   110.66943522
_cell_angle_beta   98.32563278
_cell_angle_gamma   98.89554796
_symmetry_Int_Tables_number   1
_chemical_formula_structural   ZnH18C27N4O5
_chemical_formula_sum   'Zn2 H36 C54 N8 O10'
_cell_volume   1258.15095961
_cell_formula_units_Z   2
loop_
 _symmetry_equiv_pos_site_id
 _symmetry_equiv_pos_as_xyz
  1  'x, y, z'
loop_
 _atom_site_type_symbol
 _atom_site_label
 _atom_site_symmetry_multiplicity
 _atom_site_fract_x
 _atom_site_fract_y
 _atom_site_fract_z
 _atom_site_occupancy
 _atom_site_hle17_bader_spin_density
 _atom_site_hle17_ddec_charge
 _atom_site_hle17_ddec_spin_density
 _atom_site_hle17_ddec_sum_bond_order
 _atom_site_hle17_magmom
 _atom_site_hse06_10hf_bader_spin_density
 _atom_site_hse06_10hf_ddec_charge
 _atom_site_hse06_10hf_ddec_spin_density
 _atom_site_hse06_10hf_ddec_sum_bond_order
 _atom_site_hse06_10hf_magmom
 _atom_site_hse06_bader_spin_density
 _atom_site_hse06_ddec_charge
 _atom_site_hse06_ddec_spin_density
 _atom_site_hse06_ddec_sum_bond_order
 _atom_site_hse06_magmom
 _atom_site_pbe_bader_spin_density
 _atom_site_pbe_cm5_charge
 _atom_site_pbe_ddec_charge
 _atom_site_pbe_ddec_spin_density
 _atom_site_pbe_ddec_sum_bond_order
 _atom_site_pbe_magmom
Zn  Zn0  1  0.13386498  0.78224649  0.37669326  1  0  1.005155  0  1.884089  0  0  0.815782  0  2.363545  0  0  0.862  0  2.307998  0  0  0.697583  0.783564  0  2.40171  0
Zn  Zn1  1  0.86613604  0.21775376  0.62330662  1  0  1.00512  0  1.88412  0  0  0.815752  0  2.363561  0  0  0.861969  0  2.308017  0  0  0.697568  0.783535  0  2.401732  0
H  H2  1  0.38782521  0.46579040  0.28113371  1  0  0.089688  0  0.982907  0  0  0.09715  0  1.050145  0  0  0.099941  0  1.049435  0  0  0.095722  0.095153  0  1.050689  0
H  H3  1  0.61217209  0.53420380  0.71886561  1  0  0.089738  0  0.982877  0  0  0.097201  0  1.05011  0  0  0.099991  0  1.049404  0  0  0.095755  0.0952  0  1.050654  0
H  H4  1  0.55436491  0.32111096  0.18621875  1  0  0.102732  0  0.935284  0  0  0.112854  0  0.993016  0  0  0.116566  0  0.99083  0  0  0.105123  0.110129  0  0.994741  0
H  H5  1  0.44562659  0.67887817  0.81377943  1  0  0.102665  0  0.935323  0  0  0.112804  0  0.993055  0  0  0.116515  0  0.99087  0  0  0.105077  0.110078  0  0.994785  0
H  H6  1  0.30143754  0.32037046  0.90754602  1  0  0.091295  0  0.954918  0  0  0.101985  0  1.016099  0  0  0.104589  0  1.016004  0  0  0.101251  0.100093  0  1.016327  0
H  H7  1  0.69856244  0.67962974  0.09245654  1  0  0.091301  0  0.954889  0  0  0.101983  0  1.016078  0  0  0.10459  0  1.015974  0  0  0.101223  0.10009  0  1.016312  0
H  H8  1  0.14318618  0.46970384  0.00251281  1  0  0.120269  0  0.948324  0  0  0.125982  0  1.013782  0  0  0.130274  0  1.010258  0  0  0.107567  0.122757  0  1.016566  0
H  H9  1  0.85681692  0.53030045  0.99748696  1  0  0.120268  0  0.948367  0  0  0.125994  0  1.013796  0  0  0.130285  0  1.010272  0  0  0.107563  0.122761  0  1.016586  0
H  H10  1  0.16684311  0.86437833  0.75502726  1  0  0.09624  0  0.959745  0  0  0.102908  0  1.02686  0  0  0.106815  0  1.023783  0  0  0.099768  0.100097  0  1.02909  0
H  H11  1  0.83315421  0.13562088  0.24497207  1  0  0.096228  0  0.959745  0  0  0.102893  0  1.02686  0  0  0.1068  0  1.023784  0  0  0.099763  0.100081  0  1.029092  0
H  H12  1  0.28485858  0.03797348  0.92919217  1  0  0.093492  0  0.966271  0  0  0.10196  0  1.030515  0  0  0.104392  0  1.031209  0  0  0.098287  0.100223  0  1.030094  0
H  H13  1  0.71513814  0.96202771  0.07080905  1  0  0.093476  0  0.966278  0  0  0.101943  0  1.030525  0  0  0.104375  0  1.031218  0  0  0.098274  0.100207  0  1.030099  0
H  H14  1  0.64951971  0.20814315  0.81246922  1  0  0.096363  0  0.965744  0  0  0.103854  0  1.033035  0  0  0.106338  0  1.032563  0  0  0.101614  0.102081  0  1.033384  0
H  H15  1  0.35047591  0.79185407  0.18752804  1  0  0.096333  0  0.965715  0  0  0.103826  0  1.033015  0  0  0.106303  0  1.032562  0  0  0.101557  0.102048  0  1.033368  0
H  H16  1  0.51724449  0.04478559  0.63672129  1  0  0.103758  0  0.947345  0  0  0.113673  0  1.009082  0  0  0.117367  0  1.006389  0  0  0.104503  0.111029  0  1.011052  0
H  H17  1  0.48275254  0.95521264  0.36327636  1  0  0.10378  0  0.947434  0  0  0.113666  0  1.009182  0  0  0.117361  0  1.006489  0  0  0.104471  0.111021  0  1.011157  0
H  H18  1  0.02531916  0.78843585  0.16123308  1  0  0.114677  0  0.969562  0  0  0.121458  0  1.035849  0  0  0.124491  0  1.032098  0  0  0.141233  0.119245  0  1.03849  0
H  H19  1  0.97468368  0.21155741  0.83876707  1  0  0.114739  0  0.969498  0  0  0.121532  0  1.035764  0  0  0.124563  0  1.032016  0  0  0.141283  0.119323  0  1.038407  0
H  H20  1  0.24763308  0.10740100  0.43655390  1  0  0.10979  0  0.959453  0  0  0.116766  0  1.022001  0  0  0.119177  0  1.021652  0  0  0.120276  0.115053  0  1.022294  0
H  H21  1  0.75236235  0.89260021  0.56344377  1  0  0.109778  0  0.959532  0  0  0.116751  0  1.022072  0  0  0.119164  0  1.021722  0  0  0.120272  0.115038  0  1.022366  0
H  H22  1  0.21157453  0.20933443  0.28497438  1  0  0.119743  0  0.947064  0  0  0.131475  0  1.003692  0  0  0.134058  0  1.002808  0  0  0.128412  0.129722  0  1.004237  0
H  H23  1  0.78842027  0.79065981  0.71501993  1  0  0.11973  0  0.947128  0  0  0.131467  0  1.003749  0  0  0.134049  0  1.002864  0  0  0.128388  0.129698  0  1.00431  0
H  H24  1  0.06763224  0.79554694  0.01668173  1  0  0.126211  0  0.947034  0  0  0.134822  0  1.007193  0  0  0.138025  0  1.004994  0  0  0.116214  0.132458  0  1.008963  0
H  H25  1  0.93236742  0.20444334  0.98331390  1  0  0.126129  0  0.947053  0  0  0.134734  0  1.007222  0  0  0.137935  0  1.005023  0  0  0.116211  0.132374  0  1.008991  0
H  H26  1  0.03286479  0.20876462  0.15149168  1  0  0.112676  0  0.933838  0  0  0.127153  0  0.98514  0  0  0.129662  0  0.984422  0  0  0.116031  0.125367  0  0.985698  0
H  H27  1  0.96713712  0.79122571  0.84850274  1  0  0.112854  0  0.933723  0  0  0.127261  0  0.985083  0  0  0.12977  0  0.984362  0  0  0.11605  0.125472  0  0.98564  0
H  H28  1  0.52352057  0.71461639  0.33813099  1  0  0.128255  0  0.969684  0  0  0.133811  0  1.036763  0  0  0.136949  0  1.035114  0  0  0.125111  0.131544  0  1.037998  0
H  H29  1  0.47647947  0.28538882  0.66187227  1  0  0.128311  0  0.969576  0  0  0.133795  0  1.036736  0  0  0.136933  0  1.035087  0  0  0.125102  0.131527  0  1.037976  0
H  H30  1  0.79567719  0.82938739  0.29393414  1  0  0.101698  0  0.970916  0  0  0.108925  0  1.035497  0  0  0.110245  0  1.036953  0  0  0.116396  0.107881  0  1.034728  0
H  H31  1  0.20432241  0.17061186  0.70606467  1  0  0.101661  0  0.970975  0  0  0.108894  0  1.03555  0  0  0.110214  0  1.037009  0  0  0.116399  0.107846  0  1.034787  0
H  H32  1  0.92277337  0.61804513  0.47565081  1  0  0.118511  0  0.940927  0  0  0.128737  0  0.999049  0  0  0.131993  0  0.994634  0  0  0.143825  0.126343  0  1.002171  0
H  H33  1  0.07722825  0.38196212  0.52435175  1  0  0.118571  0  0.940851  0  0  0.128762  0  0.999017  0  0  0.132009  0  0.994602  0  0  0.143834  0.126364  0  1.002139  0
H  H34  1  0.44015778  0.70912494  0.48697884  1  0  0.117461  0  0.956305  0  0  0.127271  0  1.017377  0  0  0.130188  0  1.015899  0  0  0.111804  0.125094  0  1.018607  0
H  H35  1  0.55984705  0.29088528  0.51302893  1  0  0.11753  0  0.956324  0  0  0.127304  0  1.01741  0  0  0.130222  0  1.015931  0  0  0.111825  0.12514  0  1.018643  0
H  H36  1  0.72770095  0.41434665  0.43824151  1  0  0.1244  0  0.974237  0  0  0.13309  0  1.03537  0  0  0.136596  0  1.033179  0  0  0.109469  0.13058  0  1.036979  0
H  H37  1  0.27230528  0.58566459  0.56176664  1  0  0.124337  0  0.974414  0  0  0.133038  0  1.035542  0  0  0.136545  0  1.03335  0  0  0.109447  0.130527  0  1.037147  0
C  C38  1  0.17024543  0.57691166  0.20606026  1  0  0.623232  0  3.938841  0  0  0.576843  0  4.230762  0  0  0.61063  0  4.22341  0  0  0.197105  0.554014  0  4.234804  0
C  C39  1  0.82975978  0.42309164  0.79394077  1  0  0.623194  0  3.938612  0  0  0.57684  0  4.230495  0  0  0.610624  0  4.223146  0  0  0.197135  0.554021  0  4.234525  0
C  C40  1  0.25765973  0.47815933  0.14813554  1  0  -0.048034  0  3.734686  0  0  -0.024614  0  3.963676  0  0  -0.032209  0  3.987814  0  0  -0.013543  -0.019679  0  3.947323  0
C  C41  1  0.74234283  0.52184190  0.85186818  1  0  -0.048055  0  3.734817  0  0  -0.024663  0  3.96382  0  0  -0.032259  0  3.98796  0  0  -0.013604  -0.019731  0  3.947461  0
C  C42  1  0.37117138  0.43362496  0.19931472  1  0  -0.089773  0  3.763907  0  0  -0.113226  0  4.017468  0  0  -0.114171  0  4.038575  0  0  -0.092612  -0.112531  0  4.002993  0
C  C43  1  0.62882800  0.56637328  0.80068449  1  0  -0.089761  0  3.764054  0  0  -0.113204  0  4.017607  0  0  -0.11415  0  4.038716  0  0  -0.09257  -0.112502  0  4.003123  0
C  C44  1  0.46266509  0.35282398  0.14677924  1  0  -0.077231  0  3.735324  0  0  -0.09938  0  3.984557  0  0  -0.100662  0  4.003985  0  0  -0.083679  -0.098395  0  3.971268  0
C  C45  1  0.53733467  0.64717128  0.85321847  1  0  -0.077182  0  3.735366  0  0  -0.099345  0  3.984594  0  0  -0.100626  0  4.004026  0  0  -0.083685  -0.098362  0  3.971305  0
C  C46  1  0.43824814  0.31179442  0.04120842  1  0  -0.031433  0  3.773311  0  0  -0.014699  0  4.00572  0  0  -0.019401  0  4.029492  0  0  -0.016651  -0.011362  0  3.989482  0
C  C47  1  0.56175001  0.68820777  0.95879386  1  0  -0.03144  0  3.773198  0  0  -0.01471  0  4.005628  0  0  -0.019437  0  4.029389  0  0  -0.016661  -0.011374  0  3.989387  0
C  C48  1  0.54538459  0.23592959  0.98529634  1  0  0.392202  0  3.729817  0  0  0.37551  0  3.988182  0  0  0.396566  0  3.989649  0  0  0.166618  0.360931  0  3.987183  0
C  C49  1  0.45461586  0.76406869  0.01470088  1  0  0.39228  0  3.729741  0  0  0.375575  0  3.988116  0  0  0.396701  0  3.989479  0  0  0.166654  0.36101  0  3.98711  0
C  C50  1  0.31993111  0.35138691  0.98948595  1  0  -0.083039  0  3.725497  0  0  -0.103528  0  3.974038  0  0  -0.106186  0  3.996848  0  0  -0.08217  -0.101682  0  3.958459  0
C  C51  1  0.68006876  0.64861334  0.01051384  1  0  -0.083034  0  3.725318  0  0  -0.103522  0  3.97384  0  0  -0.106177  0  3.996653  0  0  -0.082152  -0.101679  0  3.958262  0
C  C52  1  0.23135128  0.43557038  0.04257318  1  0  -0.067849  0  3.701239  0  0  -0.090225  0  3.948343  0  0  -0.091314  0  3.969098  0  0  -0.079511  -0.089173  0  3.934251  0
C  C53  1  0.76865293  0.56442892  0.95742597  1  0  -0.067841  0  3.701302  0  0  -0.090202  0  3.948365  0  0  -0.091291  0  3.969119  0  0  -0.079451  -0.089145  0  3.934274  0
C  C54  1  0.24845253  0.85138292  0.58177079  1  0  0.632726  0  3.936398  0  0  0.585562  0  4.227869  0  0  0.619471  0  4.220494  0  0  0.199144  0.562533  0  4.232271  0
C  C55  1  0.75154485  0.14861628  0.41822992  1  0  0.632951  0  3.936262  0  0  0.585778  0  4.227742  0  0  0.619686  0  4.220366  0  0  0.199227  0.562753  0  4.232145  0
C  C56  1  0.33409067  0.94601757  0.68624807  1  0  -0.061461  0  3.761618  0  0  -0.036327  0  3.98795  0  0  -0.043957  0  4.011242  0  0  -0.017037  -0.031503  0  3.972481  0
C  C57  1  0.66590323  0.05398159  0.31375169  1  0  -0.06161  0  3.761697  0  0  -0.036499  0  3.988073  0  0  -0.04413  0  4.011366  0  0  -0.017084  -0.031679  0  3.972607  0
C  C58  1  0.27097897  0.94186038  0.76889956  1  0  -0.072186  0  3.745524  0  0  -0.095496  0  3.994295  0  0  -0.095436  0  4.013689  0  0  -0.087454  -0.095321  0  3.981139  0
C  C59  1  0.72901839  0.05813883  0.23110046  1  0  -0.072109  0  3.745487  0  0  -0.095404  0  3.994247  0  0  -0.095344  0  4.013642  0  0  -0.087418  -0.095223  0  3.981087  0
C  C60  1  0.33751529  0.03790872  0.86543169  1  0  -0.099906  0  3.753189  0  0  -0.120477  0  4.002686  0  0  -0.123137  0  4.024081  0  0  -0.089966  -0.118614  0  3.988061  0
C  C61  1  0.66248318  0.96209051  0.13456772  1  0  -0.09988  0  3.753202  0  0  -0.120448  0  4.002694  0  0  -0.123109  0  4.024093  0  0  -0.089972  -0.11859  0  3.988069  0
C  C62  1  0.47421779  0.13412898  0.88107899  1  0  -0.02576  0  3.776919  0  0  -0.008105  0  4.007392  0  0  -0.011485  0  4.029064  0  0  -0.016428  -0.00562  0  3.992581  0
C  C63  1  0.52578060  0.86587027  0.11891835  1  0  -0.02582  0  3.776711  0  0  -0.00817  0  4.007191  0  0  -0.01157  0  4.028849  0  0  -0.01644  -0.005697  0  3.992387  0
C  C64  1  0.54305350  0.13336342  0.79937804  1  0  -0.084272  0  3.721583  0  0  -0.105906  0  3.972615  0  0  -0.1079  0  3.993608  0  0  -0.086429  -0.104603  0  3.958433  0
C  C65  1  0.45694089  0.86663774  0.20062231  1  0  -0.084199  0  3.721455  0  0  -0.105829  0  3.972443  0  0  -0.107825  0  3.993438  0  0  -0.086356  -0.104515  0  3.958258  0
C  C66  1  0.47090779  0.04192310  0.70198105  1  0  -0.07488  0  3.745629  0  0  -0.098427  0  3.995887  0  0  -0.098809  0  4.016703  0  0  -0.08489  -0.098035  0  3.981855  0
C  C67  1  0.52908548  0.95807804  0.29801990  1  0  -0.074893  0  3.745874  0  0  -0.098399  0  3.996099  0  0  -0.098784  0  4.016918  0  0  -0.08487  -0.09801  0  3.982071  0
C  C68  1  0.07943760  0.88924971  0.21522903  1  0  0.165122  0  3.633039  0  0  0.102411  0  3.900233  0  0  0.116425  0  3.911808  0  0  0.149349  0.093383  0  3.892052  0
C  C69  1  0.92056242  0.11074656  0.78476898  1  0  0.16512  0  3.632934  0  0  0.10238  0  3.900144  0  0  0.116395  0  3.911718  0  0  0.149313  0.093344  0  3.891973  0
C  C70  1  0.19467107  0.05773983  0.35653512  1  0  0.022395  0  3.7179  0  0  -0.010747  0  3.98404  0  0  -0.008935  0  4.004195  0  0  0.007941  -0.011972  0  3.970502  0
C  C71  1  0.80532592  0.94225841  0.64346184  1  0  0.022384  0  3.71804  0  0  -0.010755  0  3.984189  0  0  -0.008943  0  4.004343  0  0  0.007918  -0.011987  0  3.970651  0
C  C72  1  0.17674710  0.10887993  0.28266619  1  0  -0.055386  0  3.650809  0  0  -0.098323  0  3.911698  0  0  -0.097231  0  3.930441  0  0  0.006992  -0.099079  0  3.899108  0
C  C73  1  0.82324886  0.89111432  0.71732820  1  0  -0.0553  0  3.650892  0  0  -0.09824  0  3.911734  0  0  -0.097147  0  3.930478  0  0  0.007043  -0.098977  0  3.89914  0
C  C74  1  0.05468663  0.00183752  0.09554110  1  0  0.166322  0  3.782794  0  0  0.157667  0  4.032538  0  0  0.162221  0  4.055377  0  0  0.096198  0.154573  0  4.017112  0
C  C75  1  0.94531610  0.99815578  0.90445629  1  0  0.166502  0  3.782645  0  0  0.157809  0  4.032403  0  0  0.162363  0  4.055241  0  0  0.096186  0.15471  0  4.016979  0
C  C76  1  0.03448032  0.88421472  0.01013689  1  0  -0.121519  0  3.727215  0  0  -0.144756  0  3.984655  0  0  -0.147315  0  4.004526  0  0  -0.079766  -0.142978  0  3.971288  0
C  C77  1  0.96552181  0.11577661  0.98985714  1  0  -0.121439  0  3.727035  0  0  -0.144644  0  3.984468  0  0  -0.147206  0  4.004353  0  0  -0.07975  -0.142872  0  3.971112  0
C  C78  1  0.02084299  0.11764637  0.08541921  1  0  -0.123425  0  3.735851  0  0  -0.145102  0  3.989919  0  0  -0.148019  0  4.01054  0  0  -0.081427  -0.14309  0  3.975892  0
C  C79  1  0.97916101  0.88234297  0.91457578  1  0  -0.123633  0  3.735859  0  0  -0.145226  0  3.989912  0  0  -0.148142  0  4.010537  0  0  -0.081456  -0.143207  0  3.975871  0
C  C80  1  0.64635507  0.71331525  0.35925393  1  0  -0.056409  0  3.641323  0  0  -0.09649  0  3.901308  0  0  -0.0957  0  3.920132  0  0  0.006688  -0.097121  0  3.888818  0
C  C81  1  0.35364649  0.28669201  0.64074724  1  0  -0.056401  0  3.641454  0  0  -0.096434  0  3.901476  0  0  -0.095642  0  3.9203  0  0  0.006673  -0.09707  0  3.888992  0
C  C82  1  0.78097911  0.76703007  0.33719643  1  0  0.016142  0  3.72942  0  0  -0.01755  0  3.992035  0  0  -0.015596  0  4.012587  0  0  0.003422  -0.018856  0  3.97832  0
C  C83  1  0.21902101  0.23297118  0.66280366  1  0  0.016241  0  3.729344  0  0  -0.017443  0  3.991948  0  0  -0.015492  0  4.012502  0  0  0.003471  -0.018743  0  3.978232  0
C  C84  1  0.85166211  0.65542419  0.42877889  1  0  0.180201  0  3.627508  0  0  0.117015  0  3.887987  0  0  0.131642  0  3.89893  0  0  0.152365  0.107774  0  3.880003  0
C  C85  1  0.14834163  0.34458206  0.57122492  1  0  0.18025  0  3.627479  0  0  0.117093  0  3.887954  0  0  0.131737  0  3.898885  0  0  0.15238  0.107852  0  3.879967  0
C  C86  1  0.46597173  0.61754624  0.49245764  1  0  -0.118547  0  3.727329  0  0  -0.139136  0  3.979176  0  0  -0.141206  0  3.998798  0  0  -0.083356  -0.137749  0  3.966108  0
C  C87  1  0.53403076  0.38246396  0.50754926  1  0  -0.118666  0  3.727422  0  0  -0.139213  0  3.979336  0  0  -0.141284  0  3.998958  0  0  -0.083383  -0.137845  0  3.966288  0
C  C88  1  0.59486999  0.57036142  0.45900246  1  0  0.164712  0  3.799918  0  0  0.156375  0  4.048439  0  0  0.160585  0  4.071858  0  0  0.093377  0.153447  0  4.032663  0
C  C89  1  0.40513383  0.42964481  0.54100343  1  0  0.164855  0  3.79989  0  0  0.156454  0  4.048517  0  0  0.160666  0  4.071935  0  0  0.09339  0.153529  0  4.032741  0
C  C90  1  0.62936036  0.45324052  0.46617131  1  0  -0.136961  0  3.726765  0  0  -0.156264  0  3.972688  0  0  -0.160113  0  3.993812  0  0  -0.086898  -0.153715  0  3.958633  0
C  C91  1  0.37064600  0.54677175  0.53383436  1  0  -0.13706  0  3.726971  0  0  -0.156377  0  3.972955  0  0  -0.160229  0  3.994085  0  0  -0.086981  -0.153831  0  3.95889  0
N  N92  1  0.13391042  0.92100725  0.31329712  1  0  -0.376258  0  3.297046  0  0  -0.294223  0  3.591568  0  0  -0.313881  0  3.603515  0  0  -0.354386  -0.280942  0  3.583247  0
N  N93  1  0.86608806  0.07899198  0.68670229  1  0  -0.376269  0  3.297023  0  0  -0.294223  0  3.591555  0  0  -0.31388  0  3.6035  0  0  -0.354396  -0.280941  0  3.583239  0
N  N94  1  0.10385804  0.00070788  0.19316810  1  0  -0.082417  0  3.609558  0  0  0.006609  0  3.822016  0  0  -0.008345  0  3.848545  0  0  -0.219306  0.016513  0  3.803948  0
N  N95  1  0.89614260  0.99928640  0.80682872  1  0  -0.082595  0  3.609516  0  0  0.00646  0  3.821995  0  0  -0.008496  0  3.848524  0  0  -0.219301  0.016367  0  3.803921  0
N  N96  1  0.90749680  0.73069863  0.38129540  1  0  -0.377608  0  3.331745  0  0  -0.294607  0  3.631446  0  0  -0.314185  0  3.641751  0  0  -0.355464  -0.28136  0  3.624153  0
N  N97  1  0.09250077  0.26930158  0.61870422  1  0  -0.37766  0  3.331695  0  0  -0.294673  0  3.631412  0  0  -0.314251  0  3.641712  0  0  -0.355503  -0.281429  0  3.624119  0
N  N98  1  0.69310081  0.64223466  0.41697066  1  0  -0.091829  0  3.613732  0  0  -0.001713  0  3.826332  0  0  -0.016589  0  3.852219  0  0  -0.22599  0.008188  0  3.808616  0
N  N99  1  0.30690416  0.35777157  0.58303531  1  0  -0.092064  0  3.61422  0  0  -0.001908  0  3.826796  0  0  -0.016788  0  3.852683  0  0  -0.226017  0.007995  0  3.809073  0
O  O100  1  0.23417538  0.63967963  0.30244690  1  0  -0.66314  0  2.042945  0  0  -0.588897  0  2.319364  0  0  -0.617731  0  2.303369  0  0  -0.340351  -0.568448  0  2.329457  0
O  O101  1  0.76582657  0.36031963  0.69755347  1  0  -0.663135  0  2.042774  0  0  -0.588898  0  2.319171  0  0  -0.617734  0  2.303179  0  0  -0.340376  -0.568452  0  2.329262  0
O  O102  1  0.05014307  0.59746323  0.16173613  1  0  -0.598986  0  1.914265  0  0  -0.555483  0  2.130291  0  0  -0.577598  0  2.120832  0  0  -0.319334  -0.540129  0  2.136279  0
O  O103  1  0.94986735  0.40254318  0.83826268  1  0  -0.59895  0  1.914186  0  0  -0.55547  0  2.130206  0  0  -0.577583  0  2.120748  0  0  -0.319336  -0.540123  0  2.136193  0
O  O104  1  0.15263411  0.74718092  0.57019474  1  0  -0.623539  0  1.937373  0  0  -0.580937  0  2.160514  0  0  -0.603452  0  2.150415  0  0  -0.325637  -0.565283  0  2.166877  0
O  O105  1  0.84736417  0.25281729  0.42980576  1  0  -0.623663  0  1.937242  0  0  -0.581066  0  2.160421  0  0  -0.603569  0  2.150302  0  0  -0.325707  -0.565414  0  2.166786  0
O  O106  1  0.28016735  0.88744496  0.50882694  1  0  -0.650153  0  2.013858  0  0  -0.577904  0  2.282556  0  0  -0.605738  0  2.26628  0  0  -0.34099  -0.558373  0  2.293112  0
O  O107  1  0.71983116  0.11255426  0.49117316  1  0  -0.650202  0  2.013879  0  0  -0.577944  0  2.282572  0  0  -0.605778  0  2.266296  0  0  -0.340983  -0.558415  0  2.293132  0
O  O108  1  0.68689359  0.25751242  0.02278730  1  0  -0.443428  0  1.89763  0  0  -0.405063  0  2.090629  0  0  -0.420861  0  2.086897  0  0  -0.256046  -0.394089  0  2.093135  0
O  O109  1  0.31310551  0.74248985  0.97721023  1  0  -0.4435  0  1.897598  0  0  -0.405128  0  2.090606  0  0  -0.420947  0  2.086832  0  0  -0.256074  -0.394165  0  2.093116  0
