# generated using pymatgen
data_V2ZnH14C14(NO2)4
_symmetry_space_group_name_H-M   'P 1'
_cell_length_a   8.31630537
_cell_length_b   8.86218540
_cell_length_c   13.62931093
_cell_angle_alpha   80.05977996
_cell_angle_beta   76.88968274
_cell_angle_gamma   68.32847561
_symmetry_Int_Tables_number   1
_chemical_formula_structural   V2ZnH14C14(NO2)4
_chemical_formula_sum   'V4 Zn2 H28 C28 N8 O16'
_cell_volume   904.76471349
_cell_formula_units_Z   2
loop_
 _symmetry_equiv_pos_site_id
 _symmetry_equiv_pos_as_xyz
  1  'x, y, z'
loop_
 _atom_site_type_symbol
 _atom_site_label
 _atom_site_symmetry_multiplicity
 _atom_site_fract_x
 _atom_site_fract_y
 _atom_site_fract_z
 _atom_site_occupancy
 _atom_site_hle17_bader_spin_density
 _atom_site_hle17_ddec_charge
 _atom_site_hle17_ddec_spin_density
 _atom_site_hle17_ddec_sum_bond_order
 _atom_site_hle17_magmom
 _atom_site_hse06_10hf_bader_spin_density
 _atom_site_hse06_10hf_ddec_charge
 _atom_site_hse06_10hf_ddec_spin_density
 _atom_site_hse06_10hf_ddec_sum_bond_order
 _atom_site_hse06_10hf_magmom
 _atom_site_hse06_bader_spin_density
 _atom_site_hse06_ddec_charge
 _atom_site_hse06_ddec_spin_density
 _atom_site_hse06_ddec_sum_bond_order
 _atom_site_hse06_magmom
 _atom_site_pbe_bader_spin_density
 _atom_site_pbe_cm5_charge
 _atom_site_pbe_ddec_charge
 _atom_site_pbe_ddec_spin_density
 _atom_site_pbe_ddec_sum_bond_order
 _atom_site_pbe_magmom
V  V0  1  0.77704676  0.23985791  0.47015757  1  0  2.017631  0  3.031585  0  0  2.084205  0  3.414449  0  0  2.177442  0  3.395021  0  0  1.463024  2.006891  0  3.453868  0
V  V1  1  0.22295491  0.76014183  0.52984228  1  0  2.017618  0  3.031619  0  0  2.084193  0  3.414481  0  0  2.177432  0  3.395048  0  0  1.463049  2.006919  0  3.453841  0
V  V2  1  0.05506585  0.08526400  0.64950579  1  0  1.992517  0  3.029951  0  0  2.054672  0  3.426844  0  0  2.149399  0  3.400041  0  0  1.447503  1.975068  0  3.473689  0
V  V3  1  0.94493583  0.91473574  0.35049406  1  0  1.992427  0  3.029999  0  0  2.054583  0  3.426923  0  0  2.149313  0  3.400074  0  0  1.447457  1.974978  0  3.473746  0
Zn  Zn4  1  0.34880583  0.31383320  0.58777229  1  0  1.15505  0  1.844798  0  0  1.018469  0  2.309948  0  0  1.069528  0  2.24452  0  0  0.700006  0.982877  0  2.353646  0
Zn  Zn5  1  0.65119540  0.68616777  0.41222675  1  0  1.155066  0  1.844842  0  0  1.018503  0  2.309985  0  0  1.06956  0  2.244559  0  0  0.700029  0.982909  0  2.353683  0
H  H6  1  0.02610075  0.55424234  0.28024659  1  0  0.117162  0  0.951763  0  0  0.123357  0  1.018186  0  0  0.127584  0  1.01568  0  0  0.115078  0.120394  0  1.019984  0
H  H7  1  0.97389756  0.44575984  0.71975271  1  0  0.117159  0  0.951751  0  0  0.123352  0  1.018165  0  0  0.127578  0  1.015661  0  0  0.115086  0.12039  0  1.019962  0
H  H8  1  0.76911295  0.22304029  0.14763911  1  0  0.077557  0  0.93076  0  0  0.09284  0  0.991352  0  0  0.094545  0  0.98935  0  0  0.111264  0.091495  0  0.992901  0
H  H9  1  0.23088887  0.77695579  0.85236039  1  0  0.077577  0  0.93074  0  0  0.092861  0  0.991335  0  0  0.094567  0  0.989332  0  0  0.111269  0.091517  0  0.992885  0
H  H10  1  0.81038238  0.41041678  0.10794331  1  0  0.069132  0  0.933346  0  0  0.083989  0  0.99757  0  0  0.083386  0  0.999554  0  0  0.105608  0.084322  0  0.996307  0
H  H11  1  0.18962111  0.58957808  0.89205757  1  0  0.069122  0  0.933312  0  0  0.083974  0  0.997553  0  0  0.083363  0  0.999546  0  0  0.105629  0.084308  0  0.996291  0
H  H12  1  0.77109591  0.39521766  0.94039391  1  0  0.292463  0  0.941557  0  0  0.274952  0  1.007061  0  0  0.282951  0  1.000847  0  0  0.302539  0.269309  0  1.011462  0
H  H13  1  0.22890577  0.60478208  0.05960594  1  0  0.292463  0  0.941593  0  0  0.27495  0  1.007099  0  0  0.282949  0  1.000886  0  0  0.302546  0.269307  0  1.0115  0
H  H14  1  0.38363279  0.05740357  0.26428638  1  0  0.121367  0  0.943588  0  0  0.131655  0  1.001707  0  0  0.134621  0  1.001474  0  0  0.116857  0.129476  0  1.002196  0
H  H15  1  0.61636519  0.94259616  0.73571396  1  0  0.12134  0  0.943673  0  0  0.131661  0  1.001753  0  0  0.134635  0  1.001509  0  0  0.116838  0.129465  0  1.002264  0
H  H16  1  0.12061166  0.08670815  0.19098385  1  0  0.293871  0  0.936414  0  0  0.278012  0  1.000939  0  0  0.285486  0  0.995619  0  0  0.301047  0.272857  0  1.004443  0
H  H17  1  0.87938845  0.91328914  0.80901721  1  0  0.293828  0  0.93648  0  0  0.277967  0  1.001015  0  0  0.285441  0  0.995693  0  0  0.301015  0.272814  0  1.004517  0
H  H18  1  0.41316054  0.10472375  0.96047899  1  0  0.119961  0  0.966141  0  0  0.125478  0  1.033109  0  0  0.129471  0  1.030855  0  0  0.112755  0.122555  0  1.034966  0
H  H19  1  0.58683900  0.89527843  0.03952014  1  0  0.119949  0  0.966173  0  0  0.125462  0  1.033143  0  0  0.129455  0  1.03089  0  0  0.112749  0.122539  0  1.035001  0
H  H20  1  0.29840990  0.14077495  0.80040835  1  0  0.094613  0  0.946106  0  0  0.104715  0  1.005798  0  0  0.107982  0  1.002611  0  0  0.121803  0.102307  0  1.008084  0
H  H21  1  0.70158917  0.85922844  0.19959144  1  0  0.094589  0  0.946088  0  0  0.104688  0  1.005787  0  0  0.107957  0  1.002597  0  0  0.121774  0.102278  0  1.008075  0
H  H22  1  0.05256758  0.07717954  0.03668102  1  0  0.072483  0  0.919097  0  0  0.091353  0  0.974391  0  0  0.091487  0  0.97466  0  0  0.110097  0.091152  0  0.974351  0
H  H23  1  0.94743424  0.92281653  0.96331848  1  0  0.072463  0  0.919085  0  0  0.091328  0  0.974384  0  0  0.091462  0  0.974654  0  0  0.110098  0.091127  0  0.974345  0
H  H24  1  0.08102825  0.26865968  0.98940058  1  0  0.079087  0  0.937863  0  0  0.091855  0  1.004469  0  0  0.092647  0  1.004157  0  0  0.110782  0.091153  0  1.00487  0
H  H25  1  0.91897233  0.73133640  0.01059982  1  0  0.079072  0  0.937857  0  0  0.091834  0  1.004466  0  0  0.092624  0  1.004151  0  0  0.110783  0.091132  0  1.004867  0
H  H26  1  0.11099752  0.54936926  0.44543093  1  0  0.073671  0  1.008598  0  0  0.079066  0  1.08141  0  0  0.081848  0  1.079269  0  0  0.113252  0.07734  0  1.08226  0
H  H27  1  0.88900156  0.45063414  0.55456812  1  0  0.073616  0  1.008655  0  0  0.079036  0  1.081461  0  0  0.081818  0  1.079318  0  0  0.11324  0.077307  0  1.082313  0
H  H28  1  0.46076192  0.07542674  0.42695265  1  0  0.087874  0  0.948804  0  0  0.098744  0  1.010405  0  0  0.101659  0  1.007084  0  0  0.120414  0.096507  0  1.013115  0
H  H29  1  0.53923516  0.92457543  0.57304681  1  0  0.087898  0  0.948755  0  0  0.09876  0  1.010356  0  0  0.101673  0  1.007038  0  0  0.120422  0.096523  0  1.013066  0
H  H30  1  0.63405521  0.48062420  0.82862210  1  0  0.102749  0  0.97626  0  0  0.112126  0  1.038558  0  0  0.11459  0  1.03872  0  0  0.110272  0.110287  0  1.03871  0
H  H31  1  0.36594477  0.51937675  0.17137857  1  0  0.102734  0  0.976263  0  0  0.112122  0  1.038548  0  0  0.114586  0  1.03871  0  0  0.110273  0.110282  0  1.038701  0
H  H32  1  0.50871636  0.50235184  0.67613235  1  0  0.077999  0  0.954021  0  0  0.085211  0  1.020989  0  0  0.086898  0  1.020292  0  0  0.118106  0.084051  0  1.021364  0
H  H33  1  0.49128486  0.49764912  0.32386742  1  0  0.078013  0  0.953993  0  0  0.085222  0  1.02097  0  0  0.086909  0  1.020273  0  0  0.118113  0.084059  0  1.021346  0
C  C34  1  0.11970477  0.44458442  0.31195922  1  0  -0.13268  0  3.713816  0  0  -0.153768  0  3.963805  0  0  -0.15946  0  3.982767  0  0  -0.07322  -0.149951  0  3.950946  0
C  C35  1  0.88029354  0.55541776  0.68804008  1  0  -0.132678  0  3.713802  0  0  -0.153764  0  3.963793  0  0  -0.159456  0  3.982756  0  0  -0.073243  -0.149948  0  3.950936  0
C  C36  1  0.82807068  0.29191756  0.08451744  1  0  0.031622  0  3.649202  0  0  -0.028505  0  3.912932  0  0  -0.023873  0  3.924114  0  0  -0.060745  -0.031537  0  3.905291  0
C  C37  1  0.17193191  0.70807974  0.91548255  1  0  0.031587  0  3.649122  0  0  -0.028558  0  3.912875  0  0  -0.023919  0  3.924055  0  0  -0.060795  -0.031594  0  3.905243  0
C  C38  1  0.31833584  0.16811283  0.30250107  1  0  -0.106993  0  3.653346  0  0  -0.12813  0  3.899019  0  0  -0.132548  0  3.917077  0  0  -0.065066  -0.125389  0  3.88719  0
C  C39  1  0.68166123  0.83188934  0.69749913  1  0  -0.106962  0  3.653455  0  0  -0.128139  0  3.899103  0  0  -0.132565  0  3.917159  0  0  -0.065046  -0.125385  0  3.887283  0
C  C40  1  0.53628453  0.28725045  0.90795009  1  0  0.020773  0  3.698453  0  0  0.037312  0  3.931589  0  0  0.037005  0  3.949458  0  0  0.014382  0.03738  0  3.919775  0
C  C41  1  0.46371423  0.71275051  0.09204928  1  0  0.020696  0  3.698506  0  0  0.03726  0  3.931604  0  0  0.036957  0  3.94947  0  0  0.014382  0.037327  0  3.91979  0
C  C42  1  0.43653046  0.19481515  0.89946953  1  0  -0.105719  0  3.676884  0  0  -0.130948  0  3.928887  0  0  -0.134998  0  3.946897  0  0  -0.069323  -0.128405  0  3.91704  0
C  C43  1  0.56347076  0.80518581  0.10053024  1  0  -0.105694  0  3.676901  0  0  -0.130921  0  3.928885  0  0  -0.134973  0  3.946897  0  0  -0.069337  -0.12838  0  3.917038  0
C  C44  1  0.37222824  0.21417969  0.81079422  1  0  0.127883  0  3.676838  0  0  0.098811  0  3.92353  0  0  0.105182  0  3.940024  0  0  0.051536  0.094606  0  3.912545  0
C  C45  1  0.62777298  0.78582127  0.18920555  1  0  0.127854  0  3.676848  0  0  0.098791  0  3.923547  0  0  0.105161  0  3.940041  0  0  0.05153  0.094586  0  3.912563  0
C  C46  1  0.19561120  0.30457463  0.26024662  1  0  0.013916  0  3.728345  0  0  0.028436  0  3.964891  0  0  0.029063  0  3.982666  0  0  0.01693  0.028039  0  3.952967  0
C  C47  1  0.80438387  0.69542632  0.73975324  1  0  0.013941  0  3.728367  0  0  0.028465  0  3.964879  0  0  0.029085  0  3.982651  0  0  0.016944  0.02807  0  3.952952  0
C  C48  1  0.02656258  0.20067693  0.05517972  1  0  0.034615  0  3.627865  0  0  -0.024783  0  3.890815  0  0  -0.01987  0  3.901059  0  0  -0.055012  -0.027962  0  3.883722  0
C  C49  1  0.97344046  0.79931915  0.94482035  1  0  0.034639  0  3.627752  0  0  -0.024733  0  3.890676  0  0  -0.019816  0  3.900917  0  0  -0.055045  -0.027909  0  3.883581  0
C  C50  1  0.61438087  0.25281042  0.00256390  1  0  0.519462  0  3.865099  0  0  0.473927  0  4.152885  0  0  0.502876  0  4.152378  0  0  0.235252  0.454514  0  4.152458  0
C  C51  1  0.38561835  0.74718931  0.99743627  1  0  0.519539  0  3.865121  0  0  0.473996  0  4.152898  0  0  0.502939  0  4.152397  0  0  0.235273  0.454584  0  4.152469  0
C  C52  1  0.14362287  0.31558879  0.16030390  1  0  0.541015  0  3.842538  0  0  0.492365  0  4.130295  0  0  0.52103  0  4.12908  0  0  0.247737  0.472957  0  4.130692  0
C  C53  1  0.85637558  0.68440972  0.83969579  1  0  0.541071  0  3.842508  0  0  0.492479  0  4.130152  0  0  0.521167  0  4.128906  0  0  0.24781  0.473071  0  4.130553  0
C  C54  1  0.16760593  0.44280857  0.40322739  1  0  0.117677  0  3.716471  0  0  0.08965  0  3.966167  0  0  0.095361  0  3.984789  0  0  0.044917  0.085877  0  3.953503  0
C  C55  1  0.83239114  0.55719360  0.59677281  1  0  0.117645  0  3.716643  0  0  0.089591  0  3.966333  0  0  0.095303  0  3.984955  0  0  0.044886  0.08582  0  3.953671  0
C  C56  1  0.36224742  0.17794063  0.39334592  1  0  0.143925  0  3.669676  0  0  0.112476  0  3.919428  0  0  0.119627  0  3.935484  0  0  0.057927  0.107808  0  3.908596  0
C  C57  1  0.63774842  0.82206153  0.60665371  1  0  0.143888  0  3.669642  0  0  0.11246  0  3.9194  0  0  0.11961  0  3.935462  0  0  0.057903  0.107793  0  3.908563  0
C  C58  1  0.56079682  0.40196445  0.82692887  1  0  -0.110134  0  3.686004  0  0  -0.130737  0  3.932037  0  0  -0.135248  0  3.952118  0  0  -0.0718  -0.127902  0  3.918968  0
C  C59  1  0.43920440  0.59803651  0.17307090  1  0  -0.110082  0  3.685994  0  0  -0.13069  0  3.932003  0  0  -0.135202  0  3.952084  0  0  -0.071786  -0.127856  0  3.918933  0
C  C60  1  0.49119010  0.41538300  0.74098573  1  0  0.129675  0  3.687113  0  0  0.100299  0  3.935328  0  0  0.10598  0  3.954358  0  0  0.051243  0.096536  0  3.922453  0
C  C61  1  0.50880989  0.58461795  0.25901420  1  0  0.129663  0  3.687039  0  0  0.100287  0  3.935269  0  0  0.105968  0  3.9543  0  0  0.051239  0.096527  0  3.922391  0
N  N62  1  0.40047843  0.32163295  0.73195169  1  0  -0.326143  0  3.266414  0  0  -0.244104  0  3.521983  0  0  -0.262727  0  3.537035  0  0  -0.320074  -0.231372  0  3.511726  0
N  N63  1  0.59952278  0.67836801  0.26804955  1  0  -0.32609  0  3.266378  0  0  -0.244078  0  3.521963  0  0  -0.2627  0  3.537016  0  0  -0.320061  -0.231345  0  3.511703  0
N  N64  1  0.73785368  0.31878946  0.00058373  1  0  -0.419922  0  3.337891  0  0  -0.36188  0  3.587219  0  0  -0.384903  0  3.598026  0  0  -0.418696  -0.346045  0  3.579328  0
N  N65  1  0.26214721  0.68120905  0.99941709  1  0  -0.419904  0  3.337903  0  0  -0.361852  0  3.58722  0  0  -0.384873  0  3.598026  0  0  -0.418668  -0.346018  0  3.579328  0
N  N66  1  0.28813865  0.31239373  0.44334140  1  0  -0.337714  0  3.280067  0  0  -0.259159  0  3.540638  0  0  -0.278017  0  3.556174  0  0  -0.318732  -0.246166  0  3.529764  0
N  N67  1  0.71185965  0.68760844  0.55665789  1  0  -0.33764  0  3.280233  0  0  -0.259096  0  3.540806  0  0  -0.277955  0  3.556344  0  0  -0.318672  -0.246102  0  3.529933  0
N  N68  1  0.11376439  0.18683422  0.13911728  1  0  -0.408393  0  3.306352  0  0  -0.348716  0  3.549381  0  0  -0.371076  0  3.559342  0  0  -0.410936  -0.333459  0  3.542302  0
N  N69  1  0.88623651  0.81316430  0.86088280  1  0  -0.40838  0  3.30633  0  0  -0.348733  0  3.549326  0  0  -0.371101  0  3.559278  0  0  -0.410919  -0.333474  0  3.542246  0
O  O70  1  0.28184593  0.56024690  0.56388686  1  0  -0.885092  0  1.541399  0  0  -0.879611  0  1.859693  0  0  -0.915336  0  1.843382  0  0  -0.61327  -0.852156  0  1.873389  0
O  O71  1  0.71815698  0.43975285  0.43611282  1  0  -0.885132  0  1.541429  0  0  -0.879656  0  1.859726  0  0  -0.91538  0  1.843418  0  0  -0.613272  -0.852186  0  1.873428  0
O  O72  1  0.21149723  0.16395126  0.64773884  1  0  -0.917623  0  1.527762  0  0  -0.909843  0  1.843615  0  0  -0.949067  0  1.825835  0  0  -0.624306  -0.879423  0  1.858604  0
O  O73  1  0.78850320  0.83604848  0.35226190  1  0  -0.917582  0  1.527779  0  0  -0.909806  0  1.843634  0  0  -0.949029  0  1.825853  0  0  -0.624283  -0.879384  0  1.858626  0
O  O74  1  0.91397851  0.11454047  0.75571424  1  0  -0.768111  0  1.262645  0  0  -0.780046  0  1.497251  0  0  -0.807481  0  1.489991  0  0  -0.603764  -0.758084  0  1.506257  0
O  O75  1  0.08602452  0.88545561  0.24428730  1  0  -0.768084  0  1.262657  0  0  -0.780018  0  1.497252  0  0  -0.80745  0  1.489997  0  0  -0.603752  -0.758052  0  1.506261  0
O  O76  1  0.85476061  0.13249229  0.35971470  1  0  -0.979339  0  1.548048  0  0  -1.00538  0  1.841512  0  0  -1.048886  0  1.835578  0  0  -0.689815  -0.968112  0  1.84919  0
O  O77  1  0.14524353  0.86750746  0.64028555  1  0  -0.979339  0  1.54803  0  0  -1.005379  0  1.841496  0  0  -1.048889  0  1.835564  0  0  -0.689812  -0.968125  0  1.849169  0
O  O78  1  0.60578938  0.19293624  0.53966421  1  0  -0.890149  0  1.545996  0  0  -0.891657  0  1.869614  0  0  -0.928502  0  1.85528  0  0  -0.609514  -0.862942  0  1.881111  0
O  O79  1  0.39421062  0.80706472  0.46033500  1  0  -0.890163  0  1.546036  0  0  -0.891663  0  1.869631  0  0  -0.928509  0  1.855297  0  0  -0.609518  -0.862958  0  1.881117  0
O  O80  1  0.94867683  0.18140785  0.54216075  1  0  -1.016414  0  1.643311  0  0  -1.048349  0  1.964822  0  0  -1.095329  0  1.961043  0  0  -0.692845  -1.007981  0  1.969667  0
O  O81  1  0.05132360  0.81859188  0.45784074  1  0  -1.016441  0  1.643324  0  0  -1.048376  0  1.96482  0  0  -1.095354  0  1.961038  0  0  -0.692863  -1.008017  0  1.969657  0
O  O82  1  0.12274880  0.44518429  0.10295939  1  0  -0.557654  0  1.935551  0  0  -0.512355  0  2.161544  0  0  -0.532835  0  2.154898  0  0  -0.29468  -0.497937  0  2.165638  0
O  O83  1  0.87724841  0.55481422  0.89704045  1  0  -0.557706  0  1.935602  0  0  -0.512418  0  2.161551  0  0  -0.532894  0  2.154869  0  0  -0.294715  -0.498005  0  2.165658  0
O  O84  1  0.56737870  0.16432063  0.07636717  1  0  -0.56361  0  1.91478  0  0  -0.525957  0  2.139901  0  0  -0.547453  0  2.135442  0  0  -0.308538  -0.5109  0  2.142369  0
O  O85  1  0.43262128  0.83568033  0.92363350  1  0  -0.563641  0  1.914802  0  0  -0.525988  0  2.139923  0  0  -0.547486  0  2.135473  0  0  -0.308547  -0.51093  0  2.142388  0
