# generated using pymatgen
data_ZnH32C26(N2O3)2
_symmetry_space_group_name_H-M   'P 1'
_cell_length_a   7.47470021
_cell_length_b   8.39594212
_cell_length_c   11.38752009
_cell_angle_alpha   87.30780028
_cell_angle_beta   79.03949972
_cell_angle_gamma   66.32459637
_symmetry_Int_Tables_number   1
_chemical_formula_structural   ZnH32C26(N2O3)2
_chemical_formula_sum   'Zn1 H32 C26 N4 O6'
_cell_volume   642.21782761
_cell_formula_units_Z   1
loop_
 _symmetry_equiv_pos_site_id
 _symmetry_equiv_pos_as_xyz
  1  'x, y, z'
loop_
 _atom_site_type_symbol
 _atom_site_label
 _atom_site_symmetry_multiplicity
 _atom_site_fract_x
 _atom_site_fract_y
 _atom_site_fract_z
 _atom_site_occupancy
 _atom_site_hle17_bader_spin_density
 _atom_site_hle17_ddec_charge
 _atom_site_hle17_ddec_spin_density
 _atom_site_hle17_ddec_sum_bond_order
 _atom_site_hle17_magmom
 _atom_site_hse06_10hf_bader_spin_density
 _atom_site_hse06_10hf_ddec_charge
 _atom_site_hse06_10hf_ddec_spin_density
 _atom_site_hse06_10hf_ddec_sum_bond_order
 _atom_site_hse06_10hf_magmom
 _atom_site_hse06_bader_spin_density
 _atom_site_hse06_ddec_charge
 _atom_site_hse06_ddec_spin_density
 _atom_site_hse06_ddec_sum_bond_order
 _atom_site_hse06_magmom
 _atom_site_pbe_bader_spin_density
 _atom_site_pbe_cm5_charge
 _atom_site_pbe_ddec_charge
 _atom_site_pbe_ddec_spin_density
 _atom_site_pbe_ddec_sum_bond_order
 _atom_site_pbe_magmom
Zn  Zn0  1  0.99999653  0.99999607  0.99999889  1  0  1.037735  0  1.820072  0  0  0.868996  0  2.255912  0  0  0.914802  0  2.20473  0  0  0.671537  0.83712  0  2.290819  0
H  H1  1  0.29988774  0.65161797  0.88744805  1  0  0.084577  0  0.943053  0  0  0.094573  0  1.005764  0  0  0.097055  0  1.00335  0  0  0.119794  0.09272  0  1.007563  0
H  H2  1  0.70012347  0.34837907  0.11255230  1  0  0.084644  0  0.943259  0  0  0.094699  0  1.005905  0  0  0.09718  0  1.003488  0  0  0.119861  0.092847  0  1.007705  0
H  H3  1  0.83735778  0.38387418  0.24588152  1  0  0.225673  0  0.960871  0  0  0.22042  0  1.024057  0  0  0.224194  0  1.022129  0  0  0.277264  0.217791  0  1.025319  0
H  H4  1  0.16262823  0.61614012  0.75412252  1  0  0.225659  0  0.960946  0  0  0.220408  0  1.02408  0  0  0.224179  0  1.022176  0  0  0.277238  0.217779  0  1.02534  0
H  H5  1  0.64512383  0.95287493  0.07982907  1  0  0.42194  0  0.825612  0  0  0.404877  0  0.880849  0  0  0.413088  0  0.871537  0  0  0.315453  0.39901  0  0.887589  0
H  H6  1  0.35486564  0.04712774  0.92016703  1  0  0.421928  0  0.825605  0  0  0.404881  0  0.880807  0  0  0.413089  0  0.871503  0  0  0.315497  0.399015  0  0.887546  0
H  H7  1  0.43012331  0.33718827  0.93990732  1  0  0.111074  0  0.944544  0  0  0.121286  0  1.00241  0  0  0.124712  0  1.000965  0  0  0.109045  0.118764  0  1.0037  0
H  H8  1  0.56987632  0.66280767  0.06010168  1  0  0.11101  0  0.944538  0  0  0.121243  0  1.002395  0  0  0.124669  0  1.00095  0  0  0.10901  0.118721  0  1.003688  0
H  H9  1  0.68253194  0.01848347  0.94533880  1  0  0.402605  0  0.920458  0  0  0.367124  0  0.993711  0  0  0.379702  0  0.975465  0  0  0.278304  0.358279  0  1.006514  0
H  H10  1  0.31746360  0.98150493  0.05465261  1  0  0.402562  0  0.920562  0  0  0.367128  0  0.993734  0  0  0.379693  0  0.975505  0  0  0.278362  0.358281  0  1.00654  0
H  H11  1  0.30343800  0.25638624  0.14495148  1  0  0.106679  0  0.966143  0  0  0.116112  0  1.029587  0  0  0.119264  0  1.027092  0  0  0.104915  0.113693  0  1.031601  0
H  H12  1  0.69655655  0.74360211  0.85505148  1  0  0.106711  0  0.96618  0  0  0.116156  0  1.029613  0  0  0.119312  0  1.027112  0  0  0.104927  0.113736  0  1.03163  0
H  H13  1  0.90776429  0.79609491  0.21064086  1  0  0.078799  0  0.955125  0  0  0.087711  0  1.021951  0  0  0.089976  0  1.019544  0  0  0.115805  0.085979  0  1.023845  0
H  H14  1  0.09222304  0.20390389  0.78936446  1  0  0.078911  0  0.955136  0  0  0.087805  0  1.021959  0  0  0.090068  0  1.019558  0  0  0.115799  0.086073  0  1.023851  0
H  H15  1  0.97350171  0.58959766  0.37983040  1  0  0.062392  0  0.928769  0  0  0.081497  0  0.991012  0  0  0.081177  0  0.991947  0  0  0.10274  0.081638  0  0.990428  0
H  H16  1  0.02649191  0.41041136  0.62016840  1  0  0.062374  0  0.928611  0  0  0.081484  0  0.990882  0  0  0.081177  0  0.991799  0  0  0.10272  0.081617  0  0.990318  0
H  H17  1  0.10224493  0.36227038  0.34893577  1  0  0.040674  0  0.947843  0  0  0.05618  0  1.017932  0  0  0.056713  0  1.017423  0  0  0.088565  0.055692  0  1.018455  0
H  H18  1  0.89773892  0.63774005  0.65107663  1  0  0.040671  0  0.947893  0  0  0.056171  0  1.018046  0  0  0.056655  0  1.017586  0  0  0.088577  0.055695  0  1.018554  0
H  H19  1  0.78619692  0.34731869  0.46759059  1  0  0.010067  0  0.932839  0  0  0.026847  0  0.995747  0  0  0.025519  0  0.998465  0  0  0.086851  0.027722  0  0.993984  0
H  H20  1  0.21380365  0.65268112  0.53241463  1  0  0.010102  0  0.93277  0  0  0.02688  0  0.995651  0  0  0.025557  0  0.998361  0  0  0.086888  0.027757  0  0.993888  0
H  H21  1  0.71644040  0.65363052  0.52306636  1  0  0.054421  0  0.973881  0  0  0.070816  0  1.042243  0  0  0.071377  0  1.042602  0  0  0.082386  0.070365  0  1.042035  0
H  H22  1  0.28355389  0.34636812  0.47694064  1  0  0.05443  0  0.97381  0  0  0.070806  0  1.042219  0  0  0.071355  0  1.042591  0  0  0.0824  0.070355  0  1.042011  0
H  H23  1  0.51081314  0.72832187  0.44938420  1  0  0.069104  0  0.948003  0  0  0.086923  0  1.011975  0  0  0.08746  0  1.012518  0  0  0.086198  0.086476  0  1.011644  0
H  H24  1  0.48918064  0.27167806  0.55062459  1  0  0.069004  0  0.947925  0  0  0.086883  0  1.01186  0  0  0.087433  0  1.012379  0  0  0.086205  0.08643  0  1.011538  0
H  H25  1  0.59726388  0.28948325  0.32895362  1  0  0.069915  0  0.943865  0  0  0.086956  0  1.006789  0  0  0.087951  0  1.006415  0  0  0.088439  0.086189  0  1.007165  0
H  H26  1  0.40273705  0.71051268  0.67105257  1  0  0.069848  0  0.94387  0  0  0.086901  0  1.006856  0  0  0.087897  0  1.00648  0  0  0.088395  0.086133  0  1.007233  0
H  H27  1  0.43797867  0.51348199  0.33557424  1  0  0.07055  0  0.923461  0  0  0.090034  0  0.981965  0  0  0.091039  0  0.982426  0  0  0.088694  0.08932  0  0.981646  0
H  H28  1  0.56201644  0.48651793  0.66443261  1  0  0.070462  0  0.923442  0  0  0.089979  0  0.981989  0  0  0.090986  0  0.982448  0  0  0.088674  0.089264  0  0.981668  0
H  H29  1  0.31239994  0.03494267  0.41166471  1  0  0.099338  0  0.944125  0  0  0.109839  0  1.003621  0  0  0.113669  0  1.000597  0  0  0.104524  0.107022  0  1.005963  0
H  H30  1  0.68764162  0.96505897  0.58831987  1  0  0.099322  0  0.944144  0  0  0.109806  0  1.003658  0  0  0.113634  0  1.000633  0  0  0.104513  0.107029  0  1.005959  0
H  H31  1  0.77947871  0.98609104  0.36651805  1  0  0.097663  0  0.94483  0  0  0.11036  0  1.000783  0  0  0.11387  0  0.998325  0  0  0.105728  0.107835  0  1.002626  0
H  H32  1  0.22056518  0.01390919  0.63347768  1  0  0.097657  0  0.944462  0  0  0.110329  0  1.000471  0  0  0.113843  0  0.998014  0  0  0.105691  0.107801  0  1.002314  0
C  C33  1  0.24154249  0.60864586  0.97216116  1  0  0.126768  0  3.69746  0  0  0.092458  0  3.951448  0  0  0.099195  0  3.970024  0  0  0.046088  0.088109  0  3.93892  0
C  C34  1  0.75844492  0.39135030  0.02785391  1  0  0.126814  0  3.697202  0  0  0.092476  0  3.951222  0  0  0.099221  0  3.969794  0  0  0.045976  0.088123  0  3.9387  0
C  C35  1  0.31501408  0.43508339  0.00309895  1  0  -0.112348  0  3.746086  0  0  -0.125038  0  4.002765  0  0  -0.131776  0  4.024453  0  0  -0.083532  -0.120781  0  3.9883  0
C  C36  1  0.68498858  0.56491125  0.99690090  1  0  -0.112364  0  3.746009  0  0  -0.12505  0  4.002708  0  0  -0.131792  0  4.024402  0  0  -0.083509  -0.120795  0  3.988248  0
C  C37  1  0.24387447  0.39082331  0.11674799  1  0  -0.054699  0  3.673565  0  0  -0.081561  0  3.916781  0  0  -0.079399  0  3.935935  0  0  -0.068599  -0.082743  0  3.903995  0
C  C38  1  0.75612240  0.60917531  0.88325340  1  0  -0.054718  0  3.673679  0  0  -0.081646  0  3.916911  0  0  -0.079485  0  3.936054  0  0  -0.06862  -0.082829  0  3.904129  0
C  C39  1  0.09556712  0.52107208  0.19444436  1  0  0.031886  0  3.743894  0  0  0.05907  0  3.981339  0  0  0.05411  0  4.00608  0  0  -0.001488  0.061968  0  3.964937  0
C  C40  1  0.90441925  0.47892286  0.80556388  1  0  0.03187  0  3.744067  0  0  0.059183  0  3.981383  0  0  0.054234  0  4.006094  0  0  -0.001454  0.062078  0  3.964984  0
C  C41  1  0.02552785  0.69052600  0.15396078  1  0  0.076318  0  3.693022  0  0  0.036622  0  3.941838  0  0  0.042909  0  3.959883  0  0  0.043903  0.032484  0  3.929869  0
C  C42  1  0.97447419  0.30947257  0.84603023  1  0  0.076189  0  3.692857  0  0  0.036517  0  3.941643  0  0  0.042808  0  3.959688  0  0  0.043929  0.032382  0  3.929669  0
C  C43  1  0.00027813  0.48491080  0.31548953  1  0  0.008602  0  3.732751  0  0  -0.054793  0  3.9985  0  0  -0.050115  0  4.010032  0  0  -0.068071  -0.057839  0  3.990494  0
C  C44  1  0.99972133  0.51510066  0.68451102  1  0  0.008826  0  3.732572  0  0  -0.054682  0  3.998362  0  0  -0.049973  0  4.009915  0  0  -0.068003  -0.057734  0  3.990348  0
C  C45  1  0.69270635  0.45588892  0.41743397  1  0  0.164356  0  3.650759  0  0  0.152468  0  3.894882  0  0  0.156035  0  3.911366  0  0  -0.00447  0.149986  0  3.883449  0
C  C46  1  0.30728313  0.54411494  0.58257965  1  0  0.164221  0  3.650814  0  0  0.152413  0  3.894917  0  0  0.155982  0  3.9114  0  0  -0.004612  0.149926  0  3.883483  0
C  C47  1  0.60033950  0.61920936  0.49926221  1  0  -0.154337  0  3.679356  0  0  -0.197812  0  3.931827  0  0  -0.199548  0  3.946599  0  0  -0.169554  -0.196396  0  3.921527  0
C  C48  1  0.39965517  0.38079445  0.50074104  1  0  -0.15407  0  3.678991  0  0  -0.197651  0  3.931417  0  0  -0.199375  0  3.946166  0  0  -0.169539  -0.196234  0  3.921122  0
C  C49  1  0.52937695  0.40771425  0.38733652  1  0  -0.154946  0  3.674383  0  0  -0.195735  0  3.929033  0  0  -0.197598  0  3.943174  0  0  -0.164875  -0.194318  0  3.919173  0
C  C50  1  0.47062312  0.59228685  0.61267048  1  0  -0.154572  0  3.674042  0  0  -0.195546  0  3.92887  0  0  -0.197403  0  3.943013  0  0  -0.164765  -0.194131  0  3.919013  0
C  C51  1  0.10753294  0.02219457  0.24201907  1  0  0.645611  0  3.897647  0  0  0.593379  0  4.196811  0  0  0.62734  0  4.189229  0  0  0.207277  0.570436  0  4.201142  0
C  C52  1  0.89247960  0.97780507  0.75797221  1  0  0.645903  0  3.897254  0  0  0.593685  0  4.196391  0  0  0.627646  0  4.188801  0  0  0.207337  0.570739  0  4.200724  0
C  C53  1  0.05233095  0.01082507  0.37535429  1  0  -0.056506  0  3.740166  0  0  -0.036296  0  3.977721  0  0  -0.041952  0  3.998959  0  0  -0.015789  -0.032659  0  3.963449  0
C  C54  1  0.94765709  0.98918027  0.62463313  1  0  -0.05668  0  3.740513  0  0  -0.036498  0  3.978102  0  0  -0.042151  0  3.999334  0  0  -0.015831  -0.032863  0  3.96384  0
C  C55  1  0.17553669  0.01989994  0.45118697  1  0  -0.082633  0  3.752563  0  0  -0.107632  0  4.010983  0  0  -0.107773  0  4.028922  0  0  -0.083809  -0.10747  0  3.998962  0
C  C56  1  0.82447684  0.98010356  0.54880227  1  0  -0.082446  0  3.753113  0  0  -0.107435  0  4.011591  0  0  -0.107573  0  4.029517  0  0  -0.083749  -0.10731  0  3.999566  0
C  C57  1  0.87631394  0.99082410  0.42546558  1  0  -0.073483  0  3.738187  0  0  -0.098266  0  3.994361  0  0  -0.098856  0  4.013733  0  0  -0.082218  -0.097818  0  3.981302  0
C  C58  1  0.12367696  0.00917472  0.57452256  1  0  -0.073405  0  3.737732  0  0  -0.098139  0  3.993882  0  0  -0.098735  0  4.013267  0  0  -0.082122  -0.097686  0  3.980799  0
N  N59  1  0.09870711  0.73486629  0.04651036  1  0  -0.329469  0  3.317525  0  0  -0.247402  0  3.579453  0  0  -0.266721  0  3.598722  0  0  -0.329904  -0.234432  0  3.56631  0
N  N60  1  0.90129712  0.26512185  0.95349304  1  0  -0.329518  0  3.316681  0  0  -0.24756  0  3.578749  0  0  -0.266894  0  3.59803  0  0  -0.329886  -0.234587  0  3.565605  0
N  N61  1  0.80973553  0.48187060  0.30557291  1  0  -0.45664  0  3.144676  0  0  -0.420117  0  3.416633  0  0  -0.434607  0  3.426793  0  0  -0.489798  -0.409293  0  3.408772  0
N  N62  1  0.19025379  0.51813592  0.69442834  1  0  -0.456733  0  3.145157  0  0  -0.420134  0  3.417049  0  0  -0.434643  0  3.427213  0  0  -0.48978  -0.409309  0  3.409189  0
O  O63  1  0.96511385  0.06724189  0.18364192  1  0  -0.657636  0  2.050775  0  0  -0.596124  0  2.315859  0  0  -0.622646  0  2.303275  0  0  -0.325783  -0.57757  0  2.323692  0
O  O64  1  0.03489574  0.93275522  0.81635162  1  0  -0.657758  0  2.050777  0  0  -0.596247  0  2.315864  0  0  -0.622762  0  2.303269  0  0  -0.325805  -0.577692  0  2.323693  0
O  O65  1  0.28897389  0.98639673  0.19654040  1  0  -0.630948  0  1.941865  0  0  -0.578777  0  2.160957  0  0  -0.602408  0  2.148774  0  0  -0.327489  -0.562275  0  2.168827  0
O  O66  1  0.71104020  0.01360165  0.80343930  1  0  -0.631111  0  1.941576  0  0  -0.578927  0  2.160695  0  0  -0.602575  0  2.148523  0  0  -0.327537  -0.562425  0  2.168562  0
O  O67  1  0.68446904  0.03744135  0.03303553  1  0  -0.814436  0  1.881165  0  0  -0.760656  0  2.082443  0  0  -0.780509  0  2.05287  0  0  -0.5724  -0.746593  0  2.102938  0
O  O68  1  0.31552905  0.96255346  0.96695177  1  0  -0.814412  0  1.881162  0  0  -0.76066  0  2.082397  0  0  -0.780504  0  2.052844  0  0  -0.572516  -0.746596  0  2.10289  0
