# generated using pymatgen
data_ZnH9C11N5Cl2
_symmetry_space_group_name_H-M   'P 1'
_cell_length_a   9.05676243
_cell_length_b   9.94095761
_cell_length_c   15.18293562
_cell_angle_alpha   89.99990862
_cell_angle_beta   99.17670657
_cell_angle_gamma   90.00007260
_symmetry_Int_Tables_number   1
_chemical_formula_structural   ZnH9C11N5Cl2
_chemical_formula_sum   'Zn4 H36 C44 N20 Cl8'
_cell_volume   1349.46807761
_cell_formula_units_Z   4
loop_
 _symmetry_equiv_pos_site_id
 _symmetry_equiv_pos_as_xyz
  1  'x, y, z'
loop_
 _atom_site_type_symbol
 _atom_site_label
 _atom_site_symmetry_multiplicity
 _atom_site_fract_x
 _atom_site_fract_y
 _atom_site_fract_z
 _atom_site_occupancy
 _atom_site_hle17_bader_spin_density
 _atom_site_hle17_ddec_charge
 _atom_site_hle17_ddec_spin_density
 _atom_site_hle17_ddec_sum_bond_order
 _atom_site_hle17_magmom
 _atom_site_hse06_10hf_bader_spin_density
 _atom_site_hse06_10hf_ddec_charge
 _atom_site_hse06_10hf_ddec_spin_density
 _atom_site_hse06_10hf_ddec_sum_bond_order
 _atom_site_hse06_10hf_magmom
 _atom_site_hse06_bader_spin_density
 _atom_site_hse06_ddec_charge
 _atom_site_hse06_ddec_spin_density
 _atom_site_hse06_ddec_sum_bond_order
 _atom_site_hse06_magmom
 _atom_site_pbe_bader_spin_density
 _atom_site_pbe_cm5_charge
 _atom_site_pbe_ddec_charge
 _atom_site_pbe_ddec_spin_density
 _atom_site_pbe_ddec_sum_bond_order
 _atom_site_pbe_magmom
Zn  Zn0  1  0.12124359  0.52724685  0.17202700  1  0  0.855303  0  2.146141  0  0  0.685303  0  2.635128  0  0  0.72258  0  2.590836  0  0  0.565561  0.659622  0  2.665167  0
Zn  Zn1  1  0.37875698  0.02724669  0.32797335  1  0  0.855339  0  2.1461  0  0  0.68532  0  2.635113  0  0  0.722597  0  2.590819  0  0  0.565568  0.65964  0  2.665149  0
Zn  Zn2  1  0.87875749  0.47275275  0.82797310  1  0  0.855326  0  2.146078  0  0  0.685298  0  2.635098  0  0  0.722574  0  2.590803  0  0  0.565564  0.659618  0  2.665135  0
Zn  Zn3  1  0.62124298  0.97275291  0.67202663  1  0  0.855332  0  2.14609  0  0  0.685313  0  2.635104  0  0  0.722577  0  2.590805  0  0  0.565568  0.659632  0  2.66514  0
H  H4  1  0.06945424  0.39143473  0.35572802  1  0  0.100236  0  0.945333  0  0  0.104407  0  1.016684  0  0  0.107925  0  1.011922  0  0  0.133865  0.102008  0  1.019775  0
H  H5  1  0.43054563  0.89143532  0.14427255  1  0  0.100246  0  0.945356  0  0  0.104423  0  1.016703  0  0  0.107941  0  1.011941  0  0  0.133862  0.102023  0  1.019795  0
H  H6  1  0.93054684  0.60856587  0.64427274  1  0  0.100254  0  0.945299  0  0  0.104456  0  1.016614  0  0  0.107974  0  1.011852  0  0  0.133908  0.102057  0  1.019704  0
H  H7  1  0.56945433  0.10856629  0.85572810  1  0  0.100252  0  0.945286  0  0  0.104427  0  1.016633  0  0  0.107946  0  1.011871  0  0  0.133867  0.102026  0  1.019727  0
H  H8  1  0.39107323  0.68075318  0.30917323  1  0  0.108267  0  0.976737  0  0  0.115221  0  1.041061  0  0  0.118082  0  1.039683  0  0  0.105854  0.113125  0  1.042084  0
H  H9  1  0.10892640  0.18075203  0.19082621  1  0  0.10826  0  0.97679  0  0  0.115215  0  1.041107  0  0  0.118076  0  1.039729  0  0  0.105849  0.11312  0  1.042128  0
H  H10  1  0.60892673  0.31924743  0.69082741  1  0  0.108332  0  0.976683  0  0  0.115278  0  1.041017  0  0  0.118139  0  1.039637  0  0  0.105877  0.11317  0  1.042054  0
H  H11  1  0.89107356  0.81924857  0.80917312  1  0  0.108297  0  0.976726  0  0  0.11525  0  1.041047  0  0  0.118111  0  1.039669  0  0  0.105874  0.113156  0  1.042067  0
H  H12  1  0.41765586  0.63967444  0.48990177  1  0  0.123389  0  0.984308  0  0  0.130051  0  1.051424  0  0  0.133123  0  1.049644  0  0  0.112149  0.12785  0  1.052723  0
H  H13  1  0.08234372  0.13967471  0.01009771  1  0  0.123382  0  0.984314  0  0  0.13005  0  1.051419  0  0  0.133123  0  1.049638  0  0  0.112147  0.127849  0  1.052718  0
H  H14  1  0.58234523  0.36032717  0.51010030  1  0  0.123394  0  0.984347  0  0  0.13007  0  1.051423  0  0  0.133142  0  1.049644  0  0  0.112157  0.12787  0  1.052722  0
H  H15  1  0.91765735  0.86032590  0.98990107  1  0  0.123395  0  0.984299  0  0  0.130058  0  1.051415  0  0  0.133128  0  1.049639  0  0  0.112149  0.127858  0  1.052713  0
H  H16  1  0.91459064  0.15754886  0.71881042  1  0  0.097568  0  0.980253  0  0  0.102523  0  1.052792  0  0  0.105431  0  1.049403  0  0  0.122472  0.100362  0  1.055205  0
H  H17  1  0.58540836  0.65754872  0.78118885  1  0  0.0976  0  0.980238  0  0  0.102542  0  1.052788  0  0  0.105451  0  1.049398  0  0  0.122457  0.100368  0  1.055215  0
H  H18  1  0.08540709  0.84245074  0.28118870  1  0  0.097565  0  0.980249  0  0  0.10251  0  1.052799  0  0  0.105418  0  1.049409  0  0  0.122451  0.100338  0  1.055225  0
H  H19  1  0.41459049  0.34245088  0.21880972  1  0  0.097602  0  0.980222  0  0  0.102536  0  1.052777  0  0  0.105452  0  1.049378  0  0  0.122479  0.100363  0  1.055204  0
H  H20  1  0.93067106  0.17429106  0.44088230  1  0  0.12631  0  0.937553  0  0  0.137265  0  0.993158  0  0  0.140512  0  0.99093  0  0  0.128971  0.134913  0  0.99493  0
H  H21  1  0.56933024  0.67429043  0.05911729  1  0  0.126321  0  0.937624  0  0  0.137274  0  0.993224  0  0  0.140521  0  0.990996  0  0  0.128981  0.134922  0  0.994995  0
H  H22  1  0.06933002  0.82570955  0.55911714  1  0  0.126357  0  0.937592  0  0  0.137313  0  0.993187  0  0  0.140561  0  0.990959  0  0  0.12899  0.134961  0  0.994959  0
H  H23  1  0.43067083  0.32570917  0.94088149  1  0  0.126351  0  0.937536  0  0  0.137307  0  0.993135  0  0  0.140555  0  0.990906  0  0  0.128987  0.134955  0  0.994907  0
H  H24  1  0.70521578  0.99781014  0.47153748  1  0  0.110393  0  0.995551  0  0  0.115092  0  1.064071  0  0  0.118296  0  1.062018  0  0  0.102349  0.112744  0  1.065617  0
H  H25  1  0.79478477  0.49781061  0.02846170  1  0  0.110406  0  0.99554  0  0  0.115094  0  1.064065  0  0  0.118297  0  1.062015  0  0  0.102368  0.112749  0  1.065614  0
H  H26  1  0.29478529  0.00218845  0.52846064  1  0  0.110367  0  0.995574  0  0  0.11505  0  1.064116  0  0  0.118254  0  1.062064  0  0  0.102341  0.112705  0  1.065665  0
H  H27  1  0.20521519  0.50218999  0.97153697  1  0  0.110373  0  0.995532  0  0  0.115072  0  1.064054  0  0  0.118277  0  1.061999  0  0  0.102349  0.112726  0  1.0656  0
H  H28  1  0.11268350  0.28378570  0.74285579  1  0  0.117021  0  0.971646  0  0  0.125345  0  1.036043  0  0  0.128803  0  1.034732  0  0  0.102005  0.12277  0  1.037325  0
H  H29  1  0.38731731  0.78378597  0.75714485  1  0  0.117007  0  0.971688  0  0  0.125341  0  1.036063  0  0  0.128799  0  1.034751  0  0  0.102007  0.122767  0  1.037345  0
H  H30  1  0.88731535  0.71621390  0.25714475  1  0  0.117001  0  0.971672  0  0  0.125319  0  1.036074  0  0  0.128777  0  1.034762  0  0  0.101999  0.122744  0  1.037356  0
H  H31  1  0.61268377  0.21621565  0.24285590  1  0  0.117021  0  0.971617  0  0  0.125337  0  1.036019  0  0  0.128795  0  1.034709  0  0  0.102003  0.122764  0  1.0373  0
H  H32  1  0.29944890  0.46838471  0.75381126  1  0  0.096248  0  0.931947  0  0  0.109474  0  0.98449  0  0  0.112004  0  0.982509  0  0  0.10523  0.107495  0  0.986136  0
H  H33  1  0.20055100  0.96838479  0.74618910  1  0  0.096242  0  0.931944  0  0  0.109465  0  0.984487  0  0  0.111994  0  0.982509  0  0  0.105229  0.107488  0  0.986131  0
H  H34  1  0.70054995  0.53161489  0.24618994  1  0  0.096277  0  0.931988  0  0  0.109514  0  0.984514  0  0  0.112034  0  0.982544  0  0  0.105251  0.107535  0  0.986158  0
H  H35  1  0.79944896  0.03161582  0.25381154  1  0  0.096273  0  0.93201  0  0  0.109509  0  0.984531  0  0  0.112027  0  0.982565  0  0  0.105251  0.107532  0  0.986172  0
H  H36  1  0.36258436  0.57431134  0.61494149  1  0  0.119042  0  0.992382  0  0  0.125596  0  1.059829  0  0  0.129164  0  1.05874  0  0  0.096729  0.123118  0  1.060574  0
H  H37  1  0.13741621  0.07431076  0.88505934  1  0  0.11902  0  0.992374  0  0  0.125577  0  1.059814  0  0  0.129145  0  1.058722  0  0  0.096729  0.123095  0  1.06057  0
H  H38  1  0.63741561  0.42568826  0.38505982  1  0  0.119011  0  0.992375  0  0  0.125565  0  1.059822  0  0  0.129134  0  1.058728  0  0  0.096721  0.123083  0  1.060579  0
H  H39  1  0.86258487  0.92568985  0.11494141  1  0  0.119018  0  0.992371  0  0  0.125564  0  1.059829  0  0  0.129131  0  1.058741  0  0  0.096731  0.123085  0  1.060578  0
C  C40  1  0.16021729  0.46327795  0.36610816  1  0  0.199497  0  3.642956  0  0  0.1323  0  3.916607  0  0  0.147971  0  3.926741  0  0  0.148514  0.122274  0  3.909345  0
C  C41  1  0.33978379  0.96327846  0.13389244  1  0  0.199435  0  3.64295  0  0  0.132224  0  3.916613  0  0  0.147894  0  3.926747  0  0  0.148476  0.122198  0  3.90935  0
C  C42  1  0.83978268  0.53672165  0.63389315  1  0  0.19948  0  3.642945  0  0  0.132237  0  3.916596  0  0  0.147906  0  3.926734  0  0  0.148475  0.122212  0  3.909335  0
C  C43  1  0.66021842  0.03672215  0.86610841  1  0  0.199472  0  3.64284  0  0  0.132273  0  3.9165  0  0  0.147942  0  3.926636  0  0  0.148496  0.122248  0  3.909238  0
C  C44  1  0.32799024  0.61301113  0.34513815  1  0  0.006505  0  3.723262  0  0  -0.025536  0  3.986822  0  0  -0.024904  0  4.007484  0  0  -0.004379  -0.025783  0  3.972677  0
C  C45  1  0.17200931  0.11301015  0.15486202  1  0  0.006523  0  3.723332  0  0  -0.025513  0  3.986883  0  0  -0.02488  0  4.007543  0  0  -0.004372  -0.025761  0  3.972738  0
C  C46  1  0.67200749  0.38698947  0.65486427  1  0  0.006505  0  3.723049  0  0  -0.025548  0  3.986595  0  0  -0.024914  0  4.007255  0  0  -0.004379  -0.025784  0  3.972459  0
C  C47  1  0.82799066  0.88698844  0.84513797  1  0  0.006515  0  3.723214  0  0  -0.025519  0  3.986772  0  0  -0.024886  0  4.007433  0  0  -0.004384  -0.025768  0  3.972628  0
C  C48  1  0.34335121  0.59312663  0.43530493  1  0  -0.037676  0  3.62204  0  0  -0.080228  0  3.884389  0  0  -0.078513  0  3.903137  0  0  0.003653  -0.081421  0  3.871672  0
C  C49  1  0.15664832  0.09312585  0.06469525  1  0  -0.037655  0  3.622056  0  0  -0.080214  0  3.884406  0  0  -0.078498  0  3.903153  0  0  0.003657  -0.081407  0  3.871688  0
C  C50  1  0.65664651  0.40687397  0.56469419  1  0  -0.037731  0  3.621954  0  0  -0.080294  0  3.884319  0  0  -0.078578  0  3.903063  0  0  0.00362  -0.081486  0  3.871599  0
C  C51  1  0.84335276  0.90687476  0.93530550  1  0  -0.037687  0  3.622066  0  0  -0.080253  0  3.884424  0  0  -0.078537  0  3.90317  0  0  0.003624  -0.081444  0  3.871705  0
C  C52  1  0.89027874  0.13391841  0.64797479  1  0  0.173452  0  3.621616  0  0  0.114836  0  3.882129  0  0  0.128933  0  3.894465  0  0  0.144408  0.105934  0  3.873303  0
C  C53  1  0.60971910  0.63391913  0.85202439  1  0  0.17325  0  3.62156  0  0  0.114675  0  3.882054  0  0  0.128767  0  3.894393  0  0  0.144363  0.105784  0  3.873237  0
C  C54  1  0.10972010  0.86607918  0.35202377  1  0  0.173389  0  3.621588  0  0  0.114786  0  3.882078  0  0  0.128881  0  3.894417  0  0  0.144395  0.105894  0  3.873259  0
C  C55  1  0.39027862  0.36607947  0.14797473  1  0  0.173382  0  3.621533  0  0  0.114807  0  3.88203  0  0  0.128898  0  3.894362  0  0  0.144385  0.105914  0  3.873213  0
C  C56  1  0.89258365  0.14293885  0.50163018  1  0  -0.037092  0  3.648697  0  0  -0.08156  0  3.912304  0  0  -0.07968  0  3.93051  0  0  0.006543  -0.08295  0  3.900359  0
C  C57  1  0.60741309  0.64294021  0.99837020  1  0  -0.037139  0  3.648672  0  0  -0.081598  0  3.912273  0  0  -0.079719  0  3.930476  0  0  0.00653  -0.082987  0  3.900329  0
C  C58  1  0.10741519  0.85705974  0.49836970  1  0  -0.037214  0  3.648731  0  0  -0.081685  0  3.91234  0  0  -0.079805  0  3.930543  0  0  0.006493  -0.083074  0  3.900396  0
C  C59  1  0.39258240  0.35706140  0.00162936  1  0  -0.037206  0  3.648801  0  0  -0.081669  0  3.91241  0  0  -0.079793  0  3.930618  0  0  0.006496  -0.083059  0  3.900465  0
C  C60  1  0.78287894  0.05647828  0.51836346  1  0  0.012665  0  3.716071  0  0  -0.020443  0  3.980392  0  0  -0.019335  0  3.999912  0  0  0.002114  -0.021003  0  3.967079  0
C  C61  1  0.71712217  0.55647478  0.98163611  1  0  0.012654  0  3.715947  0  0  -0.02044  0  3.98028  0  0  -0.019329  0  3.999794  0  0  0.002139  -0.021006  0  3.966972  0
C  C62  1  0.21712214  0.94352433  0.48163532  1  0  0.012776  0  3.715991  0  0  -0.020324  0  3.9803  0  0  -0.019214  0  3.999817  0  0  0.002183  -0.020891  0  3.966993  0
C  C63  1  0.28287890  0.44352079  0.01836201  1  0  0.012734  0  3.716007  0  0  -0.020364  0  3.980328  0  0  -0.019258  0  3.999855  0  0  0.002133  -0.020925  0  3.967016  0
C  C64  1  0.07426593  0.29133845  0.59737762  1  0  0.36124  0  3.778124  0  0  0.334596  0  4.044746  0  0  0.349247  0  4.060389  0  0  0.227239  0.324918  0  4.034112  0
C  C65  1  0.42573488  0.79133840  0.90262235  1  0  0.361215  0  3.778229  0  0  0.334551  0  4.044869  0  0  0.3492  0  4.060514  0  0  0.227249  0.324873  0  4.034236  0
C  C66  1  0.92573515  0.70866115  0.40262248  1  0  0.361252  0  3.778004  0  0  0.33458  0  4.04467  0  0  0.349231  0  4.060314  0  0  0.227266  0.324902  0  4.034036  0
C  C67  1  0.57426620  0.20866120  0.09737774  1  0  0.361246  0  3.777939  0  0  0.33459  0  4.044627  0  0  0.34924  0  4.060271  0  0  0.227232  0.324911  0  4.033994  0
C  C68  1  0.14198657  0.32953390  0.68278833  1  0  -0.200053  0  3.709939  0  0  -0.22116  0  3.964965  0  0  -0.231087  0  3.985898  0  0  -0.091153  -0.215041  0  3.95136  0
C  C69  1  0.35801429  0.82953398  0.81721160  1  0  -0.200035  0  3.709979  0  0  -0.221126  0  3.964965  0  0  -0.231055  0  3.985903  0  0  -0.091126  -0.215007  0  3.951361  0
C  C70  1  0.85801227  0.67046469  0.31721155  1  0  -0.199999  0  3.70985  0  0  -0.221078  0  3.964865  0  0  -0.231003  0  3.985796  0  0  -0.091149  -0.214958  0  3.951258  0
C  C71  1  0.64198679  0.17046662  0.18278849  1  0  -0.200024  0  3.709857  0  0  -0.221099  0  3.964873  0  0  -0.231023  0  3.985797  0  0  -0.091124  -0.21498  0  3.951267  0
C  C72  1  0.24676279  0.43288315  0.68851051  1  0  0.038944  0  3.737263  0  0  0.022652  0  3.985057  0  0  0.028167  0  4.00273  0  0  -0.06455  0.019158  0  3.973266  0
C  C73  1  0.25323707  0.93288313  0.81148922  1  0  0.038963  0  3.737174  0  0  0.022674  0  3.984953  0  0  0.028191  0  4.002625  0  0  -0.06455  0.019181  0  3.973161  0
C  C74  1  0.75323717  0.56711645  0.31148948  1  0  0.038881  0  3.737251  0  0  0.022576  0  3.985044  0  0  0.028098  0  4.002718  0  0  -0.064569  0.019085  0  3.973248  0
C  C75  1  0.74676401  0.06711748  0.18851087  1  0  0.038855  0  3.737351  0  0  0.02256  0  3.985119  0  0  0.028085  0  4.002794  0  0  -0.064599  0.019066  0  3.973326  0
C  C76  1  0.28180450  0.49257872  0.61140337  1  0  -0.207228  0  3.692949  0  0  -0.22749  0  3.942426  0  0  -0.237494  0  3.96341  0  0  -0.090668  -0.221199  0  3.928579  0
C  C77  1  0.21819878  0.99258048  0.88859597  1  0  -0.207185  0  3.692884  0  0  -0.227443  0  3.942384  0  0  -0.237444  0  3.963366  0  0  -0.090694  -0.221152  0  3.928533  0
C  C78  1  0.71819881  0.50741987  0.38859562  1  0  -0.207172  0  3.69288  0  0  -0.227431  0  3.942361  0  0  -0.237433  0  3.963341  0  0  -0.090663  -0.221139  0  3.928509  0
C  C79  1  0.78180230  0.00742012  0.11140413  1  0  -0.207154  0  3.692933  0  0  -0.227411  0  3.942413  0  0  -0.237414  0  3.963392  0  0  -0.090656  -0.22112  0  3.928562  0
C  C80  1  0.20801889  0.44345675  0.53004101  1  0  0.367861  0  3.778331  0  0  0.343413  0  4.04041  0  0  0.358256  0  4.055759  0  0  0.229842  0.333606  0  4.030135  0
C  C81  1  0.29198210  0.94345639  0.96995882  1  0  0.367677  0  3.778409  0  0  0.34319  0  4.04055  0  0  0.358033  0  4.055903  0  0  0.22979  0.333383  0  4.030269  0
C  C82  1  0.79198108  0.55654285  0.46995964  1  0  0.367864  0  3.778245  0  0  0.343424  0  4.040324  0  0  0.358267  0  4.055673  0  0  0.229857  0.333615  0  4.030048  0
C  C83  1  0.70802010  0.05654321  0.03004072  1  0  0.367813  0  3.778326  0  0  0.343399  0  4.040406  0  0  0.358242  0  4.055756  0  0  0.229845  0.33359  0  4.03013  0
N  N84  1  0.23588380  0.49795363  0.44790436  1  0  -0.118146  0  3.5658  0  0  -0.030093  0  3.780546  0  0  -0.046446  0  3.804064  0  0  -0.218566  -0.019305  0  3.764522  0
N  N85  1  0.26411619  0.99795425  0.05209544  1  0  -0.118133  0  3.565793  0  0  -0.030053  0  3.780532  0  0  -0.046406  0  3.804052  0  0  -0.21855  -0.019265  0  3.764506  0
N  N86  1  0.76411617  0.50204698  0.55209694  1  0  -0.118173  0  3.565765  0  0  -0.030115  0  3.780527  0  0  -0.046468  0  3.804045  0  0  -0.218567  -0.019327  0  3.764504  0
N  N87  1  0.73588601  0.00204736  0.94790476  1  0  -0.118199  0  3.565766  0  0  -0.030127  0  3.780489  0  0  -0.04648  0  3.804008  0  0  -0.218525  -0.019339  0  3.764464  0
N  N88  1  0.21307527  0.53219396  0.30307814  1  0  -0.378329  0  3.334342  0  0  -0.295033  0  3.626553  0  0  -0.315156  0  3.641889  0  0  -0.360713  -0.281584  0  3.615918  0
N  N89  1  0.28692419  0.03219401  0.19692144  1  0  -0.37834  0  3.334385  0  0  -0.295052  0  3.626603  0  0  -0.315174  0  3.641939  0  0  -0.360726  -0.281603  0  3.615967  0
N  N90  1  0.78692581  0.46780564  0.69692261  1  0  -0.378377  0  3.334408  0  0  -0.29502  0  3.626562  0  0  -0.315147  0  3.641904  0  0  -0.360731  -0.281571  0  3.615923  0
N  N91  1  0.71307577  0.96780660  0.80307854  1  0  -0.378345  0  3.334344  0  0  -0.295053  0  3.626553  0  0  -0.315172  0  3.641885  0  0  -0.360729  -0.281605  0  3.615921  0
N  N92  1  0.78284519  0.05186091  0.60961287  1  0  -0.358741  0  3.313795  0  0  -0.276735  0  3.603342  0  0  -0.295688  0  3.616902  0  0  -0.35509  -0.263777  0  3.593445  0
N  N93  1  0.71715480  0.55185965  0.89038660  1  0  -0.358644  0  3.313735  0  0  -0.276671  0  3.603298  0  0  -0.295625  0  3.616865  0  0  -0.355094  -0.263712  0  3.593399  0
N  N94  1  0.21715589  0.94813970  0.39038591  1  0  -0.358713  0  3.313776  0  0  -0.276692  0  3.603302  0  0  -0.295649  0  3.616872  0  0  -0.355069  -0.263733  0  3.593404  0
N  N95  1  0.28284292  0.44813995  0.10961186  1  0  -0.358701  0  3.31364  0  0  -0.276728  0  3.603211  0  0  -0.295684  0  3.616778  0  0  -0.355086  -0.263768  0  3.593312  0
N  N96  1  0.96045886  0.19135565  0.58414492  1  0  -0.115558  0  3.56656  0  0  -0.026675  0  3.780521  0  0  -0.043001  0  3.805307  0  0  -0.216868  -0.015793  0  3.763588  0
N  N97  1  0.53954018  0.69135814  0.91585562  1  0  -0.115434  0  3.566523  0  0  -0.026565  0  3.780468  0  0  -0.042888  0  3.805252  0  0  -0.216843  -0.015685  0  3.763534  0
N  N98  1  0.03954110  0.80864294  0.41585506  1  0  -0.115556  0  3.566585  0  0  -0.026675  0  3.780556  0  0  -0.043  0  3.805343  0  0  -0.216883  -0.015793  0  3.763621  0
N  N99  1  0.46045867  0.30864347  0.08414360  1  0  -0.115563  0  3.566559  0  0  -0.026675  0  3.780513  0  0  -0.043003  0  3.805302  0  0  -0.21685  -0.015793  0  3.763579  0
N  N100  1  0.10605609  0.34572065  0.52251016  1  0  -0.430588  0  3.052485  0  0  -0.404002  0  3.326312  0  0  -0.418235  0  3.337557  0  0  -0.313436  -0.394548  0  3.318664  0
N  N101  1  0.39394479  0.84572038  0.97748976  1  0  -0.430387  0  3.052385  0  0  -0.403777  0  3.326204  0  0  -0.418008  0  3.337451  0  0  -0.313341  -0.394323  0  3.318555  0
N  N102  1  0.89394499  0.65427895  0.47748993  1  0  -0.430555  0  3.052387  0  0  -0.403983  0  3.326243  0  0  -0.418216  0  3.337491  0  0  -0.313447  -0.394535  0  3.318612  0
N  N103  1  0.60605629  0.15427922  0.02250968  1  0  -0.430466  0  3.052317  0  0  -0.403959  0  3.326222  0  0  -0.418192  0  3.337469  0  0  -0.31342  -0.394508  0  3.318581  0
Cl  Cl104  1  0.06138234  0.73869129  0.12605837  1  0  -0.560426  0  0.961521  0  0  -0.502499  0  1.235638  0  0  -0.516137  0  1.213126  0  0  -0.306934  -0.492539  0  1.250598  0
Cl  Cl105  1  0.43861736  0.23869209  0.37394102  1  0  -0.560423  0  0.961503  0  0  -0.502504  0  1.235624  0  0  -0.516146  0  1.213113  0  0  -0.306939  -0.492543  0  1.250582  0
Cl  Cl106  1  0.93861762  0.26130831  0.87394030  1  0  -0.56042  0  0.96153  0  0  -0.502503  0  1.235655  0  0  -0.516141  0  1.213141  0  0  -0.306933  -0.492544  0  1.250617  0
Cl  Cl107  1  0.56138484  0.76130851  0.62605918  1  0  -0.560426  0  0.961533  0  0  -0.502504  0  1.235667  0  0  -0.516135  0  1.213141  0  0  -0.306938  -0.49254  0  1.250617  0
Cl  Cl108  1  0.92765689  0.38382151  0.16514220  1  0  -0.570138  0  0.948364  0  0  -0.506641  0  1.211861  0  0  -0.522838  0  1.192169  0  0  -0.31516  -0.494974  0  1.225079  0
Cl  Cl109  1  0.57234242  0.88382121  0.33485896  1  0  -0.570136  0  0.948375  0  0  -0.506632  0  1.211868  0  0  -0.522828  0  1.192175  0  0  -0.315154  -0.494965  0  1.225087  0
Cl  Cl110  1  0.07234308  0.61617910  0.83485779  1  0  -0.570135  0  0.94835  0  0  -0.506637  0  1.211849  0  0  -0.522833  0  1.192157  0  0  -0.31515  -0.494969  0  1.225067  0
Cl  Cl111  1  0.42765754  0.11617939  0.66514103  1  0  -0.570142  0  0.948365  0  0  -0.506636  0  1.211861  0  0  -0.522829  0  1.192167  0  0  -0.315158  -0.494967  0  1.225078  0
