# generated using pymatgen
data_NiH16C24(N3O7)2
_symmetry_space_group_name_H-M   'P 1'
_cell_length_a   11.26252954
_cell_length_b   11.26251115
_cell_length_c   30.97134099
_cell_angle_alpha   90.00004769
_cell_angle_beta   90.00000555
_cell_angle_gamma   119.61080705
_symmetry_Int_Tables_number   1
_chemical_formula_structural   NiH16C24(N3O7)2
_chemical_formula_sum   'Ni4 H64 C96 N24 O56'
_cell_volume   3415.47959749
_cell_formula_units_Z   4
loop_
 _symmetry_equiv_pos_site_id
 _symmetry_equiv_pos_as_xyz
  1  'x, y, z'
loop_
 _atom_site_type_symbol
 _atom_site_label
 _atom_site_symmetry_multiplicity
 _atom_site_fract_x
 _atom_site_fract_y
 _atom_site_fract_z
 _atom_site_occupancy
 _atom_site_pbe_bader_charge
 _atom_site_pbe_bader_spin_density
 _atom_site_pbe_cm5_charge
 _atom_site_pbe_ddec_charge
 _atom_site_pbe_ddec_spin_density
 _atom_site_pbe_ddec_sum_bond_order
 _atom_site_pbe_magmom
Ni  Ni0  1  0.68600854  0.23975293  0.57357289  1  1.181349  1.581966  0.625296  0.790498  1.788108  2.357129  1.57
Ni  Ni1  1  0.73975229  0.18600454  0.07357322  1  1.181375  1.581965  0.625293  0.790466  1.7881  2.357186  1.57
Ni  Ni2  1  0.23975093  0.68600708  0.42642627  1  1.181398  1.581965  0.625309  0.790515  1.788101  2.357075  1.57
Ni  Ni3  1  0.18600410  0.73975309  0.92642723  1  1.181319  1.581962  0.625303  0.790506  1.788099  2.357083  1.57
H  H4  1  0.43960011  0.11491742  0.59368469  1  0.646854  -0.000226  0.278867  0.359033  -0.000143  1.000842  0.0
H  H5  1  0.42946640  0.06788000  0.54265880  1  0.660139  0.000339  0.285166  0.382729  0.000462  0.953408  0.001
H  H6  1  0.92479181  0.44276313  0.59413484  1  0.606544  -0.000344  0.309384  0.384902  -0.000386  0.915186  0.0
H  H7  1  0.93742616  0.37465034  0.54987617  1  0.639725  -4e-05  0.286229  0.36838  1.2e-05  0.979398  0.0
H  H8  1  0.36520141  0.10000963  0.72676513  1  0.164221  5.8e-05  0.122091  0.135388  4e-06  1.016666  0.0
H  H9  1  0.79721166  0.27607236  0.70566502  1  0.167458  0.000287  0.128524  0.147468  0.000209  0.979605  0.0
H  H10  1  0.70734724  0.46610390  0.92861212  1  0.1584  0.000724  0.125752  0.137887  0.000493  0.991132  0.0
H  H11  1  0.72677553  0.09397524  0.93621393  1  0.162955  0.000359  0.128045  0.14756  0.00025  0.969496  0.0
H  H12  1  0.53139537  0.35578286  0.61708410  1  0.105319  0.00197  0.126931  0.101589  0.000693  0.989702  0.001
H  H13  1  0.52989524  0.57363532  0.62237354  1  0.092686  0.000878  0.117996  0.132315  0.000414  0.986865  0.0
H  H14  1  0.84568707  0.73427895  0.52425157  1  0.079296  0.001101  0.101452  0.100129  0.000515  1.038388  0.0
H  H15  1  0.83542662  0.50956092  0.52394189  1  0.082821  0.00205  0.116089  0.083534  0.000696  1.013501  0.001
H  H16  1  0.90475484  0.93293614  0.55698121  1  0.095532  0.000987  0.110186  0.118428  0.000469  1.001479  0.0
H  H17  1  0.89528718  0.14808950  0.55769110  1  0.133014  0.001729  0.125836  0.10703  0.000604  0.985551  0.001
H  H18  1  0.49423392  0.94887888  0.60015531  1  0.133942  0.001721  0.115501  0.081169  0.0005  1.037908  0.001
H  H19  1  0.48233723  0.72363023  0.59807271  1  0.107661  0.000851  0.109756  0.118247  0.000389  1.025623  0.0
H  H20  1  0.61491461  0.93959517  0.09368290  1  0.646964  -0.000226  0.278912  0.359111  -0.000143  1.000733  0.0
H  H21  1  0.56788228  0.92946403  0.04265701  1  0.66014  0.000339  0.285174  0.382753  0.000462  0.953379  0.001
H  H22  1  0.94276479  0.42479184  0.09413550  1  0.606523  -0.000344  0.309355  0.38483  -0.000386  0.915241  0.0
H  H23  1  0.87464958  0.43742527  0.04987749  1  0.639801  -4e-05  0.286171  0.368256  1.2e-05  0.979538  0.0
H  H24  1  0.60000187  0.86519276  0.22676527  1  0.164108  5.8e-05  0.122076  0.135353  4e-06  1.016703  0.0
H  H25  1  0.77607032  0.29720523  0.20566245  1  0.167454  0.000287  0.12854  0.147512  0.000209  0.979608  0.0
H  H26  1  0.96610716  0.20734388  0.42861275  1  0.158471  0.000724  0.125769  0.137913  0.000493  0.991095  0.0
H  H27  1  0.59397509  0.22676795  0.43621364  1  0.163054  0.000359  0.127969  0.147432  0.00025  0.969579  0.0
H  H28  1  0.85578321  0.03139142  0.11708504  1  0.105247  0.00197  0.126927  0.101545  0.000694  0.989712  0.001
H  H29  1  0.07363721  0.02989046  0.12237185  1  0.094304  0.000878  0.118016  0.132304  0.000414  0.986822  0.0
H  H30  1  0.23427800  0.34568626  0.02424925  1  0.078881  0.001102  0.101459  0.100186  0.000514  1.038336  0.0
H  H31  1  0.00956038  0.33542538  0.02394122  1  0.082817  0.00205  0.116089  0.083519  0.000696  1.013522  0.001
H  H32  1  0.43294006  0.40475436  0.05697759  1  0.087691  0.000988  0.110178  0.118445  0.000469  1.001557  0.0
H  H33  1  0.64809562  0.39528904  0.05769212  1  0.133061  0.001729  0.125829  0.107002  0.000604  0.985571  0.001
H  H34  1  0.44887990  0.99423425  0.10015760  1  0.133962  0.001722  0.115522  0.081222  0.0005  1.037827  0.001
H  H35  1  0.22363180  0.98233925  0.09807341  1  0.10768  0.000851  0.109756  0.118255  0.000389  1.025641  0.0
H  H36  1  0.11491305  0.43959953  0.40631603  1  0.646941  -0.000226  0.278889  0.359051  -0.000143  1.000811  0.0
H  H37  1  0.06788385  0.42946736  0.45734223  1  0.66023  0.000339  0.285185  0.382758  0.000462  0.953369  0.001
H  H38  1  0.44275633  0.92479887  0.40586311  1  0.607304  -0.000343  0.309359  0.384801  -0.000386  0.915179  0.0
H  H39  1  0.37464522  0.93742818  0.45012209  1  0.639798  -4.1e-05  0.286157  0.368182  1.2e-05  0.979629  0.0
H  H40  1  0.10000208  0.36519324  0.27323653  1  0.164112  5.8e-05  0.122061  0.135332  4e-06  1.016701  0.0
H  H41  1  0.27607284  0.79721113  0.29433643  1  0.167431  0.000287  0.12852  0.147465  0.000209  0.979627  0.0
H  H42  1  0.46610320  0.70734879  0.07138934  1  0.158436  0.000724  0.125731  0.137806  0.000493  0.99118  0.0
H  H43  1  0.09397518  0.72677304  0.06378715  1  0.163019  0.000359  0.127998  0.14748  0.00025  0.969622  0.0
H  H44  1  0.35578181  0.53139650  0.38291538  1  0.105288  0.00197  0.126902  0.101564  0.000693  0.989683  0.001
H  H45  1  0.57363121  0.52989461  0.37762598  1  0.09282  0.000878  0.117997  0.132315  0.000414  0.986889  0.0
H  H46  1  0.73427820  0.84568565  0.47574900  1  0.078923  0.001102  0.10148  0.100224  0.000514  1.038318  0.0
H  H47  1  0.50956371  0.83543251  0.47605735  1  0.082564  0.00205  0.116058  0.083513  0.000696  1.013507  0.001
H  H48  1  0.93293918  0.90475227  0.44301876  1  0.095536  0.000987  0.110194  0.118431  0.000469  1.001544  0.0
H  H49  1  0.14808910  0.89528200  0.44230744  1  0.133176  0.001729  0.125838  0.107004  0.000604  0.985606  0.001
H  H50  1  0.94887676  0.49423470  0.39984168  1  0.134012  0.001722  0.115521  0.081195  0.0005  1.037845  0.001
H  H51  1  0.72363170  0.48233852  0.40192424  1  0.107714  0.000851  0.109755  0.11823  0.000389  1.025651  0.0
H  H52  1  0.93959412  0.61491808  0.90631670  1  0.646918  -0.000226  0.278841  0.35901  -0.000143  1.000881  0.0
H  H53  1  0.92946353  0.56787963  0.95734258  1  0.660133  0.000339  0.285183  0.38277  0.000462  0.953351  0.001
H  H54  1  0.42479143  0.94276521  0.90586536  1  0.606527  -0.000344  0.309356  0.384842  -0.000386  0.915235  0.0
H  H55  1  0.43742380  0.87465067  0.95012368  1  0.639735  -4e-05  0.286205  0.368333  1.2e-05  0.979466  0.0
H  H56  1  0.86518706  0.60000949  0.77323463  1  0.164069  5.8e-05  0.122076  0.135293  4e-06  1.016692  0.0
H  H57  1  0.29720395  0.77607241  0.79433867  1  0.167301  0.000287  0.128562  0.147537  0.000209  0.97952  0.0
H  H58  1  0.20735545  0.96610674  0.57138936  1  0.158309  0.000724  0.125696  0.137749  0.000494  0.991237  0.0
H  H59  1  0.22676126  0.59396803  0.56378679  1  0.163033  0.000359  0.128031  0.147495  0.00025  0.969611  0.0
H  H60  1  0.03139292  0.85578477  0.88291541  1  0.105283  0.00197  0.126944  0.101594  0.000694  0.98969  0.001
H  H61  1  0.02989669  0.07364019  0.87762588  1  0.092664  0.000878  0.11798  0.132323  0.000414  0.98685  0.0
H  H62  1  0.34569277  0.23428611  0.97574953  1  0.079193  0.001101  0.101457  0.100156  0.000515  1.038278  0.0
H  H63  1  0.33542618  0.00956331  0.97605913  1  0.08283  0.00205  0.116094  0.083562  0.000696  1.013498  0.001
H  H64  1  0.40475645  0.43294568  0.94301962  1  0.095536  0.000987  0.110195  0.11849  0.000469  1.001496  0.0
H  H65  1  0.39528796  0.64809933  0.94230739  1  0.133029  0.001729  0.125843  0.107036  0.000604  0.985649  0.001
H  H66  1  0.99423592  0.44888449  0.89984198  1  0.133935  0.001722  0.115516  0.081207  0.0005  1.037827  0.001
H  H67  1  0.98233923  0.22363585  0.90192710  1  0.107766  0.000851  0.109731  0.118233  0.000389  1.025687  0.0
C  C68  1  0.55898072  0.17593648  0.66239080  1  1.613313  -0.001662  0.210184  0.569073  -0.002108  4.20838  -0.002
C  C69  1  0.57913694  0.18841147  0.71069352  1  0.009473  0.007024  0.001659  0.009053  0.004098  3.917776  0.005
C  C70  1  0.46920071  0.14455309  0.73903035  1  0.040144  0.000182  -0.049397  -0.088247  -0.000269  3.879117  0.0
C  C71  1  0.49240307  0.15591661  0.78341106  1  0.232002  0.000644  0.086492  0.031831  0.000341  3.878342  0.001
C  C72  1  0.62365782  0.21073086  0.80169604  1  0.099118  -0.000777  0.027088  0.022651  -0.000898  3.950294  -0.001
C  C73  1  0.73121872  0.25115370  0.77183748  1  0.216913  0.000144  0.086719  0.033826  2.9e-05  3.870443  0.0
C  C74  1  0.71055167  0.24222196  0.72743675  1  0.064003  -0.000212  -0.047895  -0.086068  -0.00035  3.874407  0.0
C  C75  1  0.64994685  0.23221731  0.84907533  1  0.105137  -0.000706  0.024601  0.017956  -0.000837  3.954514  0.0
C  C76  1  0.66177838  0.34730489  0.87073634  1  0.272289  0.00105  0.086041  0.044996  0.000575  3.876592  0.001
C  C77  1  0.69833469  0.37404943  0.91406770  1  -0.029566  0.00133  -0.063449  -0.126097  0.000667  3.932822  0.001
C  C78  1  0.72436645  0.28451244  0.93779220  1  0.012867  0.006036  -0.009062  -0.008679  0.003482  3.975949  0.005
C  C79  1  0.70907856  0.16636253  0.91796869  1  0.04229  -0.000334  -0.062676  -0.12318  -0.0005  3.93096  0.0
C  C80  1  0.67426967  0.14314438  0.87471160  1  0.194719  0.000837  0.082153  0.025981  0.000507  3.944255  0.0
C  C81  1  0.77130246  0.31190805  0.98392614  1  1.600378  -0.000987  0.209524  0.558038  -0.001533  4.238617  -0.001
C  C82  1  0.60003810  0.44246166  0.59721865  1  0.485757  -0.004162  0.060513  0.122906  -0.004969  3.913335  -0.003
C  C83  1  0.59898372  0.56491382  0.59963962  1  0.00764  0.003976  -0.068637  -0.152719  0.002277  3.901096  0.003
C  C84  1  0.68907199  0.67513278  0.57386549  1  0.031188  -0.005418  0.012503  0.103564  -0.006069  3.982826  -0.003
C  C85  1  0.77553503  0.65440080  0.54604299  1  -0.038796  0.0043  -0.084755  -0.169239  0.002383  3.955601  0.003
C  C86  1  0.77004666  0.52860456  0.54551474  1  0.499821  -0.00327  0.043607  0.086625  -0.003852  3.965062  -0.002
C  C87  1  0.69174399  0.80700918  0.57570721  1  -0.036518  -0.005187  0.014058  0.104974  -0.005794  3.983303  -0.003
C  C88  1  0.80908030  0.93004284  0.56486495  1  -0.022014  0.004168  -0.080139  -0.171488  0.002311  3.945203  0.003
C  C89  1  0.80533546  0.05144068  0.56583507  1  0.480214  -0.00314  0.053289  0.105088  -0.003681  3.91836  -0.002
C  C90  1  0.58170168  0.94033738  0.58938536  1  0.49259  -0.003661  0.049249  0.102353  -0.004402  3.938191  -0.002
C  C91  1  0.57648196  0.81467793  0.58867404  1  -0.061887  0.003706  -0.077154  -0.160863  0.002076  3.915242  0.003
C  C92  1  0.67593180  0.05897641  0.16239047  1  1.613443  -0.001662  0.210435  0.569532  -0.002108  4.208035  -0.002
C  C93  1  0.68840504  0.07912746  0.21069287  1  0.009364  0.007024  0.001623  0.009233  0.004098  3.917417  0.005
C  C94  1  0.64454731  0.96919228  0.23903050  1  0.04012  0.000182  -0.049411  -0.088324  -0.000269  3.878952  0.0
C  C95  1  0.65591629  0.99239926  0.28341089  1  0.23225  0.000644  0.086474  0.031784  0.000341  3.878318  0.001
C  C96  1  0.71073279  0.12365585  0.30169443  1  0.098932  -0.000777  0.027054  0.022647  -0.000898  3.950159  -0.001
C  C97  1  0.75115791  0.23121578  0.27183491  1  0.216999  0.000144  0.086822  0.033882  2.9e-05  3.870529  0.0
C  C98  1  0.74222172  0.21054526  0.22743450  1  0.064319  -0.000212  -0.047948  -0.0862  -0.000349  3.874373  0.0
C  C99  1  0.73222397  0.14994779  0.34907372  1  0.10519  -0.000707  0.024634  0.018055  -0.000838  3.954394  0.0
C  C100  1  0.84730988  0.16177522  0.37073536  1  0.27211  0.00105  0.086037  0.045006  0.000575  3.876705  0.001
C  C101  1  0.87405627  0.19833475  0.41406672  1  -0.029689  0.00133  -0.063481  -0.126186  0.000667  3.932803  0.001
C  C102  1  0.78452065  0.22436706  0.43779156  1  0.013341  0.006036  -0.009087  -0.008626  0.003482  3.975797  0.005
C  C103  1  0.66636830  0.20907809  0.41796839  1  0.041956  -0.000334  -0.062694  -0.12314  -0.0005  3.931015  0.0
C  C104  1  0.64315164  0.17426689  0.37471129  1  0.19504  0.000837  0.082222  0.02592  0.000507  3.944413  0.0
C  C105  1  0.81191206  0.27130131  0.48392615  1  1.600671  -0.000985  0.209587  0.558262  -0.001533  4.238351  -0.001
C  C106  1  0.94246163  0.10003317  0.09721733  1  0.486164  -0.004162  0.060517  0.122932  -0.004969  3.913239  -0.003
C  C107  1  0.06491444  0.09898077  0.09963891  1  0.005979  0.003976  -0.068634  -0.152662  0.002277  3.901021  0.003
C  C108  1  0.17513127  0.18906938  0.07386380  1  0.031214  -0.005418  0.012544  0.10358  -0.006069  3.98277  -0.003
C  C109  1  0.15440145  0.27553406  0.04604100  1  -0.038806  0.004301  -0.084854  -0.169375  0.002383  3.955528  0.003
C  C110  1  0.02860300  0.27004441  0.04551405  1  0.499839  -0.00327  0.043641  0.086652  -0.003852  3.96498  -0.002
C  C111  1  0.30700957  0.19174315  0.07570777  1  -0.036455  -0.005186  0.014034  0.104978  -0.005793  3.983419  -0.003
C  C112  1  0.43004044  0.30907877  0.06486260  1  -0.014263  0.004167  -0.080149  -0.171548  0.002311  3.945361  0.003
C  C113  1  0.55143998  0.30533678  0.06583286  1  0.480794  -0.003141  0.053294  0.105102  -0.003679  3.918414  -0.002
C  C114  1  0.44034382  0.08170706  0.08938685  1  0.492391  -0.003661  0.049261  0.102316  -0.004403  3.938102  -0.002
C  C115  1  0.31468026  0.07648275  0.08867393  1  -0.061971  0.003706  -0.07714  -0.160874  0.002076  3.915336  0.003
C  C116  1  0.17593134  0.55898185  0.33760930  1  1.613256  -0.001662  0.210306  0.569205  -0.002108  4.208224  -0.002
C  C117  1  0.18840960  0.57913434  0.28930626  1  0.009683  0.007024  0.001695  0.009166  0.004098  3.917678  0.005
C  C118  1  0.14455056  0.46919421  0.26097005  1  0.040032  0.000182  -0.049374  -0.088163  -0.000269  3.879084  0.0
C  C119  1  0.15591643  0.49240135  0.21658967  1  0.232284  0.000645  0.086498  0.031771  0.000341  3.878435  0.001
C  C120  1  0.21073001  0.62365630  0.19830440  1  0.098903  -0.000777  0.027024  0.022608  -0.000898  3.950258  -0.001
C  C121  1  0.25115621  0.73121771  0.22816299  1  0.217254  0.000144  0.086696  0.033776  2.9e-05  3.870525  0.0
C  C122  1  0.24222419  0.71055020  0.27256403  1  0.064011  -0.000212  -0.047892  -0.086078  -0.000349  3.874442  0.0
C  C123  1  0.23222007  0.64994580  0.15092512  1  0.105115  -0.000706  0.024671  0.018058  -0.000837  3.954569  0.0
C  C124  1  0.34730596  0.66177496  0.12926445  1  0.272049  0.00105  0.086064  0.045047  0.000575  3.87675  0.001
C  C125  1  0.37405028  0.69833693  0.08593343  1  -0.03005  0.001331  -0.063387  -0.125917  0.000667  3.93284  0.001
C  C126  1  0.28451255  0.72436639  0.06220957  1  0.013456  0.006036  -0.009051  -0.008734  0.003482  3.975914  0.005
C  C127  1  0.16636227  0.70907758  0.08203305  1  0.042317  -0.000334  -0.062709  -0.123191  -0.0005  3.931147  0.0
C  C128  1  0.14314569  0.67426741  0.12528981  1  0.195017  0.000837  0.082208  0.026048  0.000507  3.944401  0.0
C  C129  1  0.31190792  0.77129891  0.01607466  1  1.600553  -0.000987  0.209567  0.558093  -0.001534  4.238469  -0.001
C  C130  1  0.44246029  0.60004099  0.40278118  1  0.48544  -0.004162  0.060548  0.122918  -0.004969  3.913126  -0.003
C  C131  1  0.56491049  0.59898330  0.40035991  1  0.007838  0.003975  -0.068656  -0.152748  0.002277  3.901155  0.003
C  C132  1  0.67513038  0.68906902  0.42613408  1  0.031186  -0.005418  0.012541  0.103661  -0.006069  3.982788  -0.003
C  C133  1  0.65440265  0.77553478  0.45395691  1  -0.038804  0.0043  -0.084799  -0.169402  0.002383  3.955545  0.003
C  C134  1  0.52860832  0.77005068  0.45448546  1  0.500049  -0.003269  0.043615  0.086608  -0.003851  3.965  -0.002
C  C135  1  0.80700665  0.69174268  0.42429205  1  -0.036822  -0.005187  0.014003  0.10487  -0.005793  3.983384  -0.003
C  C136  1  0.93003956  0.80907843  0.43513468  1  -0.022023  0.004168  -0.080149  -0.171452  0.002311  3.945285  0.003
C  C137  1  0.05143652  0.80533121  0.43416602  1  0.480135  -0.00314  0.053317  0.105103  -0.00368  3.918442  -0.002
C  C138  1  0.94033779  0.58170416  0.41061165  1  0.492291  -0.003661  0.049224  0.102357  -0.004403  3.937919  -0.002
C  C139  1  0.81467731  0.57648224  0.41132553  1  -0.061609  0.003706  -0.077136  -0.160833  0.002076  3.915188  0.003
C  C140  1  0.05897310  0.67593755  0.83760995  1  1.613494  -0.001662  0.210466  0.569625  -0.002108  4.207785  -0.002
C  C141  1  0.07912416  0.68841169  0.78930658  1  0.009214  0.007025  0.001605  0.009164  0.004098  3.917485  0.005
C  C142  1  0.96918836  0.64455211  0.76096846  1  0.040287  0.000182  -0.049361  -0.088186  -0.000269  3.878814  0.0
C  C143  1  0.99239269  0.65591738  0.71658776  1  0.232011  0.000644  0.086475  0.031786  0.000341  3.878391  0.001
C  C144  1  0.12364991  0.71072704  0.69830472  1  0.099023  -0.000777  0.027007  0.022614  -0.000898  3.950023  -0.001
C  C145  1  0.23120886  0.75115255  0.72816491  1  0.217041  0.000144  0.086828  0.033874  2.9e-05  3.870263  0.0
C  C146  1  0.21054087  0.74222044  0.77256563  1  0.064525  -0.000212  -0.04795  -0.086193  -0.000349  3.874313  0.0
C  C147  1  0.14994807  0.73221959  0.65092544  1  0.105197  -0.000706  0.02461  0.017959  -0.000837  3.954417  0.0
C  C148  1  0.16178057  0.84730671  0.62926478  1  0.27226  0.00105  0.086067  0.045027  0.000575  3.876754  0.001
C  C149  1  0.19834088  0.87405132  0.58593376  1  -0.02994  0.00133  -0.06339  -0.125917  0.000667  3.932886  0.001
C  C150  1  0.22436546  0.78451168  0.56220923  1  0.013462  0.006036  -0.00913  -0.00886  0.003482  3.976077  0.005
C  C151  1  0.20907248  0.66635845  0.58203270  1  0.042342  -0.000333  -0.062729  -0.123162  -0.0005  3.931155  0.0
C  C152  1  0.17426268  0.64314262  0.62528946  1  0.195005  0.000837  0.082162  0.026042  0.000507  3.944292  0.0
C  C153  1  0.27130037  0.81190664  0.51607465  1  1.600538  -0.000987  0.209534  0.558006  -0.001533  4.238662  -0.001
C  C154  1  0.10003772  0.94246462  0.90278218  1  0.485545  -0.004161  0.060498  0.122856  -0.004968  3.913396  -0.003
C  C155  1  0.09898724  0.06491886  0.90035980  1  0.007965  0.003975  -0.068681  -0.152849  0.002277  3.901191  0.003
C  C156  1  0.18907656  0.17513661  0.92613462  1  0.031463  -0.005417  0.012572  0.10381  -0.006068  3.98274  -0.003
C  C157  1  0.27553662  0.15440680  0.95395808  1  -0.039083  0.0043  -0.084721  -0.169285  0.002383  3.955478  0.003
C  C158  1  0.27004823  0.02860788  0.95448564  1  0.499842  -0.00327  0.043569  0.086507  -0.003852  3.965041  -0.002
C  C159  1  0.19174552  0.30701419  0.92429132  1  -0.036483  -0.005187  0.014059  0.105004  -0.005794  3.983364  -0.003
C  C160  1  0.30908185  0.43004789  0.93513524  1  -0.022018  0.004169  -0.080228  -0.171703  0.002311  3.945249  0.003
C  C161  1  0.30533719  0.55144651  0.93416629  1  0.480108  -0.00314  0.05334  0.105145  -0.00368  3.918408  -0.002
C  C162  1  0.08170730  0.44034702  0.91061288  1  0.492582  -0.003662  0.049295  0.102406  -0.004404  3.93802  -0.002
C  C163  1  0.07648347  0.31468290  0.91132578  1  -0.06196  0.003706  -0.077138  -0.160926  0.002076  3.915384  0.003
N  N164  1  0.87424079  0.30765300  0.78601544  1  0.414083  -1e-06  0.062572  0.521053  -2e-05  4.181753  0.0
N  N165  1  0.37154704  0.10239137  0.81166943  1  0.408412  0.00017  0.064023  0.525142  9.4e-05  4.168148  0.0
N  N166  1  0.63190067  0.44564577  0.84851000  1  0.412668  0.000376  0.062486  0.525458  0.000189  4.190816  0.0
N  N167  1  0.66839464  0.02081852  0.85535917  1  0.388083  0.000394  0.055921  0.512157  0.000275  4.227471  0.0
N  N168  1  0.68480670  0.42422085  0.57097471  1  -1.201857  0.067608  -0.321763  -0.225973  0.039065  3.574579  0.061
N  N169  1  0.69287795  0.05715686  0.57727823  1  -1.19788  0.063555  -0.316858  -0.220484  0.036725  3.542549  0.057
N  N170  1  0.80765546  0.37423926  0.28601126  1  0.415026  -1e-06  0.062602  0.521059  -2e-05  4.181902  0.0
N  N171  1  0.60239210  0.87154453  0.31166893  1  0.408238  0.00017  0.064055  0.525193  9.4e-05  4.168329  0.0
N  N172  1  0.94564720  0.13189327  0.34851030  1  0.412424  0.000376  0.062661  0.525475  0.000189  4.190751  0.0
N  N173  1  0.52082356  0.16839049  0.35535856  1  0.387585  0.000394  0.055965  0.512245  0.000275  4.22729  0.0
N  N174  1  0.92422110  0.18480499  0.07097470  1  -1.202161  0.067607  -0.321763  -0.225945  0.039065  3.574563  0.061
N  N175  1  0.55716055  0.19288460  0.07727890  1  -1.198231  0.063557  -0.31687  -0.220466  0.036725  3.542631  0.057
N  N176  1  0.30765574  0.87423856  0.21398636  1  0.414031  -1e-06  0.062492  0.520819  -2e-05  4.181882  0.0
N  N177  1  0.10239318  0.37154435  0.18833159  1  0.40826  0.00017  0.064077  0.525202  9.4e-05  4.168356  0.0
N  N178  1  0.44564538  0.63189585  0.15149048  1  0.412451  0.000376  0.062523  0.52528  0.000189  4.190718  0.0
N  N179  1  0.02081969  0.66839206  0.14464221  1  0.387536  0.000394  0.055951  0.51216  0.000275  4.227486  0.0
N  N180  1  0.42422182  0.68481120  0.42902545  1  -1.201842  0.067606  -0.321732  -0.225875  0.039064  3.57438  0.061
N  N181  1  0.05715605  0.69287939  0.42272058  1  -1.197742  0.063557  -0.316858  -0.220493  0.036726  3.542527  0.057
N  N182  1  0.37423495  0.80764933  0.71398956  1  0.415052  -1e-06  0.06246  0.520987  -2e-05  4.182009  0.0
N  N183  1  0.87154278  0.60239772  0.68832904  1  0.408207  0.00017  0.064015  0.524988  9.4e-05  4.16826  0.0
N  N184  1  0.13190595  0.94564737  0.65149180  1  0.412616  0.000376  0.062389  0.525301  0.000189  4.190708  0.0
N  N185  1  0.16838155  0.52081294  0.64464121  1  0.387109  0.000394  0.055994  0.512084  0.000275  4.227777  0.0
N  N186  1  0.18480637  0.92422390  0.92902579  1  -1.201811  0.067602  -0.321754  -0.225864  0.039062  3.574508  0.061
N  N187  1  0.19288478  0.55716603  0.92272023  1  -1.197882  0.063559  -0.316927  -0.220527  0.036727  3.542577  0.057
O  O188  1  0.66927271  0.23905848  0.64056482  1  -1.148856  0.076152  -0.309147  -0.540412  0.042118  2.321592  0.071
O  O189  1  0.43887241  0.10678723  0.64768913  1  -1.179246  -0.001018  -0.324506  -0.558007  -0.001973  2.176988  -0.001
O  O190  1  0.84430623  0.43551627  0.99623076  1  -1.178159  0.000214  -0.30714  -0.544696  -0.000917  2.176054  0.0
O  O191  1  0.73417211  0.20529296  0.00645634  1  -1.145522  0.059858  -0.304031  -0.527728  0.033302  2.335316  0.056
O  O192  1  0.47146780  0.14556857  0.56328175  1  -1.27681  0.072902  -0.577295  -0.751048  0.040356  2.155043  0.064
O  O193  1  0.91114164  0.35796460  0.58129877  1  -1.206199  0.060167  -0.560687  -0.725935  0.033543  2.107586  0.053
O  O194  1  0.89664209  0.27342572  0.82191798  1  -0.465327  6.4e-05  -0.12652  -0.337089  2.8e-05  1.983885  0.0
O  O195  1  0.96439079  0.38469034  0.76074564  1  -0.451257  6e-06  -0.105931  -0.30232  -1.9e-05  1.981177  0.0
O  O196  1  0.25779155  0.05231076  0.79457007  1  -0.436181  9e-06  -0.109191  -0.298178  -1.2e-05  1.901976  0.0
O  O197  1  0.39009046  0.10872114  0.85151143  1  -0.493498  3.1e-05  -0.126103  -0.343341  -6.6e-05  1.992533  0.0
O  O198  1  0.64172269  0.45393019  0.80866381  1  -0.459714  0.000385  -0.112617  -0.314341  0.000197  1.965454  0.0
O  O199  1  0.59722804  0.51314194  0.87157779  1  -0.438817  0.000295  -0.124891  -0.321101  0.000119  1.889117  0.0
O  O200  1  0.58586703  0.96394785  0.82564669  1  -0.426388  0.000232  -0.110218  -0.299984  9.8e-05  1.957036  0.0
O  O201  1  0.74635975  0.98333518  0.87044553  1  -0.446424  0.00031  -0.125678  -0.321718  0.000132  1.897636  0.0
O  O202  1  0.73905776  0.16926505  0.14056354  1  -1.148921  0.076146  -0.309314  -0.540679  0.042115  2.321667  0.071
O  O203  1  0.60677732  0.93886547  0.14768895  1  -1.179327  -0.001018  -0.324538  -0.558211  -0.001973  2.176814  -0.001
O  O204  1  0.93552073  0.34430501  0.49623109  1  -1.178272  0.000215  -0.307128  -0.544778  -0.000917  2.175981  0.0
O  O205  1  0.70529968  0.23417997  0.50645600  1  -1.145788  0.059852  -0.30412  -0.527926  0.0333  2.335302  0.056
O  O206  1  0.64556903  0.97146364  0.06328060  1  -1.276892  0.072904  -0.577344  -0.751111  0.040356  2.154939  0.064
O  O207  1  0.85796497  0.41114215  0.08130008  1  -1.206209  0.060167  -0.560609  -0.725744  0.033543  2.10763  0.053
O  O208  1  0.77343773  0.39664316  0.32191510  1  -0.466137  6.4e-05  -0.126539  -0.337033  2.8e-05  1.983966  0.0
O  O209  1  0.88467808  0.46438780  0.26073791  1  -0.451619  6e-06  -0.105991  -0.302438  -1.9e-05  1.981239  0.0
O  O210  1  0.55230937  0.75778762  0.29456987  1  -0.436112  9e-06  -0.109232  -0.298229  -1.2e-05  1.902041  0.0
O  O211  1  0.60872515  0.89009037  0.35151092  1  -0.49345  3.1e-05  -0.126064  -0.343314  -6.6e-05  1.992596  0.0
O  O212  1  0.95393433  0.14171994  0.30866411  1  -0.459683  0.000385  -0.112689  -0.314324  0.000197  1.965348  0.0
O  O213  1  0.01313673  0.09721586  0.37157902  1  -0.438566  0.000295  -0.124961  -0.321143  0.000119  1.889155  0.0
O  O214  1  0.46394894  0.08585668  0.32564818  1  -0.426387  0.000232  -0.110163  -0.299919  9.8e-05  1.957117  0.0
O  O215  1  0.48334175  0.24635850  0.37044381  1  -0.446173  0.00031  -0.125781  -0.321832  0.000132  1.897381  0.0
O  O216  1  0.23905835  0.66927015  0.35943692  1  -1.148977  0.07615  -0.309211  -0.540479  0.042117  2.321664  0.071
O  O217  1  0.10677469  0.43887274  0.35231126  1  -1.179209  -0.001019  -0.324583  -0.558131  -0.001974  2.176882  -0.001
O  O218  1  0.43551655  0.84429989  0.00376879  1  -1.17818  0.000214  -0.307177  -0.544756  -0.000917  2.175936  0.0
O  O219  1  0.20529218  0.73416724  0.99354476  1  -1.145612  0.059857  -0.304081  -0.527784  0.033302  2.335248  0.056
O  O220  1  0.14557057  0.47146690  0.43671833  1  -1.276896  0.072906  -0.577325  -0.751083  0.040358  2.155  0.064
O  O221  1  0.35795752  0.91114615  0.41869949  1  -1.20701  0.060164  -0.560601  -0.725661  0.033541  2.10774  0.053
O  O222  1  0.27342876  0.89663878  0.17808349  1  -0.465513  6.4e-05  -0.126437  -0.336932  2.8e-05  1.983887  0.0
O  O223  1  0.38468757  0.96438897  0.23925715  1  -0.451309  6e-06  -0.105952  -0.302263  -1.9e-05  1.981179  0.0
O  O224  1  0.05230742  0.25778690  0.20542996  1  -0.43613  9e-06  -0.109218  -0.29818  -1.2e-05  1.90202  0.0
O  O225  1  0.10872820  0.39009107  0.14848960  1  -0.493427  3.1e-05  -0.126117  -0.343379  -6.6e-05  1.992634  0.0
O  O226  1  0.45393147  0.64171412  0.19133700  1  -0.459749  0.000385  -0.112662  -0.314318  0.000197  1.96532  0.0
O  O227  1  0.51313126  0.59721438  0.12842109  1  -0.438442  0.000295  -0.124913  -0.321025  0.000119  1.889091  0.0
O  O228  1  0.96394767  0.58586090  0.17435356  1  -0.426235  0.000232  -0.110195  -0.299932  9.8e-05  1.957046  0.0
O  O229  1  0.98332909  0.74634909  0.12955410  1  -0.446311  0.00031  -0.125751  -0.321791  0.000132  1.897711  0.0
O  O230  1  0.16926511  0.73905783  0.85943627  1  -1.148881  0.076149  -0.309274  -0.540665  0.042117  2.321543  0.071
O  O231  1  0.93886325  0.60678535  0.85231097  1  -1.179402  -0.001019  -0.32461  -0.558279  -0.001973  2.176708  -0.001
O  O232  1  0.34430615  0.93551493  0.50377040  1  -1.178156  0.000215  -0.307161  -0.544669  -0.000917  2.175931  0.0
O  O233  1  0.23416982  0.70529253  0.49354413  1  -1.14573  0.059855  -0.304031  -0.52771  0.033301  2.33535  0.056
O  O234  1  0.97146288  0.64556983  0.93671965  1  -1.276847  0.072904  -0.577276  -0.751065  0.040356  2.154932  0.064
O  O235  1  0.41113923  0.85796483  0.91870108  1  -1.206163  0.060167  -0.560652  -0.725832  0.033543  2.107598  0.053
O  O236  1  0.39664335  0.77342720  0.67808701  1  -0.466145  6.4e-05  -0.126526  -0.337077  2.8e-05  1.984041  0.0
O  O237  1  0.46438491  0.88467961  0.73926132  1  -0.451528  6e-06  -0.105919  -0.302375  -1.9e-05  1.981294  0.0
O  O238  1  0.75778741  0.55232697  0.70542774  1  -0.436068  9e-06  -0.10919  -0.298169  -1.2e-05  1.901899  0.0
O  O239  1  0.89009527  0.60872736  0.64848737  1  -0.493594  3.1e-05  -0.126031  -0.343137  -6.6e-05  1.992541  0.0
O  O240  1  0.14172491  0.95392417  0.69133864  1  -0.459632  0.000385  -0.112624  -0.314293  0.000197  1.965286  0.0
O  O241  1  0.09723925  0.01314833  0.62842420  1  -0.438867  0.000295  -0.12478  -0.321005  0.000119  1.889103  0.0
O  O242  1  0.08584768  0.46393949  0.67435189  1  -0.425967  0.000232  -0.110126  -0.299847  9.8e-05  1.957231  0.0
O  O243  1  0.24634335  0.48332460  0.62955629  1  -0.446179  0.00031  -0.125787  -0.321743  0.000132  1.897791  0.0
