# generated using pymatgen
data_H14PbC12(BrN)2
_symmetry_space_group_name_H-M   'P 1'
_cell_length_a   4.27651529
_cell_length_b   9.54570206
_cell_length_c   10.12416204
_cell_angle_alpha   64.32610329
_cell_angle_beta   88.68086511
_cell_angle_gamma   89.73700391
_symmetry_Int_Tables_number   1
_chemical_formula_structural   H14PbC12(BrN)2
_chemical_formula_sum   'H14 Pb1 C12 Br2 N2'
_cell_volume   372.38416773
_cell_formula_units_Z   1
loop_
 _symmetry_equiv_pos_site_id
 _symmetry_equiv_pos_as_xyz
  1  'x, y, z'
loop_
 _atom_site_type_symbol
 _atom_site_label
 _atom_site_symmetry_multiplicity
 _atom_site_fract_x
 _atom_site_fract_y
 _atom_site_fract_z
 _atom_site_occupancy
 _atom_site_pbe_bader_spin_density
 _atom_site_pbe_cm5_charge
 _atom_site_pbe_ddec_charge
 _atom_site_pbe_ddec_spin_density
 _atom_site_pbe_ddec_sum_bond_order
 _atom_site_pbe_magmom
H  H0  1  0.69639119  0.70846797  0.31758928  1  0  0.100815  0.068456  0  1.038436  0
H  H1  1  0.30361986  0.29153002  0.68241385  1  0  0.100797  0.068434  0  1.038271  0
H  H2  1  0.66766796  0.42099006  0.47589770  1  0  0.104167  0.114007  0  1.015394  0
H  H3  1  0.33234063  0.57900908  0.52410204  1  0  0.104201  0.114052  0  1.015331  0
H  H4  1  0.25905434  0.35771196  0.15640187  1  0  0.098311  0.110698  0  1.027885  0
H  H5  1  0.74095659  0.64228370  0.84360025  1  0  0.098246  0.110639  0  1.02781  0
H  H6  1  0.27092876  0.64832440  0.01222637  1  0  0.102788  0.070541  0  1.029285  0
H  H7  1  0.72907274  0.35167126  0.98777392  1  0  0.102785  0.070537  0  1.029257  0
H  H8  1  0.11759310  0.13286288  0.38060390  1  0  0.082711  0.132912  0  1.038871  0
H  H9  1  0.88239687  0.86713047  0.61940248  1  0  0.082725  0.132921  0  1.03888  0
H  H10  1  0.98195834  0.16163200  0.53575821  1  0  0.085063  0.127605  0  1.030862  0
H  H11  1  0.01803173  0.83837181  0.46424290  1  0  0.085076  0.127661  0  1.030833  0
H  H12  1  0.71317342  0.14808868  0.41179877  1  0  0.089273  0.14295  0  1.007263  0
H  H13  1  0.28680964  0.85190932  0.58820681  1  0  0.089289  0.142981  0  1.007312  0
Pb  Pb14  1  0.00004261  0.00000846  0.99998371  1  0  0.409371  0.756465  0  2.255593  0
C  C15  1  0.81909593  0.62611081  0.28644181  1  0  0.036247  0.083279  0  4.00778  0
C  C16  1  0.18088907  0.37389995  0.71354467  1  0  0.036247  0.083282  0  4.007797  0
C  C17  1  0.80253057  0.46682100  0.37318549  1  0  -0.090212  -0.196447  0  3.951236  0
C  C18  1  0.19746624  0.53317350  0.62681537  1  0  -0.090269  -0.196511  0  3.951676  0
C  C19  1  0.96093799  0.36493704  0.32881120  1  0  0.013635  0.226291  0  3.943374  0
C  C20  1  0.03907306  0.63505862  0.67119387  1  0  0.013726  0.226328  0  3.943235  0
C  C21  1  0.13114948  0.43180605  0.19592205  1  0  -0.088752  -0.190925  0  3.929463  0
C  C22  1  0.86884727  0.56819077  0.80407587  1  0  -0.088708  -0.190841  0  3.929551  0
C  C23  1  0.13787853  0.59266892  0.11561286  1  0  0.04027  0.09143  0  3.996176  0
C  C24  1  0.86211835  0.40733372  0.88438366  1  0  0.040254  0.091391  0  3.995997  0
C  C25  1  0.94559321  0.19298987  0.41924038  1  0  -0.246379  -0.429745  0  3.933861  0
C  C26  1  0.05440389  0.80701742  0.58075818  1  0  -0.246447  -0.42985  0  3.93376  0
Br  Br27  1  0.49097830  0.03250295  0.19704341  1  0  -0.220116  -0.465365  0  1.190664  0
Br  Br28  1  0.50900049  0.96750554  0.80296486  1  0  -0.220027  -0.465237  0  1.190871  0
N  N29  1  0.98489647  0.68900509  0.15945478  1  0  -0.312565  -0.263991  0  3.479967  0
N  N30  1  0.01511675  0.31098708  0.84054873  1  0  -0.312524  -0.263946  0  3.47949  0
