# generated using pymatgen
data_CoH12C14(NO)4
_symmetry_space_group_name_H-M   'P 1'
_cell_length_a   8.27798033
_cell_length_b   9.92885018
_cell_length_c   9.86346626
_cell_angle_alpha   89.99987691
_cell_angle_beta   104.00819235
_cell_angle_gamma   90.00028829
_symmetry_Int_Tables_number   1
_chemical_formula_structural   CoH12C14(NO)4
_chemical_formula_sum   'Co2 H24 C28 N8 O8'
_cell_volume   786.57754125
_cell_formula_units_Z   2
loop_
 _symmetry_equiv_pos_site_id
 _symmetry_equiv_pos_as_xyz
  1  'x, y, z'
loop_
 _atom_site_type_symbol
 _atom_site_label
 _atom_site_symmetry_multiplicity
 _atom_site_fract_x
 _atom_site_fract_y
 _atom_site_fract_z
 _atom_site_occupancy
 _atom_site_hle17_ddec_charge
 _atom_site_hle17_ddec_spin_density
 _atom_site_hle17_ddec_sum_bond_order
 _atom_site_hle17_magmom
 _atom_site_hse06_10hf_ddec_charge
 _atom_site_hse06_10hf_ddec_spin_density
 _atom_site_hse06_10hf_ddec_sum_bond_order
 _atom_site_hse06_10hf_magmom
 _atom_site_hse06_ddec_charge
 _atom_site_hse06_ddec_spin_density
 _atom_site_hse06_ddec_sum_bond_order
 _atom_site_hse06_magmom
 _atom_site_pbe_cm5_charge
 _atom_site_pbe_ddec_charge
 _atom_site_pbe_ddec_spin_density
 _atom_site_pbe_ddec_sum_bond_order
 _atom_site_pbe_magmom
Co  Co0  1  0.24642547  0.60055430  0.13882806  1  0.949523  2.841745  2.039718  2.524  0.887985  2.826466  2.492819  2.576  0.97873  2.877012  2.407145  2.667  0.687529  0.816464  2.777257  2.557734  2.49
Co  Co1  1  0.74641973  0.39944693  0.63882716  1  0.949538  -2.841743  2.039742  -2.524  0.887874  -2.826459  2.49292  -2.576  0.978664  -2.877015  2.407211  -2.667  0.687506  0.816384  -2.777254  2.557833  -2.49
H  H2  1  0.11913044  0.91069475  0.07378106  1  0.094404  -0.000108  0.946955  0.0  0.102645  4.2e-05  1.00997  0.0  0.10494  1.8e-05  1.007433  0.0  0.133073  0.100868  7.3e-05  1.011932  0.0
H  H3  1  0.61912791  0.08930709  0.57377846  1  0.094457  0.000107  0.946939  0.0  0.102686  -4.2e-05  1.009964  0.0  0.104982  -1.8e-05  1.007429  0.0  0.133083  0.100906  -7.3e-05  1.011929  0.0
H  H4  1  0.94015336  0.97570822  0.82963155  1  0.301821  0.000265  0.956984  0.001  0.281529  0.000238  1.018894  0.0  0.290977  0.00019  1.011523  0.0  0.301102  0.274823  0.000279  1.024125  0.001
H  H5  1  0.44015329  0.02429140  0.32962946  1  0.301767  -0.000265  0.957061  -0.001  0.281476  -0.000238  1.018968  0.0  0.290924  -0.00019  1.011598  0.0  0.301092  0.274767  -0.000279  1.024202  -0.001
H  H6  1  0.61739283  0.71723414  0.23685062  1  0.115132  7.1e-05  0.969742  0.0  0.121245  0.000189  1.033302  0.001  0.12397  0.000135  1.031562  0.0  0.117244  0.119263  0.000248  1.03468  0.001
H  H7  1  0.11738936  0.28276332  0.73685329  1  0.115153  -7.2e-05  0.969765  0.0  0.121264  -0.00019  1.033322  -0.001  0.123989  -0.000136  1.031584  0.0  0.117258  0.119282  -0.000248  1.034698  -0.001
H  H8  1  0.04404124  0.55484089  0.83303659  1  0.10898  0.00014  0.983599  0.001  0.111624  9.5e-05  1.054996  0.001  0.113695  9e-05  1.054673  0.001  0.115868  0.109943  8.2e-05  1.055875  0.001
H  H9  1  0.54403567  0.44515907  0.33303162  1  0.108999  -0.000141  0.98356  -0.001  0.111645  -9.5e-05  1.054945  -0.001  0.113715  -9e-05  1.054622  -0.001  0.11588  0.109958  -8.1e-05  1.055836  -0.001
H  H10  1  0.88565331  0.76818374  0.66876301  1  0.110236  0.000344  0.959428  0.0  0.121515  0.000371  1.01554  0.0  0.123983  0.000283  1.014592  0.0  0.121723  0.119597  0.000457  1.016546  0.0
H  H11  1  0.38565070  0.23181498  0.16876096  1  0.110225  -0.000346  0.959481  0.0  0.121536  -0.000372  1.015553  0.0  0.124009  -0.000283  1.014598  0.0  0.121747  0.119617  -0.000457  1.016558  0.0
H  H12  1  0.40909709  0.41615176  0.94496147  1  0.099643  4.1e-05  0.942595  0.0  0.109058  0.000222  1.003649  0.0  0.111634  0.000168  1.000285  0.0  0.137954  0.107084  0.000264  1.006211  0.001
H  H13  1  0.90909603  0.58384546  0.44496220  1  0.099646  -3.9e-05  0.942582  0.0  0.109055  -0.000222  1.003647  0.0  0.11163  -0.000168  1.000284  0.0  0.137952  0.107082  -0.000264  1.006207  -0.001
H  H14  1  0.86419030  0.61862820  0.11265314  1  0.111981  0.000209  0.971157  0.0  0.119057  0.000347  1.034214  0.0  0.121511  0.000198  1.033371  0.0  0.120243  0.11721  0.000515  1.035063  0.0
H  H15  1  0.36418864  0.38137156  0.61265800  1  0.111978  -0.000207  0.971179  0.0  0.119093  -0.000347  1.034193  0.0  0.121546  -0.000198  1.033348  0.0  0.120248  0.117246  -0.000515  1.03504  0.0
H  H16  1  0.71607348  0.43643370  0.94103969  1  0.310193  0.000286  0.930937  0.001  0.28959  0.000325  0.992012  0.0  0.298482  0.000346  0.985468  0.0  0.312042  0.283155  0.000278  0.996896  0.0
H  H17  1  0.21607275  0.56356574  0.44104339  1  0.310155  -0.000286  0.930978  -0.001  0.289555  -0.000325  0.992056  0.0  0.29845  -0.000346  0.985507  0.0  0.31201  0.283121  -0.000278  0.996934  0.0
H  H18  1  0.06571397  0.26583317  0.34404555  1  0.100003  4.1e-05  0.962875  0.0  0.107233  5.8e-05  1.028997  0.0  0.110211  2.4e-05  1.028307  0.0  0.1013  0.104989  0.000101  1.029662  0.0
H  H19  1  0.56571514  0.73416888  0.84404839  1  0.09998  -3.9e-05  0.962888  0.0  0.10721  -5.8e-05  1.029018  0.0  0.110189  -2.4e-05  1.028328  0.0  0.101286  0.10496  -0.000102  1.029697  0.0
H  H20  1  0.70479658  0.94906280  0.21157297  1  0.092759  -7.2e-05  0.950394  0.0  0.104755  -4.2e-05  1.007818  0.0  0.107614  -3.4e-05  1.006412  0.0  0.102297  0.102687  -4.5e-05  1.008833  0.0
H  H21  1  0.20479926  0.05093809  0.71157337  1  0.092735  7.4e-05  0.950404  0.0  0.104727  4.2e-05  1.00783  0.0  0.107587  3.4e-05  1.006422  0.0  0.102276  0.102652  4.5e-05  1.008849  0.0
H  H22  1  0.89400615  0.07851707  0.40319633  1  0.091284  8.1e-05  0.939125  0.0  0.104644  2.5e-05  0.993146  0.0  0.107504  2.7e-05  0.991946  0.0  0.10346  0.102825  1.6e-05  0.993801  0.0
H  H23  1  0.39400763  0.92148420  0.90319559  1  0.091284  -8.1e-05  0.939101  0.0  0.104666  -2.5e-05  0.993104  0.0  0.107525  -2.7e-05  0.991904  0.0  0.103468  0.102833  -1.6e-05  0.993776  0.0
H  H24  1  0.68776262  0.00862074  0.96377589  1  0.09068  0.000111  0.966866  0.0  0.100063  5.8e-05  1.031268  0.0  0.102643  4.2e-05  1.031025  0.0  0.099642  0.098149  6.7e-05  1.031629  0.0
H  H25  1  0.18776189  0.99138156  0.46377562  1  0.090701  -0.00011  0.966828  0.0  0.10004  -5.8e-05  1.031284  0.0  0.102619  -4.2e-05  1.031043  0.0  0.099625  0.098122  -6.7e-05  1.031644  0.0
C  C26  1  0.07653181  0.84233934  0.98683577  1  0.205548  0.000128  3.689134  0.001  0.1493  0.004162  3.96422  0.006  0.1646  0.003378  3.978322  0.005  0.139374  0.138739  0.004754  3.954454  0.006
C  C27  1  0.57653081  0.15766244  0.48683338  1  0.205479  -0.000111  3.689126  -0.001  0.149237  -0.004162  3.964201  -0.006  0.164534  -0.003378  3.978312  -0.005  0.139387  0.138676  -0.004755  3.954437  -0.006
C  C28  1  0.61113100  0.64261832  0.15564536  1  -0.017156  -0.000406  3.73493  0.0  -0.044931  0.002169  4.001055  0.003  -0.043083  0.001674  4.023469  0.003  -0.006393  -0.046728  0.002563  3.985959  0.004
C  C29  1  0.11112672  0.35738130  0.65564872  1  -0.017216  0.000436  3.734979  0.0  -0.044997  -0.002169  4.001084  -0.003  -0.04315  -0.001674  4.023499  -0.003  -0.0064  -0.04679  -0.002563  3.985981  -0.004
C  C30  1  0.03502520  0.66047845  0.85750366  1  -0.011387  -0.002064  3.72613  -0.003  -0.042005  0.001139  3.998725  0.001  -0.03967  0.000692  4.02118  0.001  -0.008292  -0.044071  0.001593  3.983887  0.002
C  C31  1  0.53501901  0.33952343  0.35750184  1  -0.011477  0.002055  3.726154  0.003  -0.042101  -0.00114  3.998761  -0.001  -0.039769  -0.000692  4.021225  -0.001  -0.008349  -0.044171  -0.001592  3.983916  -0.002
C  C32  1  0.95685880  0.76502832  0.77640810  1  -0.001018  0.004884  3.687402  0.006  -0.037257  0.002576  3.942938  0.003  -0.035895  0.001835  3.962407  0.003  0.002343  -0.038124  0.003271  3.930249  0.004
C  C33  1  0.45685496  0.23497147  0.27640478  1  -0.000986  -0.00487  3.68737  -0.006  -0.037255  -0.002576  3.942877  -0.003  -0.035892  -0.001835  3.962345  -0.003  0.002334  -0.038124  -0.003272  3.930184  -0.004
C  C34  1  0.49894772  0.48493634  0.00717464  1  0.217713  -0.00047  3.657986  -0.001  0.161232  0.003794  3.928526  0.005  0.177404  0.002949  3.941158  0.004  0.147242  0.150192  0.004607  3.919474  0.006
C  C35  1  0.99894637  0.51506320  0.50717744  1  0.217584  0.00045  3.657975  0.001  0.16111  -0.003795  3.928503  -0.005  0.177281  -0.002949  3.941137  -0.004  0.147172  0.150093  -0.004608  3.919467  -0.006
C  C36  1  0.73358104  0.59398662  0.09640123  1  -0.007414  0.00293  3.684034  0.004  -0.041688  0.001384  3.937154  0.002  -0.040038  0.000728  3.956039  0.001  0.002475  -0.042869  0.002119  3.924698  0.003
C  C37  1  0.23357952  0.40601262  0.59640708  1  -0.007528  -0.00296  3.684022  -0.004  -0.041838  -0.001384  3.937151  -0.002  -0.040187  -0.000727  3.956034  -0.001  0.002416  -0.042995  -0.00212  3.924708  -0.003
C  C38  1  0.97316651  0.24309551  0.12206587  1  -0.070423  0.001973  3.727734  0.003  -0.054364  0.000496  3.95585  0.001  -0.059536  1.2e-05  3.975495  0.0  -0.014689  -0.051326  0.000832  3.943329  0.001
C  C39  1  0.47316580  0.75690368  0.62206403  1  -0.070527  -0.001943  3.727698  -0.003  -0.054461  -0.000496  3.955841  -0.001  -0.059635  -1.2e-05  3.975487  0.0  -0.014701  -0.051423  -0.000832  3.943324  -0.001
C  C40  1  0.98209999  0.20890411  0.26156166  1  -0.066598  0.0011  3.715379  0.001  -0.089607  0.000891  3.963871  0.001  -0.089252  0.000767  3.982918  0.001  -0.08397  -0.089678  0.001057  3.951107  0.001
C  C41  1  0.48209946  0.79109683  0.76156283  1  -0.0665  -0.001131  3.715445  -0.001  -0.089503  -0.000892  3.963929  -0.001  -0.089148  -0.000768  3.982977  -0.001  -0.083911  -0.089565  -0.001057  3.951174  -0.001
C  C42  1  0.08437947  0.35139122  0.08888482  1  0.628989  -0.002333  3.931876  -0.006  0.583449  0.00209  4.237185  0.0  0.619858  0.001425  4.231416  0.0  0.198988  0.557451  0.002843  4.239924  0.001
C  C43  1  0.58437516  0.64860842  0.58888672  1  0.629026  0.002332  3.931714  0.006  0.583469  -0.00209  4.237042  0.0  0.619877  -0.001426  4.231282  0.0  0.199039  0.55747  -0.002843  4.239783  -0.001
C  C44  1  0.78104229  0.03078546  0.18713654  1  -0.060342  0.001104  3.771136  0.001  -0.077006  0.000844  4.025945  0.001  -0.077908  0.000743  4.046927  0.001  -0.089403  -0.076182  0.000925  4.011453  0.001
C  C45  1  0.28104280  0.96921581  0.68713550  1  -0.060346  -0.00113  3.771062  -0.002  -0.077002  -0.000843  4.025864  -0.001  -0.077903  -0.000743  4.046843  -0.001  -0.089367  -0.076171  -0.000925  4.011365  -0.001
C  C46  1  0.88694728  0.10320886  0.29416785  1  -0.0663  -0.001759  3.766786  -0.002  -0.083082  -0.001133  4.023589  -0.001  -0.085351  -0.000913  4.044536  -0.001  -0.091331  -0.081508  -0.001514  4.009028  -0.002
C  C47  1  0.38695235  0.89678759  0.79416893  1  -0.066338  0.001786  3.766869  0.002  -0.083149  0.001132  4.02369  0.001  -0.085417  0.000913  4.044636  0.001  -0.091395  -0.081562  0.001514  4.009132  0.002
C  C48  1  0.86564823  0.17038708  0.01436035  1  -0.077365  -0.001281  3.742908  -0.002  -0.062849  -0.000108  3.97479  0.0  -0.067604  0.0002  3.995157  0.0  -0.015509  -0.059738  -0.000391  3.961588  -0.001
C  C49  1  0.36564544  0.82961591  0.51435894  1  -0.0773  0.001257  3.743074  0.002  -0.062855  0.000109  3.974914  0.0  -0.067612  -0.000199  3.995284  0.0  -0.015529  -0.059741  0.00039  3.961712  0.001
C  C50  1  0.77089755  0.06420033  0.04790915  1  -0.096183  -0.001426  3.765249  -0.002  -0.118264  -0.001149  4.014784  -0.001  -0.120823  -0.000965  4.036696  -0.001  -0.091748  -0.116406  -0.00136  4.000005  -0.002
C  C51  1  0.27089787  0.93580220  0.54790815  1  -0.096121  0.001443  3.765297  0.002  -0.118163  0.001148  4.014848  0.001  -0.120722  0.000965  4.03676  0.001  -0.091697  -0.116302  0.00136  4.000061  0.002
C  C52  1  0.84108140  0.20778924  0.86319673  1  0.670295  0.002624  3.868807  0.005  0.617372  -0.001314  4.176054  0.0  0.654704  -0.000919  4.166365  0.0  0.221569  0.590686  -0.001754  4.182283  0.0
C  C53  1  0.34107451  0.79220988  0.36320069  1  0.670007  -0.002628  3.869145  -0.005  0.617284  0.001313  4.176101  0.0  0.654618  0.000919  4.16641  0.0  0.221558  0.590594  0.001754  4.182332  0.0
N  N54  1  0.98412447  0.87800713  0.85974976  1  -0.287433  0.001229  3.477895  0.002  -0.215806  0.001874  3.705792  0.003  -0.232666  0.001347  3.721706  0.002  -0.376436  -0.204615  0.002511  3.695327  0.004
N  N55  1  0.48412123  0.12199058  0.35974680  1  -0.287359  -0.00124  3.477859  -0.002  -0.215718  -0.001874  3.70574  -0.003  -0.232579  -0.001346  3.721657  -0.002  -0.376418  -0.204527  -0.002511  3.695273  -0.004
N  N56  1  0.46492671  0.57324952  0.09913294  1  -0.403663  0.04409  3.374917  0.062  -0.354482  0.032144  3.699184  0.035  -0.387296  0.02532  3.714687  0.026  -0.376462  -0.329669  0.038193  3.687921  0.043
N  N57  1  0.96492361  0.42674867  0.59913557  1  -0.403539  -0.044087  3.374952  -0.062  -0.354302  -0.032144  3.699157  -0.035  -0.387128  -0.02532  3.714677  -0.026  -0.376415  -0.329495  -0.038193  3.687896  -0.043
N  N58  1  0.10955311  0.71014887  0.98904965  1  -0.410273  0.04572  3.395063  0.066  -0.362862  0.033631  3.722243  0.039  -0.395016  0.026635  3.73675  0.029  -0.378792  -0.338886  0.039594  3.712236  0.047
N  N59  1  0.60955038  0.28985304  0.48904662  1  -0.410239  -0.045725  3.395091  -0.066  -0.3628  -0.03363  3.72225  -0.039  -0.39496  -0.026635  3.736765  -0.029  -0.378818  -0.33883  -0.039594  3.712244  -0.047
N  N60  1  0.66007473  0.49505769  0.00404228  1  -0.267772  0.002199  3.465055  0.003  -0.198591  0.002696  3.69614  0.004  -0.214067  0.002155  3.709689  0.003  -0.373595  -0.188471  0.003156  3.687352  0.005
N  N61  1  0.16007503  0.50494245  0.50404627  1  -0.267572  -0.002186  3.464939  -0.003  -0.19841  -0.002697  3.696021  -0.004  -0.213887  -0.002156  3.709572  -0.003  -0.373483  -0.188346  -0.003156  3.687296  -0.005
O  O62  1  0.14359885  0.34146578  0.98387514  1  -0.616411  0.004644  1.911779  0.008  -0.578673  0.006699  2.141129  0.01  -0.604737  0.004826  2.133405  0.007  -0.316029  -0.559262  0.008931  2.145805  0.014
O  O63  1  0.64358582  0.65853126  0.48386513  1  -0.61645  -0.004645  1.911537  -0.008  -0.578716  -0.0067  2.140923  -0.01  -0.604771  -0.004826  2.133175  -0.007  -0.316085  -0.559304  -0.008934  2.145599  -0.014
O  O64  1  0.11485358  0.45042280  0.17760730  1  -0.62495  0.06171  2.085552  0.101  -0.590582  0.044105  2.379654  0.066  -0.634809  0.032806  2.368699  0.048  -0.330493  -0.555041  0.055364  2.38492  0.083
O  O65  1  0.61485494  0.54957779  0.67760855  1  -0.624946  -0.061705  2.085615  -0.101  -0.590534  -0.044103  2.379725  -0.066  -0.634767  -0.032805  2.368776  -0.048  -0.330481  -0.555  -0.05536  2.384997  -0.083
O  O66  1  0.86731080  0.12464583  0.77493989  1  -0.593719  -0.001423  1.948749  -0.002  -0.551243  -0.003275  2.172471  -0.005  -0.575657  -0.002449  2.162251  -0.004  -0.301251  -0.533378  -0.004246  2.178735  -0.006
O  O67  1  0.36730941  0.87535561  0.27493669  1  -0.593649  0.001424  1.948827  0.002  -0.551258  0.003276  2.172457  0.005  -0.575668  0.00245  2.16223  0.004  -0.301255  -0.533388  0.004247  2.178716  0.006
O  O68  1  0.78148513  0.32716552  0.82984461  1  -0.620769  -0.045532  2.140865  -0.075  -0.568966  -0.034418  2.413809  -0.051  -0.609032  -0.026862  2.398695  -0.039  -0.31105  -0.538138  -0.041835  2.423683  -0.062
O  O69  1  0.28148131  0.67283343  0.32984743  1  -0.620632  0.045529  2.140949  0.075  -0.568907  0.034415  2.413795  0.051  -0.608963  0.02686  2.398675  0.039  -0.311057  -0.538062  0.041831  2.423656  0.062
