# generated using pymatgen
data_NbNiH8C8N4OF5
_symmetry_space_group_name_H-M   'P 1'
_cell_length_a   9.76986001
_cell_length_b   9.76984545
_cell_length_c   10.50076819
_cell_angle_alpha   117.72288454
_cell_angle_beta   117.72296707
_cell_angle_gamma   90.00024535
_symmetry_Int_Tables_number   1
_chemical_formula_structural   NbNiH8C8N4OF5
_chemical_formula_sum   'Nb2 Ni2 H16 C16 N8 O2 F10'
_cell_volume   754.84659952
_cell_formula_units_Z   2
loop_
 _symmetry_equiv_pos_site_id
 _symmetry_equiv_pos_as_xyz
  1  'x, y, z'
loop_
 _atom_site_type_symbol
 _atom_site_label
 _atom_site_symmetry_multiplicity
 _atom_site_fract_x
 _atom_site_fract_y
 _atom_site_fract_z
 _atom_site_occupancy
 _atom_site_pbe_bader_charge
 _atom_site_pbe_bader_spin_density
 _atom_site_pbe_cm5_charge
 _atom_site_pbe_ddec_charge
 _atom_site_pbe_ddec_spin_density
 _atom_site_pbe_ddec_sum_bond_order
 _atom_site_pbe_magmom
Nb  Nb0  1  0.00000143  0.00000264  0.00000262  1  2.764692  0.016819  1.503506  2.404682  0.022314  3.944108  0.024
Nb  Nb1  1  0.49999891  0.49999735  0.99999712  1  2.98447  0.00205  1.61842  2.397793  0.001481  3.875226  0.004
Ni  Ni2  1  0.23927319  0.23927325  0.47854827  1  1.171429  1.521583  0.678757  0.718109  1.736239  2.732476  1.504
Ni  Ni3  1  0.76072782  0.76072642  0.52145283  1  1.17145  1.521589  0.678792  0.71822  1.736243  2.732267  1.504
H  H4  1  0.04364995  0.36302005  0.26448151  1  0.217161  0.002786  0.127466  0.126752  0.001072  1.02068  0.002
H  H5  1  0.22083197  0.90145875  0.26448007  1  0.211892  0.002775  0.127468  0.126758  0.001072  1.02067  0.002
H  H6  1  0.90146048  0.04364913  0.26448073  1  0.195502  0.002799  0.127474  0.126765  0.001074  1.020652  0.002
H  H7  1  0.36301849  0.22083024  0.26447922  1  0.225615  0.002754  0.127474  0.126746  0.001074  1.020641  0.002
H  H8  1  0.28245522  0.12221949  0.72176325  1  0.141564  0.002871  0.120288  0.104415  0.001169  1.020018  0.002
H  H9  1  0.43930923  0.59954505  0.72176448  1  0.147436  0.002862  0.120296  0.104436  0.001169  1.019968  0.002
H  H10  1  0.12221715  0.43930763  0.72176216  1  0.129029  0.002907  0.120297  0.104421  0.001169  1.020002  0.002
H  H11  1  0.59954376  0.28245413  0.72176446  1  0.163246  0.002839  0.120302  0.104444  0.001169  1.019997  0.002
H  H12  1  0.95635010  0.63697963  0.73551865  1  0.217111  0.002787  0.127474  0.126754  0.001073  1.020641  0.002
H  H13  1  0.77916957  0.09854058  0.73552036  1  0.211897  0.002776  0.127486  0.126778  0.001073  1.020601  0.002
H  H14  1  0.09853957  0.95635055  0.73551942  1  0.195506  0.002799  0.127467  0.126732  0.001074  1.020662  0.002
H  H15  1  0.63698061  0.77916944  0.73551998  1  0.225628  0.002754  0.127462  0.126733  0.001074  1.020664  0.002
H  H16  1  0.71754388  0.87778019  0.27823596  1  0.14157  0.002872  0.120318  0.104473  0.00117  1.019912  0.002
H  H17  1  0.56069029  0.40045496  0.27823634  1  0.147475  0.002862  0.120308  0.104439  0.001169  1.019959  0.002
H  H18  1  0.87778195  0.56069206  0.27823705  1  0.129054  0.002908  0.120316  0.104461  0.00117  1.019936  0.002
H  H19  1  0.40045674  0.71754439  0.27823614  1  0.163208  0.00284  0.120314  0.10446  0.001169  1.01993  0.002
C  C20  1  0.02600228  0.42631197  0.37086414  1  0.446809  -0.000425  0.067818  0.065491  -0.002499  3.839989  0.0
C  C21  1  0.34486158  0.94454980  0.37086236  1  0.467685  -0.000482  0.067823  0.065487  -0.002499  3.839956  0.0
C  C22  1  0.94455095  0.02600068  0.37086349  1  0.497709  -0.000494  0.067811  0.065469  -0.002492  3.839986  0.0
C  C23  1  0.42631185  0.34486314  0.37086445  1  0.452525  -0.000442  0.067822  0.065505  -0.002491  3.83998  0.0
C  C24  1  0.15590839  0.06760600  0.62203454  1  0.475338  0.001264  0.058266  0.044473  8.9e-05  3.889605  0.002
C  C25  1  0.46612690  0.55442881  0.62203302  1  0.484173  0.001204  0.058258  0.044462  9e-05  3.889608  0.002
C  C26  1  0.06760420  0.46612716  0.62203345  1  0.513491  0.001211  0.058257  0.044475  8.7e-05  3.889636  0.002
C  C27  1  0.55442850  0.15590486  0.62203395  1  0.470397  0.001244  0.058251  0.044459  8.8e-05  3.889665  0.002
C  C28  1  0.97399833  0.57368588  0.62913417  1  0.44756  -0.000426  0.067811  0.065475  -0.002499  3.839965  0.0
C  C29  1  0.65513458  0.05544908  0.62913512  1  0.467694  -0.000481  0.067807  0.065462  -0.002499  3.839966  0.0
C  C30  1  0.05544919  0.97399982  0.62913555  1  0.497658  -0.000492  0.067843  0.065552  -0.002492  3.83993  0.0
C  C31  1  0.57368768  0.65513688  0.62913637  1  0.452517  -0.000441  0.067827  0.065507  -0.002491  3.839991  0.0
C  C32  1  0.84409565  0.93239530  0.37796716  1  0.475395  0.001265  0.058238  0.044425  9e-05  3.889591  0.002
C  C33  1  0.53387114  0.44557155  0.37796753  1  0.484164  0.001204  0.058261  0.044481  9e-05  3.889604  0.002
C  C34  1  0.93239621  0.53387053  0.37796826  1  0.514223  0.00121  0.058251  0.044439  8.8e-05  3.889612  0.002
C  C35  1  0.44557208  0.84409448  0.37796553  1  0.470436  0.001244  0.058241  0.044444  8.8e-05  3.889584  0.002
N  N36  1  0.09416574  0.39320453  0.49417278  1  -1.205849  0.066027  -0.306955  -0.182963  0.03853  3.578423  0.059
N  N37  1  0.40000719  0.10096701  0.49417402  1  -1.211507  0.066153  -0.306958  -0.182959  0.038529  3.578415  0.059
N  N38  1  0.10096691  0.09416736  0.49417184  1  -1.207862  0.066095  -0.306961  -0.182951  0.038534  3.57846  0.059
N  N39  1  0.39320566  0.40000617  0.49417339  1  -1.207312  0.06617  -0.306983  -0.182999  0.038532  3.578463  0.059
N  N40  1  0.90583529  0.60679365  0.50582715  1  -1.205903  0.066024  -0.306942  -0.182912  0.038528  3.578415  0.059
N  N41  1  0.59999283  0.89903416  0.50582730  1  -1.211544  0.066151  -0.306963  -0.182978  0.038528  3.578441  0.059
N  N42  1  0.89903281  0.90583282  0.50582558  1  -1.207959  0.066091  -0.306961  -0.182979  0.038532  3.578442  0.059
N  N43  1  0.60679335  0.59999269  0.50582693  1  -1.207347  0.066169  -0.306959  -0.182969  0.038531  3.578441  0.059
O  O44  1  0.11909752  0.11909856  0.23819621  1  -1.041669  0.153823  -0.645863  -0.98793  0.085148  2.105358  0.14
O  O45  1  0.88090641  0.88090340  0.76180779  1  -1.041646  0.153824  -0.645865  -0.987993  0.085149  2.105478  0.14
F  F46  1  0.37781543  0.37781797  0.75563670  1  -0.695363  0.026574  -0.329506  -0.546493  0.015841  1.280361  0.02
F  F47  1  0.62218173  0.62217792  0.24435938  1  -0.695313  0.026573  -0.329456  -0.546516  0.01584  1.280346  0.02
F  F48  1  0.97521629  0.20225460  0.99999935  1  -0.722554  -0.000498  -0.411989  -0.597476  -0.000815  0.886027  0.0
F  F49  1  0.02478275  0.79774806  0.00000220  1  -0.722737  -0.000498  -0.411975  -0.597457  -0.000815  0.886033  0.0
F  F50  1  0.79774523  0.97521934  0.99999932  1  -0.722619  -0.0005  -0.411967  -0.597458  -0.000817  0.886026  0.0
F  F51  1  0.20225629  0.02478679  0.00000469  1  -0.722572  -0.0005  -0.411988  -0.597473  -0.000817  0.886021  0.0
F  F52  1  0.48897958  0.30511794  0.99999858  1  -0.635556  -0.000268  -0.353995  -0.511372  -0.00048  0.930432  0.0
F  F53  1  0.51102101  0.69488140  0.00000090  1  -0.635553  -0.000268  -0.353988  -0.511362  -0.00048  0.930417  0.0
F  F54  1  0.30512059  0.51102159  0.00000366  1  -0.635914  -0.000269  -0.353996  -0.511368  -0.000481  0.930413  0.0
F  F55  1  0.69487904  0.48897776  0.99999487  1  -0.635931  -0.000269  -0.354003  -0.511371  -0.000481  0.930411  0.0
