# generated using pymatgen
data_Zn2H33C41N2O11
_symmetry_space_group_name_H-M   'P 1'
_cell_length_a   10.94810153
_cell_length_b   13.99820376
_cell_length_c   26.50482841
_cell_angle_alpha   90.80215759
_cell_angle_beta   87.98317142
_cell_angle_gamma   90.91369031
_symmetry_Int_Tables_number   1
_chemical_formula_structural   Zn2H33C41N2O11
_chemical_formula_sum   'Zn4 H66 C82 N4 O22'
_cell_volume   4058.56501962
_cell_formula_units_Z   2
loop_
 _symmetry_equiv_pos_site_id
 _symmetry_equiv_pos_as_xyz
  1  'x, y, z'
loop_
 _atom_site_type_symbol
 _atom_site_label
 _atom_site_symmetry_multiplicity
 _atom_site_fract_x
 _atom_site_fract_y
 _atom_site_fract_z
 _atom_site_occupancy
 _atom_site_pbe_bader_charge
 _atom_site_pbe_bader_spin_density
 _atom_site_pbe_cm5_charge
 _atom_site_pbe_ddec_charge
 _atom_site_pbe_ddec_spin_density
 _atom_site_pbe_ddec_sum_bond_order
 _atom_site_pbe_magmom
Zn  Zn0  1  0.52974686  0.39401520  0.50036428  1  1.272777  0  0.676197  0.827419  0  2.384945  0
Zn  Zn1  1  0.53569381  0.59772966  0.49874016  1  1.280274  0  0.676494  0.824761  0  2.414319  0
Zn  Zn2  1  0.47466824  0.61239082  0.08228831  1  1.278312  0  0.670263  0.823056  0  2.388587  0
Zn  Zn3  1  0.46578991  0.40915903  0.08752351  1  1.279045  0  0.674743  0.822854  0  2.402308  0
H  H4  1  0.72295283  0.06068438  0.46999008  1  0.125264  0  0.118605  0.144845  0  0.977608  0
H  H5  1  0.45849945  0.93393549  0.57653488  1  0.085059  0  0.119753  0.146374  0  0.975973  0
H  H6  1  0.60549704  0.74414755  0.42995470  1  0.121145  0  0.127784  0.106712  0  0.97942  0
H  H7  1  0.61166679  0.92259475  0.42363260  1  0.064376  0  0.111476  0.12265  0  0.995728  0
H  H8  1  0.36348998  0.24387225  0.52706545  1  0.143284  0  0.127187  0.106966  0  0.982379  0
H  H9  1  0.34882321  0.06533541  0.52877979  1  0.093124  0  0.113431  0.1257  0  0.992009  0
H  H10  1  0.63744311  0.39320658  0.18932421  1  0.070075  0  0.096827  0.109506  0  1.049886  0
H  H11  1  0.64618446  0.35481468  0.37467982  1  0.094265  0  0.095929  0.107416  0  1.04434  0
H  H12  1  0.57575305  0.35614642  0.75729996  1  0.079223  0  0.109039  0.127664  0  0.993911  0
H  H13  1  0.49776564  0.65271824  0.82373136  1  0.071672  0  0.108856  0.126914  0  0.996593  0
H  H14  1  0.46476618  0.35298832  0.92122638  1  0.084764  0  0.105289  0.103872  0  1.021494  0
H  H15  1  0.46428264  0.34445040  0.82858024  1  0.07097  0  0.101493  0.104921  0  1.008978  0
H  H16  1  0.43421678  0.63370026  0.66205233  1  0.083229  0  0.103608  0.099238  0  1.03067  0
H  H17  1  0.40516362  0.63285193  0.75436572  1  0.077391  0  0.102071  0.106326  0  1.010483  0
H  H18  1  0.79712962  0.57489138  0.58390147  1  0.080447  0  0.095441  0.10929  0  1.038233  0
H  H19  1  0.24967473  0.58509664  0.58610273  1  0.084425  0  0.094543  0.104676  0  1.03543  0
H  H20  1  0.57110737  0.94671523  0.15948029  1  0.101819  0  0.116557  0.140787  0  0.983832  0
H  H21  1  0.51250536  0.07281558  0.00550745  1  0.100134  0  0.118992  0.144362  0  0.97894  0
H  H22  1  0.45355971  0.26340848  0.16120859  1  0.133741  0  0.12598  0.103635  0  0.98971  0
H  H23  1  0.45609593  0.08596829  0.16819671  1  0.051579  0  0.11111  0.121071  0  1.00067  0
H  H24  1  0.38359018  0.76233669  0.02281469  1  0.136799  0  0.128075  0.101816  0  0.974985  0
H  H25  1  0.38647654  0.93946138  0.01741505  1  0.089017  0  0.113692  0.125633  0  0.995859  0
H  H26  1  0.73900688  0.40787918  0.00901196  1  0.021144  0  0.093542  0.104596  0  1.042277  0
H  H27  1  0.19203267  0.41170794  0.99779717  1  0.063434  0  0.094595  0.107692  0  1.030558  0
H  H28  1  0.74358426  0.31497356  0.47656783  1  0.682397  0  0.30868  0.366992  0  0.976993  0
H  H29  1  0.47661992  0.68090779  0.58573671  1  0.646709  0  0.307569  0.361918  0  0.988704  0
H  H30  1  0.60212663  0.35015103  0.62442500  1  0.649492  0  0.303603  0.354745  0  0.966834  0
H  H31  1  0.48499294  0.66741567  0.95607008  1  0.636108  0  0.300415  0.343854  0  0.993251  0
H  H32  1  0.54186317  0.69481677  0.16929250  1  0.687209  0  0.310494  0.370276  0  0.969272  0
H  H33  1  0.50381176  0.32643614  0.99825749  1  0.656854  0  0.306461  0.360205  0  0.992503  0
H  H34  1  0.24800168  0.62689095  0.34885895  1  0.03449  0  0.090297  0.121477  0  1.003984  0
H  H35  1  0.34411327  0.61013423  0.40033890  1  0.076613  0  0.092048  0.140654  0  1.02697  0
H  H36  1  0.37298764  0.70534114  0.35803066  1  0.03829  0  0.090686  0.123625  0  0.993697  0
H  H37  1  0.35537389  0.71984993  0.26857612  1  0.06234  0  0.092624  0.127796  0  0.991349  0
H  H38  1  0.33538489  0.65231599  0.21247318  1  0.072007  0  0.091463  0.131573  0  1.037853  0
H  H39  1  0.23503961  0.63490220  0.26564651  1  0.030075  0  0.092805  0.126445  0  0.999451  0
H  H40  1  0.77239281  0.18159671  0.21765680  1  0.014536  0  0.087032  0.114821  0  1.006685  0
H  H41  1  0.78349900  0.27895999  0.17505938  1  0.021182  0  0.095391  0.137182  0  0.992446  0
H  H42  1  0.89078507  0.26756262  0.22338068  1  0.028602  0  0.09255  0.125672  0  0.992452  0
H  H43  1  0.88902260  0.24081548  0.31635816  1  0.043936  0  0.090727  0.12207  0  0.996265  0
H  H44  1  0.77763344  0.22716062  0.36636947  1  0.026904  0  0.087526  0.123792  0  1.026729  0
H  H45  1  0.76767074  0.15767836  0.30985228  1  0.004503  0  0.088075  0.117983  0  1.000425  0
H  H46  1  0.17809158  0.44073518  0.38597293  1  0.035618  0  0.092089  0.126661  0  0.997718  0
H  H47  1  0.27543571  0.39138029  0.43024276  1  0.072263  0  0.090338  0.138715  0  1.03934  0
H  H48  1  0.14124162  0.32865164  0.41255619  1  0.001743  0  0.092031  0.12656  0  0.992087  0
H  H49  1  0.91828563  0.33908392  0.40946508  1  0.025568  0  0.093519  0.130213  0  1.005999  0
H  H50  1  0.82748063  0.44237420  0.40725431  1  0.057307  0  0.091254  0.133127  0  1.022318  0
H  H51  1  0.97569357  0.44160681  0.37833370  1  0.033628  0  0.092784  0.126861  0  1.000178  0
H  H52  1  0.89035200  0.74027616  0.66998870  1  0.005333  0  0.091022  0.120699  0  0.998515  0
H  H53  1  0.77905475  0.64779882  0.66219349  1  0.052404  0  0.090156  0.127014  0  1.003988  0
H  H54  1  0.90135246  0.63309448  0.70369146  1  0.009256  0  0.093251  0.126548  0  0.992895  0
H  H55  1  0.13437077  0.63933850  0.70256504  1  0.028319  0  0.092644  0.125288  0  0.99171  0
H  H56  1  0.24442088  0.68521675  0.65787578  1  0.002503  0  0.087842  0.123268  0  1.024768  0
H  H57  1  0.10893203  0.74918028  0.67295593  1  0.044728  0  0.091019  0.122167  0  0.998996  0
H  H58  1  0.06676792  0.56359910  0.20224922  1  0.017886  0  0.089567  0.11921  0  1.006107  0
H  H59  1  0.20067361  0.58086786  0.16352025  1  0.033426  0  0.089664  0.131186  0  1.039954  0
H  H60  1  0.08950263  0.67097177  0.16875846  1  0.009988  0  0.092805  0.127184  0  0.986732  0
H  H61  1  0.86521011  0.67368595  0.17214437  1  0.041474  0  0.092597  0.127839  0  0.988718  0
H  H62  1  0.74099875  0.59214448  0.16641910  1  0.036291  0  0.088726  0.128567  0  1.03171  0
H  H63  1  0.86471676  0.56414207  0.20456174  1  0.032508  0  0.091164  0.12339  0  0.999384  0
H  H64  1  0.85062164  0.23099249  0.92700250  1  0.045494  0  0.089648  0.120113  0  0.997393  0
H  H65  1  0.72665551  0.30978024  0.93817249  1  0.011601  0  0.087502  0.125918  0  1.017774  0
H  H66  1  0.84081830  0.33501623  0.89057181  1  0.050466  0  0.09092  0.122158  0  0.99694  0
H  H67  1  0.06580093  0.33766242  0.88402100  1  0.058121  0  0.091519  0.122974  0  0.996698  0
H  H68  1  0.19417616  0.32526199  0.92258993  1  0.021584  0  0.088735  0.12378  0  1.010174  0
H  H69  1  0.07725914  0.23548017  0.92169527  1  -0.004633  0  0.089787  0.119499  0  0.99747  0
C  C70  1  0.53226619  0.49691372  0.60114538  1  1.462868  0  0.22036  0.612276  0  4.140214  0
C  C71  1  0.29852198  0.49096910  0.50615446  1  1.586263  0  0.223232  0.616705  0  4.161531  0
C  C72  1  0.51596822  0.49708078  0.40260326  1  1.566467  0  0.221868  0.612489  0  4.152807  0
C  C73  1  0.77186567  0.49869726  0.49627122  1  1.545094  0  0.233146  0.634288  0  4.102277  0
C  C74  1  0.48226970  0.51186960  0.98136882  1  1.456488  0  0.224604  0.618792  0  4.118691  0
C  C75  1  0.23575180  0.50522047  0.08044829  1  1.519838  0  0.223851  0.620121  0  4.132226  0
C  C76  1  0.46719936  0.51283672  0.18572313  1  1.570932  0  0.23016  0.627466  0  4.122515  0
C  C77  1  0.70519204  0.51034581  0.08662315  1  1.543816  0  0.22231  0.616751  0  4.158526  0
C  C78  1  0.64289773  0.19819310  0.48426238  1  1.150507  0  0.223381  0.489927  0  4.065279  0
C  C79  1  0.64027224  0.09764391  0.48246552  1  -0.062223  0  -0.091572  -0.290346  0  3.889798  0
C  C80  1  0.49515099  0.79512221  0.54411373  1  1.108516  0  0.225302  0.494823  0  4.058321  0
C  C81  1  0.49095701  0.89542732  0.54283579  1  0.05432  0  -0.089296  -0.287353  0  3.882666  0
C  C82  1  0.57567446  0.79004720  0.46147616  1  0.471341  0  0.051721  0.12315  0  3.956522  0
C  C83  1  0.57838227  0.88842356  0.45821426  1  0.000977  0  -0.098369  -0.2203  0  3.994593  0
C  C84  1  0.44077226  0.19950052  0.51537447  1  0.476066  0  0.050154  0.121416  0  3.958295  0
C  C85  1  0.43327812  0.10099951  0.51616068  1  -0.033611  0  -0.097285  -0.21818  0  3.990504  0
C  C86  1  0.53572113  0.04834744  0.49905850  1  0.040495  0  0.014589  0.130172  0  4.02049  0
C  C87  1  0.53401860  0.94281149  0.49991950  1  -0.092332  0  0.014179  0.129852  0  4.018334  0
C  C88  1  0.48089372  0.51261139  0.24174187  1  -0.083075  0  -0.020071  -0.151184  0  3.930535  0
C  C89  1  0.56064480  0.44334186  0.26144309  1  -0.023957  0  -0.008731  0.060435  0  4.019743  0
C  C90  1  0.41389325  0.57407358  0.27343646  1  0.039536  0  -0.007338  0.095484  0  3.924933  0
C  C91  1  0.63707256  0.38463784  0.23013215  1  -0.058461  0  -0.103741  -0.209532  0  3.967896  0
C  C92  1  0.71314795  0.31737269  0.24945958  1  -0.010396  0  -0.015655  0.109191  0  3.970413  0
C  C93  1  0.49883086  0.49910271  0.34672613  1  -0.046447  0  -0.01461  -0.129911  0  3.917596  0
C  C94  1  0.42215928  0.56641220  0.32698710  1  0.067234  0  -0.007957  0.088069  0  3.9272  0
C  C95  1  0.56774051  0.43506347  0.31492229  1  0.019689  0  -0.009454  0.056862  0  4.018705  0
C  C96  1  0.64437507  0.36408793  0.33401337  1  -0.081868  0  -0.102407  -0.202693  0  3.964017  0
C  C97  1  0.71435359  0.30498914  0.30290241  1  -0.014206  0  -0.016187  0.109327  0  3.967289  0
C  C98  1  0.51737214  0.49543770  0.65645284  1  0.052089  0  -0.043902  -0.207952  0  4.007383  0
C  C99  1  0.47926268  0.50681104  0.92583971  1  0.071753  0  -0.042256  -0.205434  0  3.992872  0
C  C100  1  0.55410858  0.41528270  0.68424249  1  0.5625  0  0.095618  0.330892  0  4.055289  0
C  C101  1  0.54165043  0.41698140  0.73711332  1  -0.075319  0  -0.101459  -0.254981  0  3.912965  0
C  C102  1  0.48462255  0.59195709  0.89711180  1  0.445152  0  0.094575  0.331498  0  4.056657  0
C  C103  1  0.48797912  0.58605421  0.84430675  1  -0.004933  0  -0.101939  -0.253275  0  3.919474  0
C  C104  1  0.47220841  0.41870445  0.89972740  1  0.002829  0  -0.084865  -0.061458  0  4.026894  0
C  C105  1  0.47295177  0.41369417  0.84750088  1  -0.058329  0  -0.105043  -0.169551  0  4.008418  0
C  C106  1  0.46488675  0.57295668  0.68313721  1  -0.111286  0  -0.085955  -0.059629  0  4.033648  0
C  C107  1  0.44997802  0.57304547  0.73510801  1  0.023947  0  -0.105421  -0.172362  0  4.013375  0
C  C108  1  0.49070141  0.49515103  0.76308672  1  -0.009476  0  0.00294  0.104267  0  4.009313  0
C  C109  1  0.48289362  0.49807553  0.81887938  1  0.027867  0  0.001464  0.101855  0  4.01189  0
C  C110  1  0.90741532  0.49512733  0.49878298  1  -0.054857  0  -0.023047  -0.161342  0  3.942308  0
C  C111  1  0.96336246  0.53621814  0.54223237  1  0.009682  0  -0.007115  0.066781  0  4.013435  0
C  C112  1  0.97657950  0.45361856  0.45941099  1  0.001909  0  -0.006032  0.098928  0  3.930213  0
C  C113  1  0.89650028  0.57653992  0.58392558  1  -0.043171  0  -0.103105  -0.202778  0  3.963994  0
C  C114  1  0.95271617  0.62006038  0.62425824  1  0.061632  0  -0.013198  0.112082  0  3.966987  0
C  C115  1  0.16174416  0.49000102  0.50433525  1  -0.041172  0  -0.012016  -0.121937  0  3.926506  0
C  C116  1  0.10618114  0.44815466  0.46307104  1  0.029093  0  -0.010738  0.083874  0  3.935363  0
C  C117  1  0.09362759  0.53634054  0.54409045  1  -0.002426  0  -0.009817  0.053636  0  4.027044  0
C  C118  1  0.15008281  0.58248432  0.58544686  1  -0.077597  0  -0.100548  -0.198874  0  3.957455  0
C  C119  1  0.08323962  0.62548147  0.62445273  1  -0.077734  0  -0.013373  0.112143  0  3.964783  0
C  C120  1  0.52164516  0.80913164  0.12890514  1  1.104936  0  0.224369  0.490929  0  4.059397  0
C  C121  1  0.52821337  0.90964668  0.12818823  1  0.032421  0  -0.090065  -0.287507  0  3.884994  0
C  C122  1  0.49506697  0.21147395  0.04038780  1  1.066719  0  0.225093  0.493619  0  4.060042  0
C  C123  1  0.49788191  0.11110677  0.04117816  1  0.147745  0  -0.089207  -0.285683  0  3.883075  0
C  C124  1  0.46651258  0.21744653  0.12792662  1  0.480731  0  0.052313  0.125647  0  3.945578  0
C  C125  1  0.46919080  0.11923461  0.13150978  1  -0.057323  0  -0.097127  -0.216496  0  3.989364  0
C  C126  1  0.42534291  0.80653424  0.05190011  1  0.398371  0  0.049968  0.123156  0  3.9632  0
C  C127  1  0.42784398  0.90481927  0.04893839  1  -0.001534  0  -0.096014  -0.216229  0  3.987605  0
C  C128  1  0.48126921  0.95849972  0.08809368  1  -0.008144  0  0.014299  0.130574  0  4.014578  0
C  C129  1  0.48378993  0.06394390  0.08685893  1  -0.048133  0  0.013183  0.127107  0  4.017725  0
C  C130  1  0.84221916  0.50681896  0.08599459  1  -0.027079  0  -0.015509  -0.129204  0  3.930431  0
C  C131  1  0.90317432  0.45815490  0.04503387  1  0.046763  0  -0.009148  0.05636  0  4.023695  0
C  C132  1  0.90595324  0.55057721  0.12449282  1  -0.011266  0  -0.010013  0.086858  0  3.937605  0
C  C133  1  0.83866684  0.40918996  0.00673892  1  0.004626  0  -0.103126  -0.201614  0  3.962859  0
C  C134  1  0.89751738  0.36124594  0.96724863  1  -0.009767  0  -0.015072  0.111055  0  3.968488  0
C  C135  1  0.09854330  0.50585773  0.08189304  1  0.010311  0  -0.017636  -0.138955  0  3.913052  0
C  C136  1  0.03656510  0.54947839  0.12259292  1  0.047673  0  -0.006311  0.095493  0  3.928098  0
C  C137  1  0.03394413  0.45839539  0.04250474  1  0.000225  0  -0.008564  0.059448  0  4.015604  0
C  C138  1  0.09253029  0.41160352  0.00060106  1  -0.079377  0  -0.101982  -0.200868  0  3.965501  0
C  C139  1  0.02819973  0.36359089  0.96382393  1  -0.032221  0  -0.015328  0.108249  0  3.96748  0
C  C140  1  0.34342628  0.62991270  0.36058285  1  -0.088696  0  -0.241051  -0.403087  0  3.97618  0
C  C141  1  0.33088561  0.64858839  0.25361373  1  -0.105007  0  -0.241625  -0.405232  0  3.974409  0
C  C142  1  0.79376860  0.25848973  0.21446780  1  -0.024984  0  -0.236293  -0.399537  0  3.98899  0
C  C143  1  0.79090844  0.22898185  0.32515927  1  -0.039677  0  -0.238042  -0.399018  0  3.99045  0
C  C144  1  0.17955951  0.39991010  0.42116938  1  -0.037371  0  -0.241688  -0.402334  0  3.963375  0
C  C145  1  0.92078331  0.41771678  0.41142912  1  -0.061846  0  -0.242475  -0.408019  0  3.971809  0
C  C146  1  0.87675939  0.66227641  0.66713226  1  -0.02609  0  -0.235393  -0.396355  0  3.98851  0
C  C147  1  0.14619474  0.67727913  0.66653339  1  -0.023455  0  -0.236832  -0.397438  0  3.983651  0
C  C148  1  0.10251617  0.59314591  0.16633116  1  -0.008829  0  -0.242007  -0.401872  0  3.99092  0
C  C149  1  0.84042032  0.59737566  0.16895442  1  -0.049509  0  -0.238956  -0.394042  0  3.970543  0
C  C150  1  0.82496465  0.30677409  0.92885643  1  -0.0616  0  -0.237351  -0.396231  0  3.986539  0
C  C151  1  0.09511208  0.31316340  0.92091582  1  -0.031857  0  -0.23634  -0.395275  0  3.990693  0
N  N152  1  0.54327201  0.24806836  0.49995064  1  -1.263218  0  -0.343082  -0.347513  0  3.468127  0
N  N153  1  0.53511476  0.74359806  0.50348573  1  -1.246161  0  -0.341055  -0.339509  0  3.469379  0
N  N154  1  0.47244340  0.75849763  0.09056042  1  -1.249798  0  -0.341192  -0.343874  0  3.465889  0
N  N155  1  0.47821552  0.26343438  0.08332580  1  -1.249879  0  -0.340497  -0.336931  0  3.465715  0
O  O156  1  0.56920808  0.42096807  0.57783484  1  -1.169299  0  -0.304263  -0.544661  0  2.319478  0
O  O157  1  0.50821812  0.57325022  0.57730307  1  -1.20005  0  -0.310371  -0.567008  0  2.424524  0
O  O158  1  0.35233340  0.56888438  0.49408740  1  -1.160215  0  -0.307994  -0.539534  0  2.328974  0
O  O159  1  0.35063812  0.41456316  0.51906264  1  -1.162642  0  -0.314436  -0.545206  0  2.309863  0
O  O160  1  0.55502257  0.57443310  0.42279911  1  -1.165397  0  -0.315349  -0.545354  0  2.321294  0
O  O161  1  0.49253386  0.41950196  0.42587146  1  -1.169774  0  -0.311085  -0.549971  0  2.339607  0
O  O162  1  0.71329025  0.42053180  0.48556498  1  -1.189897  0  -0.310984  -0.570316  0  2.444191  0
O  O163  1  0.71888583  0.57686511  0.50544394  1  -1.154905  0  -0.299394  -0.518993  0  2.332896  0
O  O164  1  0.47365068  0.59472969  0.00275224  1  -1.161725  0  -0.30233  -0.53651  0  2.338567  0
O  O165  1  0.49429690  0.43569129  0.00695055  1  -1.201091  0  -0.307882  -0.567374  0  2.400651  0
O  O166  1  0.28681473  0.42416160  0.07672937  1  -1.151085  0  -0.313729  -0.533128  0  2.33226  0
O  O167  1  0.29241658  0.58550848  0.08359704  1  -1.167756  0  -0.316911  -0.550734  0  2.333968  0
O  O168  1  0.43361846  0.43562927  0.16461687  1  -1.164799  0  -0.301874  -0.527745  0  2.303923  0
O  O169  1  0.49084231  0.59022361  0.16131329  1  -1.195035  0  -0.307439  -0.578463  0  2.418692  0
O  O170  1  0.65741363  0.58953635  0.07622994  1  -1.152212  0  -0.312719  -0.531046  0  2.303253  0
O  O171  1  0.64647946  0.43323146  0.09712468  1  -1.163648  0  -0.313916  -0.55166  0  2.346537  0
O  O172  1  0.74644905  0.24266776  0.47030496  1  -1.196206  0  -0.33682  -0.469431  0  2.285514  0
O  O173  1  0.45952738  0.75208500  0.58668050  1  -1.166799  0  -0.340194  -0.47066  0  2.27906  0
O  O174  1  0.60311618  0.33729704  0.66160347  1  -1.159977  0  -0.360296  -0.449094  0  2.237773  0
O  O175  1  0.48910598  0.67966669  0.91872502  1  -1.143115  0  -0.364241  -0.454006  0  2.248721  0
O  O176  1  0.56484062  0.76544069  0.16860901  1  -1.198827  0  -0.339701  -0.4653  0  2.25769  0
O  O177  1  0.50910485  0.25383058  0.99592048  1  -1.181186  0  -0.339864  -0.47473  0  2.294796  0
