# generated using pymatgen
data_CdH11C14N5O6
_symmetry_space_group_name_H-M   'P 1'
_cell_length_a   9.73747629
_cell_length_b   11.98968859
_cell_length_c   14.76388943
_cell_angle_alpha   97.76817075
_cell_angle_beta   90.00003121
_cell_angle_gamma   89.99997743
_symmetry_Int_Tables_number   1
_chemical_formula_structural   CdH11C14N5O6
_chemical_formula_sum   'Cd4 H44 C56 N20 O24'
_cell_volume   1707.85586313
_cell_formula_units_Z   4
loop_
 _symmetry_equiv_pos_site_id
 _symmetry_equiv_pos_as_xyz
  1  'x, y, z'
loop_
 _atom_site_type_symbol
 _atom_site_label
 _atom_site_symmetry_multiplicity
 _atom_site_fract_x
 _atom_site_fract_y
 _atom_site_fract_z
 _atom_site_occupancy
 _atom_site_hle17_bader_spin_density
 _atom_site_hle17_ddec_charge
 _atom_site_hle17_ddec_spin_density
 _atom_site_hle17_ddec_sum_bond_order
 _atom_site_hle17_magmom
 _atom_site_hse06_10hf_bader_spin_density
 _atom_site_hse06_10hf_ddec_charge
 _atom_site_hse06_10hf_ddec_spin_density
 _atom_site_hse06_10hf_ddec_sum_bond_order
 _atom_site_hse06_10hf_magmom
 _atom_site_hse06_bader_spin_density
 _atom_site_hse06_ddec_charge
 _atom_site_hse06_ddec_spin_density
 _atom_site_hse06_ddec_sum_bond_order
 _atom_site_hse06_magmom
 _atom_site_pbe_bader_spin_density
 _atom_site_pbe_cm5_charge
 _atom_site_pbe_ddec_charge
 _atom_site_pbe_ddec_spin_density
 _atom_site_pbe_ddec_sum_bond_order
 _atom_site_pbe_magmom
Cd  Cd0  1  0.40003102  0.44201001  0.88888294  1  0  1.134063  0  1.6718  0  0  0.936456  0  2.113972  0  0  0.993811  0  2.064548  0  0  0.784673  0.895277  0  2.148106  0
Cd  Cd1  1  0.90003106  0.55799030  0.61111672  1  0  1.134056  0  1.6718  0  0  0.936456  0  2.113956  0  0  0.993812  0  2.064532  0  0  0.784667  0.895279  0  2.148087  0
Cd  Cd2  1  0.59996851  0.55798985  0.11111660  1  0  1.134056  0  1.67181  0  0  0.936447  0  2.113978  0  0  0.993803  0  2.064553  0  0  0.78466  0.895268  0  2.148112  0
Cd  Cd3  1  0.09996846  0.44200956  0.38888282  1  0  1.134048  0  1.671792  0  0  0.93644  0  2.113967  0  0  0.993797  0  2.064543  0  0  0.784666  0.895261  0  2.148101  0
H  H4  1  0.05420105  0.18346752  0.46302854  1  0  0.119127  0  0.964879  0  0  0.123516  0  1.036755  0  0  0.127467  0  1.033476  0  0  0.114587  0.120616  0  1.039199  0
H  H5  1  0.55420091  0.81653191  0.03697087  1  0  0.11919  0  0.96475  0  0  0.123526  0  1.036687  0  0  0.127503  0  1.033379  0  0  0.114594  0.120626  0  1.039131  0
H  H6  1  0.94579848  0.81653234  0.53697100  1  0  0.119139  0  0.964858  0  0  0.123523  0  1.036735  0  0  0.127474  0  1.033457  0  0  0.114591  0.120624  0  1.039179  0
H  H7  1  0.44579862  0.18346796  0.96302868  1  0  0.119111  0  0.964852  0  0  0.123497  0  1.036729  0  0  0.127448  0  1.03345  0  0  0.114577  0.120598  0  1.039174  0
H  H8  1  0.31508370  0.94360229  0.57153688  1  0  0.115919  0  0.945479  0  0  0.123064  0  1.007186  0  0  0.127082  0  1.004191  0  0  0.11488  0.120168  0  1.009271  0
H  H9  1  0.81508734  0.05639719  0.92846537  1  0  0.115959  0  0.94544  0  0  0.123093  0  1.007157  0  0  0.127111  0  1.004163  0  0  0.114887  0.120197  0  1.009242  0
H  H10  1  0.68491582  0.05639841  0.42846344  1  0  0.115926  0  0.94548  0  0  0.123074  0  1.007185  0  0  0.127092  0  1.004191  0  0  0.114883  0.120178  0  1.009269  0
H  H11  1  0.18491630  0.94360182  0.07153611  1  0  0.11593  0  0.945462  0  0  0.12307  0  1.007174  0  0  0.127089  0  1.004178  0  0  0.114876  0.120174  0  1.009258  0
H  H12  1  0.35538188  0.08340538  0.71202769  1  0  0.112596  0  0.946704  0  0  0.119102  0  1.010331  0  0  0.122664  0  1.008782  0  0  0.109442  0.116588  0  1.011522  0
H  H13  1  0.85538293  0.91659493  0.78797331  1  0  0.112544  0  0.946743  0  0  0.119082  0  1.010343  0  0  0.122645  0  1.008793  0  0  0.109423  0.116569  0  1.011533  0
H  H14  1  0.64461764  0.91659532  0.28797263  1  0  0.112643  0  0.946668  0  0  0.119116  0  1.010336  0  0  0.122678  0  1.008785  0  0  0.109437  0.116602  0  1.011526  0
H  H15  1  0.14461762  0.08340492  0.21202758  1  0  0.11262  0  0.946687  0  0  0.119126  0  1.010318  0  0  0.122689  0  1.008768  0  0  0.109448  0.116612  0  1.011509  0
H  H16  1  0.27454634  0.68024478  0.02638311  1  0  0.099837  0  0.983866  0  0  0.1068  0  1.049631  0  0  0.108291  0  1.050367  0  0  0.110332  0.105752  0  1.049139  0
H  H17  1  0.77454578  0.31975543  0.47361646  1  0  0.099837  0  0.983889  0  0  0.106811  0  1.04963  0  0  0.108301  0  1.050364  0  0  0.110335  0.105762  0  1.049138  0
H  H18  1  0.72545421  0.31975508  0.97361643  1  0  0.099826  0  0.983908  0  0  0.106806  0  1.049639  0  0  0.108296  0  1.050374  0  0  0.110333  0.105757  0  1.049148  0
H  H19  1  0.22545375  0.68024528  0.52638318  1  0  0.099837  0  0.983872  0  0  0.10681  0  1.04962  0  0  0.108301  0  1.050357  0  0  0.110335  0.105762  0  1.049129  0
H  H20  1  0.00854207  0.75621692  0.00120179  1  0  0.1054  0  0.945244  0  0  0.12083  0  0.995794  0  0  0.123032  0  0.995137  0  0  0.121836  0.119223  0  0.99634  0
H  H21  1  0.50854259  0.24378336  0.49879837  1  0  0.105402  0  0.945254  0  0  0.120835  0  0.995798  0  0  0.123037  0  0.995142  0  0  0.121844  0.119222  0  0.996353  0
H  H22  1  0.99145745  0.24378294  0.99879843  1  0  0.105394  0  0.945269  0  0  0.120829  0  0.995811  0  0  0.123031  0  0.995154  0  0  0.121836  0.119216  0  0.996365  0
H  H23  1  0.49145796  0.75621650  0.50120117  1  0  0.105426  0  0.945241  0  0  0.120846  0  0.995796  0  0  0.123047  0  0.995141  0  0  0.121864  0.119241  0  0.996341  0
H  H24  1  0.90904171  0.60863343  0.87324308  1  0  0.305908  0  0.922164  0  0  0.287897  0  0.980574  0  0  0.296318  0  0.974387  0  0  0.310156  0.281959  0  0.985015  0
H  H25  1  0.40904250  0.39136688  0.62675659  1  0  0.305916  0  0.922162  0  0  0.287905  0  0.980572  0  0  0.296328  0  0.974384  0  0  0.310159  0.281968  0  0.985013  0
H  H26  1  0.09095782  0.39136727  0.12675656  1  0  0.305906  0  0.922165  0  0  0.287896  0  0.980575  0  0  0.296317  0  0.974389  0  0  0.310158  0.281959  0  0.985016  0
H  H27  1  0.59095703  0.60863298  0.37324363  1  0  0.30591  0  0.922156  0  0  0.287906  0  0.980565  0  0  0.296319  0  0.974381  0  0  0.310164  0.281968  0  0.985004  0
H  H28  1  0.06999887  0.44521835  0.83347454  1  0  0.09801  0  0.961607  0  0  0.105502  0  1.028658  0  0  0.10815  0  1.025414  0  0  0.132547  0.103561  0  1.030968  0
H  H29  1  0.56999896  0.55478204  0.66652569  1  0  0.098017  0  0.961599  0  0  0.105512  0  1.028648  0  0  0.108162  0  1.025402  0  0  0.13255  0.103574  0  1.03095  0
H  H30  1  0.93000066  0.55478151  0.16652568  1  0  0.098009  0  0.961605  0  0  0.105503  0  1.028655  0  0  0.108151  0  1.02541  0  0  0.132551  0.103564  0  1.030959  0
H  H31  1  0.43000056  0.44521781  0.33347453  1  0  0.098011  0  0.961609  0  0  0.105488  0  1.028678  0  0  0.108135  0  1.025437  0  0  0.132554  0.103547  0  1.030986  0
H  H32  1  0.71824279  0.46804418  0.80041796  1  0  0.098629  0  0.998071  0  0  0.105196  0  1.066128  0  0  0.108196  0  1.06279  0  0  0.129752  0.102895  0  1.068627  0
H  H33  1  0.21824254  0.53195702  0.69958107  1  0  0.098587  0  0.998072  0  0  0.105155  0  1.066131  0  0  0.108156  0  1.062793  0  0  0.129719  0.102855  0  1.068629  0
H  H34  1  0.28175674  0.53195653  0.19958101  1  0  0.098581  0  0.998086  0  0  0.105149  0  1.066145  0  0  0.108149  0  1.062807  0  0  0.129709  0.102848  0  1.068644  0
H  H35  1  0.78175698  0.46804368  0.30041789  1  0  0.098626  0  0.998058  0  0  0.105193  0  1.066116  0  0  0.108195  0  1.06278  0  0  0.129753  0.102923  0  1.068579  0
H  H36  1  0.87303856  0.30869591  0.73560315  1  0  0.310754  0  0.923213  0  0  0.293045  0  0.98105  0  0  0.301459  0  0.974309  0  0  0.312979  0.286982  0  0.986117  0
H  H37  1  0.37303828  0.69130441  0.76439583  1  0  0.310787  0  0.923184  0  0  0.293081  0  0.981017  0  0  0.301497  0  0.974272  0  0  0.313001  0.287018  0  0.986084  0
H  H38  1  0.12696200  0.69130479  0.26439581  1  0  0.310779  0  0.923192  0  0  0.293073  0  0.981025  0  0  0.301488  0  0.974281  0  0  0.312999  0.287009  0  0.986094  0
H  H39  1  0.62696021  0.30869630  0.23560313  1  0  0.310772  0  0.923154  0  0  0.293078  0  0.980973  0  0  0.301493  0  0.974233  0  0  0.313003  0.287015  0  0.98604  0
H  H40  1  0.76804118  0.11494212  0.75286450  1  0  0.10619  0  0.978348  0  0  0.113604  0  1.041879  0  0  0.116402  0  1.039888  0  0  0.116895  0.111588  0  1.043384  0
H  H41  1  0.26803977  0.88505822  0.74713512  1  0  0.10623  0  0.978332  0  0  0.113648  0  1.041854  0  0  0.116446  0  1.039863  0  0  0.116921  0.111632  0  1.043359  0
H  H42  1  0.23196040  0.88505858  0.24713514  1  0  0.106191  0  0.978376  0  0  0.11361  0  1.041896  0  0  0.116406  0  1.039908  0  0  0.116904  0.111593  0  1.043402  0
H  H43  1  0.73195873  0.11494248  0.25286451  1  0  0.106189  0  0.978353  0  0  0.113589  0  1.041904  0  0  0.116387  0  1.039912  0  0  0.116884  0.111572  0  1.043409  0
H  H44  1  0.51396202  0.16517052  0.83460233  1  0  0.101058  0  1.005305  0  0  0.108097  0  1.07222  0  0  0.110402  0  1.070961  0  0  0.109679  0.106442  0  1.073249  0
H  H45  1  0.01396057  0.83482988  0.66539924  1  0  0.101043  0  1.0053  0  0  0.108077  0  1.072222  0  0  0.110381  0  1.070962  0  0  0.109664  0.106422  0  1.07325  0
H  H46  1  0.48603956  0.83482933  0.16539925  1  0  0.101058  0  1.005288  0  0  0.108074  0  1.072225  0  0  0.110376  0  1.07097  0  0  0.109651  0.106419  0  1.073253  0
H  H47  1  0.98603793  0.16516997  0.33460233  1  0  0.101057  0  1.005302  0  0  0.108095  0  1.072218  0  0  0.110399  0  1.070956  0  0  0.109677  0.106439  0  1.073246  0
C  C48  1  0.26334773  0.29436731  0.74720339  1  0  0.634888  0  3.944431  0  0  0.580097  0  4.251712  0  0  0.614249  0  4.243718  0  0  0.193951  0.556602  0  4.256764  0
C  C49  1  0.76334680  0.70563303  0.75279691  1  0  0.63488  0  3.944387  0  0  0.580073  0  4.251675  0  0  0.614225  0  4.243683  0  0  0.193956  0.556577  0  4.256729  0
C  C50  1  0.73665282  0.70563254  0.25279683  1  0  0.63488  0  3.944439  0  0  0.580059  0  4.251748  0  0  0.614211  0  4.243754  0  0  0.193924  0.556564  0  4.256801  0
C  C51  1  0.23665272  0.29436683  0.24720264  1  0  0.634865  0  3.944421  0  0  0.580053  0  4.251719  0  0  0.614205  0  4.243724  0  0  0.193942  0.556557  0  4.256772  0
C  C52  1  0.22487471  0.20967226  0.66653603  1  0  -0.011867  0  3.657905  0  0  -0.006052  0  3.89695  0  0  -0.006282  0  3.913585  0  0  0.009114  -0.006223  0  3.886404  0
C  C53  1  0.72487380  0.79032893  0.83346435  1  0  -0.011864  0  3.65783  0  0  -0.005996  0  3.896844  0  0  -0.006226  0  3.913478  0  0  0.009095  -0.006169  0  3.8863  0
C  C54  1  0.77512687  0.79032844  0.33346361  1  0  -0.011916  0  3.657885  0  0  -0.00604  0  3.89689  0  0  -0.00627  0  3.913526  0  0  0.009088  -0.006214  0  3.886346  0
C  C55  1  0.27512777  0.20967177  0.16653597  1  0  -0.011884  0  3.657789  0  0  -0.006011  0  3.896795  0  0  -0.00624  0  3.913428  0  0  0.009098  -0.006185  0  3.886252  0
C  C56  1  0.13814481  0.23829540  0.59668969  1  0  -0.058966  0  3.691932  0  0  -0.042793  0  3.930066  0  0  -0.049474  0  3.948673  0  0  -0.003979  -0.038852  0  3.918138  0
C  C57  1  0.63814500  0.76170413  0.90331115  1  0  -0.059009  0  3.691894  0  0  -0.042894  0  3.930066  0  0  -0.049577  0  3.948678  0  0  -0.003982  -0.038948  0  3.918136  0
C  C58  1  0.86185574  0.76170446  0.40331053  1  0  -0.058905  0  3.691886  0  0  -0.042781  0  3.93006  0  0  -0.049464  0  3.948669  0  0  -0.003947  -0.038834  0  3.918131  0
C  C59  1  0.36185555  0.23829573  0.09668907  1  0  -0.058955  0  3.691881  0  0  -0.042836  0  3.930045  0  0  -0.049517  0  3.94865  0  0  -0.003981  -0.03889  0  3.918118  0
C  C60  1  0.05881828  0.34702491  0.60801012  1  0  0.670446  0  3.890727  0  0  0.613695  0  4.189815  0  0  0.649096  0  4.181131  0  0  0.21155  0.589606  0  4.195269  0
C  C61  1  0.55881852  0.65297549  0.89198943  1  0  0.670561  0  3.890738  0  0  0.613831  0  4.189806  0  0  0.649233  0  4.181118  0  0  0.211588  0.589738  0  4.195265  0
C  C62  1  0.94118124  0.65297663  0.39198893  1  0  0.670509  0  3.890663  0  0  0.613763  0  4.189771  0  0  0.649166  0  4.181084  0  0  0.211551  0.589669  0  4.195231  0
C  C63  1  0.44118101  0.34702437  0.10801011  1  0  0.67054  0  3.890702  0  0  0.613807  0  4.189774  0  0  0.64921  0  4.181087  0  0  0.211583  0.589714  0  4.195234  0
C  C64  1  0.11980637  0.16211571  0.51755872  1  0  -0.078061  0  3.682316  0  0  -0.119387  0  3.94447  0  0  -0.116314  0  3.960901  0  0  -0.070317  -0.121224  0  3.933511  0
C  C65  1  0.61980864  0.83788383  0.98244211  1  0  -0.078059  0  3.682257  0  0  -0.119347  0  3.944443  0  0  -0.116291  0  3.960851  0  0  -0.070333  -0.121186  0  3.933485  0
C  C66  1  0.88019315  0.83788415  0.48244082  1  0  -0.078077  0  3.682321  0  0  -0.119374  0  3.944467  0  0  -0.116297  0  3.960892  0  0  -0.070301  -0.121214  0  3.93351  0
C  C67  1  0.38019293  0.16211519  0.01755869  1  0  -0.07806  0  3.682296  0  0  -0.119364  0  3.944464  0  0  -0.116284  0  3.960884  0  0  -0.070319  -0.121204  0  3.933507  0
C  C68  1  0.18405097  0.05737539  0.51036325  1  0  0.066574  0  3.718783  0  0  0.052523  0  3.97358  0  0  0.048508  0  3.996319  0  0  0.073587  0.055014  0  3.958149  0
C  C69  1  0.68405422  0.94262328  0.98963818  1  0  0.066509  0  3.718801  0  0  0.052465  0  3.973576  0  0  0.048448  0  3.996323  0  0  0.073567  0.054957  0  3.958145  0
C  C70  1  0.81594856  0.94262447  0.48963629  1  0  0.066547  0  3.718759  0  0  0.052488  0  3.973555  0  0  0.048475  0  3.996294  0  0  0.073556  0.05498  0  3.958125  0
C  C71  1  0.31594838  0.05737573  0.01036262  1  0  0.066575  0  3.718825  0  0  0.052491  0  3.973639  0  0  0.048477  0  3.996379  0  0  0.073575  0.054983  0  3.958208  0
C  C72  1  0.26828433  0.02671474  0.57949796  1  0  -0.082478  0  3.725194  0  0  -0.110796  0  3.983436  0  0  -0.10878  0  4.000759  0  0  -0.073476  -0.111742  0  3.971211  0
C  C73  1  0.76828751  0.97328392  0.92050215  1  0  -0.082496  0  3.725229  0  0  -0.110813  0  3.983478  0  0  -0.108797  0  4.000802  0  0  -0.073485  -0.111758  0  3.971253  0
C  C74  1  0.73171520  0.97328512  0.42050158  1  0  -0.082494  0  3.725206  0  0  -0.110815  0  3.983451  0  0  -0.108799  0  4.000773  0  0  -0.073484  -0.11176  0  3.971226  0
C  C75  1  0.23171612  0.02671426  0.07949720  1  0  -0.08248  0  3.725201  0  0  -0.110795  0  3.983462  0  0  -0.108778  0  4.000784  0  0  -0.073482  -0.11174  0  3.971237  0
C  C76  1  0.28893137  0.10403478  0.65726175  1  0  -0.067354  0  3.70128  0  0  -0.087999  0  3.952692  0  0  -0.091537  0  3.971927  0  0  -0.076954  -0.085786  0  3.939724  0
C  C77  1  0.78893248  0.89596555  0.84273990  1  0  -0.06731  0  3.701393  0  0  -0.088001  0  3.952796  0  0  -0.091537  0  3.97203  0  0  -0.076933  -0.085785  0  3.939827  0
C  C78  1  0.71106815  0.89596508  0.34273847  1  0  -0.067373  0  3.701355  0  0  -0.088019  0  3.952769  0  0  -0.091555  0  3.972003  0  0  -0.076946  -0.085804  0  3.939801  0
C  C79  1  0.21106910  0.10403431  0.15726099  1  0  -0.067393  0  3.701273  0  0  -0.088057  0  3.952683  0  0  -0.091596  0  3.971918  0  0  -0.076955  -0.085842  0  3.939715  0
C  C80  1  0.19227697  0.64176450  0.98376566  1  0  0.004386  0  3.744956  0  0  -0.032045  0  4.015595  0  0  -0.029632  0  4.037326  0  0  -0.011894  -0.033603  0  4.000784  0
C  C81  1  0.69227704  0.35823587  0.51623393  1  0  0.004351  0  3.744985  0  0  -0.032081  0  4.015627  0  0  -0.029666  0  4.037357  0  0  -0.011901  -0.033638  0  4.000814  0
C  C82  1  0.80772255  0.35823536  0.01623388  1  0  0.004389  0  3.744963  0  0  -0.032043  0  4.015597  0  0  -0.029629  0  4.037327  0  0  -0.011896  -0.0336  0  4.000784  0
C  C83  1  0.30772249  0.64176484  0.48376570  1  0  0.00437  0  3.744947  0  0  -0.032059  0  4.015577  0  0  -0.029647  0  4.03731  0  0  -0.011913  -0.033618  0  4.000768  0
C  C84  1  0.06180167  0.68073207  0.97138235  1  0  -0.014682  0  3.69268  0  0  -0.051954  0  3.951255  0  0  -0.051012  0  3.970586  0  0  -0.00287  -0.052379  0  3.938083  0
C  C85  1  0.56180177  0.31926833  0.52861720  1  0  -0.014617  0  3.69263  0  0  -0.051886  0  3.951195  0  0  -0.050942  0  3.970527  0  0  -0.002836  -0.052303  0  3.938029  0
C  C86  1  0.93819888  0.31926779  0.02861719  1  0  -0.014665  0  3.692656  0  0  -0.05194  0  3.951222  0  0  -0.050997  0  3.970552  0  0  -0.002864  -0.052357  0  3.938056  0
C  C87  1  0.43819776  0.68073153  0.47138235  1  0  -0.014696  0  3.692664  0  0  -0.051955  0  3.951231  0  0  -0.051011  0  3.970561  0  0  -0.002875  -0.052381  0  3.938059  0
C  C88  1  0.09078762  0.51742089  0.88416296  1  0  0.219707  0  3.672169  0  0  0.157378  0  3.944682  0  0  0.17213  0  3.957772  0  0  0.138944  0.147722  0  3.935569  0
C  C89  1  0.59078771  0.48257866  0.61583651  1  0  0.219716  0  3.672158  0  0  0.157383  0  3.944682  0  0  0.172136  0  3.957774  0  0  0.138956  0.147731  0  3.93557  0
C  C90  1  0.90921190  0.48257897  0.11583659  1  0  0.219752  0  3.672143  0  0  0.157422  0  3.944663  0  0  0.172174  0  3.957753  0  0  0.138963  0.147769  0  3.935552  0
C  C91  1  0.40921181  0.51742121  0.38416303  1  0  0.219733  0  3.672144  0  0  0.157411  0  3.944678  0  0  0.172165  0  3.957766  0  0  0.138958  0.147756  0  3.935564  0
C  C92  1  0.69497292  0.37962702  0.80079435  1  0  0.213967  0  3.660968  0  0  0.152105  0  3.93196  0  0  0.166807  0  3.944234  0  0  0.137851  0.142456  0  3.92358  0
C  C93  1  0.19497160  0.62037335  0.69920457  1  0  0.214123  0  3.660835  0  0  0.152268  0  3.931819  0  0  0.166971  0  3.944093  0  0  0.137951  0.142618  0  3.923439  0
C  C94  1  0.30502866  0.62037285  0.19920519  1  0  0.214079  0  3.660856  0  0  0.152227  0  3.931838  0  0  0.166929  0  3.944112  0  0  0.137931  0.142576  0  3.92346  0
C  C95  1  0.80502690  0.37962736  0.30079439  1  0  0.213998  0  3.660971  0  0  0.152139  0  3.931959  0  0  0.166839  0  3.944236  0  0  0.137865  0.142466  0  3.923561  0
C  C96  1  0.71933964  0.19459823  0.77690719  1  0  -0.010727  0  3.712442  0  0  -0.046371  0  3.969716  0  0  -0.044931  0  3.989634  0  0  -0.00257  -0.04693  0  3.95588  0
C  C97  1  0.21933722  0.80540297  0.72309318  1  0  -0.010746  0  3.712488  0  0  -0.046391  0  3.969767  0  0  -0.044953  0  3.989684  0  0  -0.002598  -0.04695  0  3.95593  0
C  C98  1  0.28066194  0.80540247  0.22309312  1  0  -0.010769  0  3.712558  0  0  -0.046413  0  3.969825  0  0  -0.044972  0  3.989743  0  0  -0.002616  -0.046972  0  3.955989  0
C  C99  1  0.78066025  0.19459773  0.27690713  1  0  -0.010729  0  3.712464  0  0  -0.046373  0  3.96975  0  0  -0.044933  0  3.989667  0  0  -0.002572  -0.046931  0  3.955912  0
C  C100  1  0.59419429  0.22116669  0.81742979  1  0  -0.032773  0  3.764927  0  0  -0.06424  0  4.028032  0  0  -0.064257  0  4.051726  0  0  -0.01784  -0.064033  0  4.011725  0
C  C101  1  0.09419288  0.77883369  0.68257045  1  0  -0.032744  0  3.76503  0  0  -0.064207  0  4.028132  0  0  -0.064223  0  4.051824  0  0  -0.017804  -0.064001  0  4.011824  0
C  C102  1  0.40580729  0.77883401  0.18257052  1  0  -0.032718  0  3.765001  0  0  -0.064179  0  4.028108  0  0  -0.064196  0  4.051805  0  0  -0.01779  -0.063972  0  4.011799  0
C  C103  1  0.90580562  0.22116617  0.31742977  1  0  -0.032775  0  3.764903  0  0  -0.064243  0  4.028005  0  0  -0.064259  0  4.051696  0  0  -0.017835  -0.064037  0  4.011697  0
N  N104  1  0.16008146  0.97518597  0.42924173  1  0  0.467367  0  3.947843  0  0  0.52332  0  4.204174  0  0  0.544094  0  4.212607  0  0  0.053126  0.509401  0  4.198585  0
N  N105  1  0.66008173  0.02481342  0.07075974  1  0  0.467478  0  3.947808  0  0  0.52336  0  4.204188  0  0  0.544134  0  4.212621  0  0  0.05324  0.50944  0  4.198599  0
N  N106  1  0.83991909  0.02481473  0.57075858  1  0  0.467401  0  3.947795  0  0  0.523365  0  4.204108  0  0  0.544138  0  4.212542  0  0  0.053173  0.509446  0  4.198518  0
N  N107  1  0.33991882  0.97518644  0.92924115  1  0  0.467314  0  3.947968  0  0  0.523314  0  4.204236  0  0  0.544088  0  4.212666  0  0  0.053168  0.509395  0  4.198646  0
N  N108  1  0.20891065  0.53945136  0.92902240  1  0  -0.418542  0  3.27763  0  0  -0.334842  0  3.562566  0  0  -0.358892  0  3.580808  0  0  -0.369643  -0.318284  0  3.549731  0
N  N109  1  0.70890968  0.46054900  0.57097720  1  0  -0.418563  0  3.277646  0  0  -0.334865  0  3.562585  0  0  -0.358919  0  3.580833  0  0  -0.369674  -0.318307  0  3.549749  0
N  N110  1  0.79108991  0.46054934  0.07097724  1  0  -0.418582  0  3.277648  0  0  -0.334887  0  3.562592  0  0  -0.358939  0  3.580837  0  0  -0.369673  -0.318328  0  3.549756  0
N  N111  1  0.29108984  0.53945086  0.42902234  1  0  -0.418576  0  3.277599  0  0  -0.334881  0  3.562536  0  0  -0.358934  0  3.580785  0  0  -0.369665  -0.318322  0  3.549701  0
N  N112  1  0.99969868  0.60078718  0.90867430  1  0  -0.271082  0  3.448444  0  0  -0.20254  0  3.683094  0  0  -0.218784  0  3.698582  0  0  -0.378817  -0.191697  0  3.672583  0
N  N113  1  0.49969841  0.39921311  0.59132540  1  0  -0.271132  0  3.448425  0  0  -0.202598  0  3.683092  0  0  -0.218844  0  3.69858  0  0  -0.378849  -0.191757  0  3.672581  0
N  N114  1  0.00030187  0.39921268  0.09132592  1  0  -0.271102  0  3.448406  0  0  -0.202564  0  3.683064  0  0  -0.218808  0  3.698556  0  0  -0.378814  -0.191721  0  3.672548  0
N  N115  1  0.50030111  0.60078675  0.40867415  1  0  -0.271066  0  3.448423  0  0  -0.202526  0  3.683066  0  0  -0.21876  0  3.698552  0  0  -0.378814  -0.191681  0  3.672553  0
N  N116  1  0.58047408  0.33718430  0.83227461  1  0  -0.408261  0  3.280083  0  0  -0.324033  0  3.557974  0  0  -0.347388  0  3.577199  0  0  -0.369654  -0.307998  0  3.544584  0
N  N117  1  0.08047271  0.66281693  0.66772640  1  0  -0.408353  0  3.280157  0  0  -0.324126  0  3.558045  0  0  -0.347484  0  3.577275  0  0  -0.369713  -0.30809  0  3.544655  0
N  N118  1  0.41952750  0.66281640  0.16772638  1  0  -0.408317  0  3.280142  0  0  -0.324089  0  3.558019  0  0  -0.347446  0  3.577248  0  0  -0.369684  -0.308053  0  3.544629  0
N  N119  1  0.91952579  0.33718376  0.33227459  1  0  -0.408254  0  3.280029  0  0  -0.324022  0  3.55791  0  0  -0.347378  0  3.577135  0  0  -0.369646  -0.307987  0  3.544527  0
N  N120  1  0.78053411  0.29557236  0.76700888  1  0  -0.272064  0  3.459288  0  0  -0.202633  0  3.689695  0  0  -0.218614  0  3.704427  0  0  -0.378101  -0.191932  0  3.679779  0
N  N121  1  0.28053278  0.70442798  0.73299075  1  0  -0.272164  0  3.459206  0  0  -0.202747  0  3.68964  0  0  -0.218729  0  3.70437  0  0  -0.378159  -0.192046  0  3.679723  0
N  N122  1  0.21946644  0.70442834  0.23299076  1  0  -0.272109  0  3.459179  0  0  -0.202689  0  3.689596  0  0  -0.21867  0  3.704327  0  0  -0.378124  -0.191987  0  3.67968  0
N  N123  1  0.71946469  0.29557272  0.26700889  1  0  -0.272094  0  3.459287  0  0  -0.202678  0  3.689688  0  0  -0.218662  0  3.704419  0  0  -0.378142  -0.191976  0  3.679778  0
O  O124  1  0.30971906  0.38815614  0.72717270  1  0  -0.649647  0  2.027101  0  0  -0.588668  0  2.265487  0  0  -0.61793  0  2.257563  0  0  -0.315668  -0.567455  0  2.270329  0
O  O125  1  0.80971922  0.61184420  0.77282693  1  0  -0.649628  0  2.027087  0  0  -0.588653  0  2.265489  0  0  -0.617909  0  2.257552  0  0  -0.315658  -0.567439  0  2.27033  0
O  O126  1  0.69028046  0.61184456  0.27282761  1  0  -0.649645  0  2.027081  0  0  -0.588663  0  2.265478  0  0  -0.617918  0  2.257547  0  0  -0.315647  -0.567454  0  2.270322  0
O  O127  1  0.19028031  0.38815567  0.22717261  1  0  -0.649617  0  2.027072  0  0  -0.588639  0  2.265462  0  0  -0.617905  0  2.257552  0  0  -0.315668  -0.567423  0  2.270301  0
O  O128  1  0.25755880  0.26847345  0.82700421  1  0  -0.610677  0  1.890255  0  0  -0.561769  0  2.118475  0  0  -0.58815  0  2.109483  0  0  -0.327451  -0.542541  0  2.123937  0
O  O129  1  0.75755881  0.73152774  0.67299550  1  0  -0.610679  0  1.890216  0  0  -0.561773  0  2.118446  0  0  -0.588153  0  2.109454  0  0  -0.327462  -0.542545  0  2.123908  0
O  O130  1  0.74244073  0.73152725  0.17299543  1  0  -0.610676  0  1.890231  0  0  -0.561761  0  2.118462  0  0  -0.588141  0  2.10947  0  0  -0.32745  -0.542532  0  2.123923  0
O  O131  1  0.24244071  0.26847296  0.32700414  1  0  -0.610671  0  1.890263  0  0  -0.561759  0  2.118488  0  0  -0.588139  0  2.109495  0  0  -0.327446  -0.54253  0  2.12395  0
O  O132  1  0.04679973  0.40140561  0.53984020  1  0  -0.65837  0  2.057318  0  0  -0.580203  0  2.323281  0  0  -0.611613  0  2.310729  0  0  -0.325687  -0.558011  0  2.331106  0
O  O133  1  0.54679902  0.59859479  0.96015935  1  0  -0.65847  0  2.057389  0  0  -0.580296  0  2.323323  0  0  -0.611703  0  2.310763  0  0  -0.32573  -0.558108  0  2.331159  0
O  O134  1  0.95319466  0.59859257  0.46015848  1  0  -0.65843  0  2.057313  0  0  -0.580255  0  2.323265  0  0  -0.611663  0  2.310705  0  0  -0.325698  -0.55807  0  2.33111  0
O  O135  1  0.45319948  0.40140507  0.03984019  1  0  -0.658422  0  2.057363  0  0  -0.580248  0  2.323304  0  0  -0.61166  0  2.310757  0  0  -0.325699  -0.558055  0  2.331132  0
O  O136  1  0.00333884  0.37996879  0.68460314  1  0  -0.624099  0  1.973513  0  0  -0.569219  0  2.206838  0  0  -0.594702  0  2.196485  0  0  -0.307858  -0.551157  0  2.213663  0
O  O137  1  0.50333800  0.62003162  0.81539640  1  0  -0.624094  0  1.973537  0  0  -0.569212  0  2.206839  0  0  -0.594702  0  2.196504  0  0  -0.307828  -0.551148  0  2.213665  0
O  O138  1  0.99666274  0.62003191  0.31539582  1  0  -0.624099  0  1.973472  0  0  -0.569216  0  2.206796  0  0  -0.594701  0  2.196447  0  0  -0.307847  -0.551152  0  2.213623  0
O  O139  1  0.49666153  0.37996824  0.18460382  1  0  -0.624119  0  1.97348  0  0  -0.569249  0  2.206794  0  0  -0.594733  0  2.196445  0  0  -0.30785  -0.551185  0  2.21362  0
O  O140  1  0.09466431  0.00562024  0.36417802  1  0  -0.366174  0  1.771692  0  0  -0.353085  0  1.964921  0  0  -0.365307  0  1.961523  0  0  -0.131518  -0.345504  0  1.967586  0
O  O141  1  0.59466622  0.99437832  0.13582333  1  0  -0.366373  0  1.771787  0  0  -0.353122  0  1.964901  0  0  -0.365347  0  1.961509  0  0  -0.131573  -0.34554  0  1.967564  0
O  O142  1  0.90533522  0.99437962  0.63582220  1  0  -0.366211  0  1.771628  0  0  -0.3531  0  1.964857  0  0  -0.365323  0  1.961459  0  0  -0.131523  -0.345521  0  1.967524  0
O  O143  1  0.40533331  0.00562238  0.86417698  1  0  -0.366181  0  1.771683  0  0  -0.353106  0  1.964895  0  0  -0.365328  0  1.961494  0  0  -0.131546  -0.345525  0  1.96756  0
O  O144  1  0.20465669  0.87816218  0.42950878  1  0  -0.348978  0  1.780114  0  0  -0.343585  0  1.979805  0  0  -0.354552  0  1.978533  0  0  -0.121576  -0.336491  0  1.980464  0
O  O145  1  0.70465486  0.12183720  0.07049203  1  0  -0.348959  0  1.780106  0  0  -0.343576  0  1.979843  0  0  -0.354543  0  1.97857  0  0  -0.121613  -0.336485  0  1.980509  0
O  O146  1  0.79534386  0.12183852  0.57049153  1  0  -0.348955  0  1.780118  0  0  -0.343594  0  1.979797  0  0  -0.354559  0  1.97852  0  0  -0.121596  -0.3365  0  1.980455  0
O  O147  1  0.29534569  0.87816182  0.92950742  1  0  -0.348928  0  1.780201  0  0  -0.343544  0  1.97986  0  0  -0.354512  0  1.978589  0  0  -0.121577  -0.336453  0  1.980524  0
