# generated using pymatgen
data_AlH11C7
_symmetry_space_group_name_H-M   'P 1'
_cell_length_a   6.32198787
_cell_length_b   9.07552049
_cell_length_c   11.92413518
_cell_angle_alpha   90.00243906
_cell_angle_beta   99.10918953
_cell_angle_gamma   90.00016613
_symmetry_Int_Tables_number   1
_chemical_formula_structural   AlH11C7
_chemical_formula_sum   'Al4 H44 C28'
_cell_volume   675.52297374
_cell_formula_units_Z   4
loop_
 _symmetry_equiv_pos_site_id
 _symmetry_equiv_pos_as_xyz
  1  'x, y, z'
loop_
 _atom_site_type_symbol
 _atom_site_label
 _atom_site_symmetry_multiplicity
 _atom_site_fract_x
 _atom_site_fract_y
 _atom_site_fract_z
 _atom_site_occupancy
 _atom_site_pbe_bader_spin_density
 _atom_site_pbe_cm5_charge
 _atom_site_pbe_ddec_charge
 _atom_site_pbe_ddec_spin_density
 _atom_site_pbe_ddec_sum_bond_order
 _atom_site_pbe_magmom
Al  Al0  1  0.21972852  0.21751006  0.13433545  1  0  0.199867  1.024809  0  2.728705  0
Al  Al1  1  0.28027131  0.71749122  0.36566573  1  0  0.199919  1.024941  0  2.728815  0
Al  Al2  1  0.78027424  0.78247298  0.86566216  1  0  0.19987  1.024812  0  2.728579  0
Al  Al3  1  0.71972038  0.28251496  0.63433525  1  0  0.199969  1.025116  0  2.728468  0
H  H4  1  0.54794363  0.05657083  0.20614744  1  0  0.115734  0.131181  0  1.017687  0
H  H5  1  0.95204701  0.55654301  0.29386337  1  0  0.11572  0.131267  0  1.017462  0
H  H6  1  0.45205503  0.94344086  0.79387000  1  0  0.115707  0.131203  0  1.017541  0
H  H7  1  0.04792698  0.44344995  0.70613378  1  0  0.115774  0.131363  0  1.017466  0
H  H8  1  0.22668740  0.87826617  0.11670650  1  0  0.113297  0.112823  0  1.032716  0
H  H9  1  0.27333192  0.37826268  0.38329970  1  0  0.11329  0.112859  0  1.032561  0
H  H10  1  0.77333657  0.12174001  0.88330359  1  0  0.113236  0.11278  0  1.032643  0
H  H11  1  0.72667051  0.62173139  0.61668865  1  0  0.113269  0.112774  0  1.03257  0
H  H12  1  0.55163493  0.36221354  0.23256361  1  0  0.116316  0.135835  0  1.015978  0
H  H13  1  0.94834254  0.86219526  0.26743271  1  0  0.116289  0.135802  0  1.016053  0
H  H14  1  0.44834955  0.63780366  0.76741419  1  0  0.116346  0.135899  0  1.015836  0
H  H15  1  0.05164912  0.13779880  0.73256742  1  0  0.11627  0.13584  0  1.016032  0
H  H16  1  0.38188391  0.51867844  0.04556245  1  0  0.103129  0.107622  0  1.040061  0
H  H17  1  0.11812002  0.01868614  0.45443505  1  0  0.103139  0.107585  0  1.040168  0
H  H18  1  0.61810855  0.48134096  0.95441510  1  0  0.103078  0.107384  0  1.040021  0
H  H19  1  0.88188422  0.98131453  0.54555931  1  0  0.103141  0.107621  0  1.040101  0
H  H20  1  0.46664035  0.15542577  0.40883675  1  0  0.106348  0.113015  0  1.039752  0
H  H21  1  0.03333491  0.65539861  0.09116645  1  0  0.106392  0.113101  0  1.039708  0
H  H22  1  0.53335004  0.84458151  0.59117252  1  0  0.106366  0.113027  0  1.039707  0
H  H23  1  0.96666642  0.34459766  0.90883608  1  0  0.106409  0.113141  0  1.039654  0
H  H24  1  0.32651953  0.28353538  0.93638555  1  0  0.075254  0.166427  0  1.073689  0
H  H25  1  0.17348801  0.78352364  0.56362161  1  0  0.075368  0.166643  0  1.073929  0
H  H26  1  0.67350093  0.71647190  0.06361589  1  0  0.075265  0.166416  0  1.07374  0
H  H27  1  0.82650685  0.21645830  0.43637876  1  0  0.075489  0.166871  0  1.073826  0
H  H28  1  0.21476529  0.10455264  0.93634696  1  0  0.077656  0.167077  0  1.0771  0
H  H29  1  0.28524646  0.60453463  0.56365299  1  0  0.077681  0.166965  0  1.076831  0
H  H30  1  0.78523097  0.89545575  0.06364765  1  0  0.077643  0.16707  0  1.077082  0
H  H31  1  0.71475158  0.39545393  0.43634678  1  0  0.077682  0.166991  0  1.076806  0
H  H32  1  0.48319625  0.13593785  0.00016864  1  0  0.077923  0.17336  0  1.071998  0
H  H33  1  0.01681722  0.63594772  0.49983676  1  0  0.077906  0.173408  0  1.072219  0
H  H34  1  0.51680179  0.86405070  0.99983113  1  0  0.077953  0.173357  0  1.072073  0
H  H35  1  0.98317788  0.36403533  0.50017034  1  0  0.077955  0.173462  0  1.072214  0
H  H36  1  0.82645216  0.13815339  0.08877220  1  0  0.076094  0.159299  0  1.090733  0
H  H37  1  0.67355376  0.63813456  0.41123904  1  0  0.076016  0.159083  0  1.090335  0
H  H38  1  0.17355694  0.86184949  0.91122420  1  0  0.076079  0.159273  0  1.090776  0
H  H39  1  0.32643672  0.36185730  0.58877275  1  0  0.076044  0.159089  0  1.090293  0
H  H40  1  0.88227427  0.20328869  0.23097276  1  0  0.078208  0.172725  0  1.063937  0
H  H41  1  0.61771478  0.70328050  0.26903852  1  0  0.078194  0.17268  0  1.064217  0
H  H42  1  0.11772839  0.79670758  0.76902232  1  0  0.078174  0.172658  0  1.063965  0
H  H43  1  0.38229314  0.29671467  0.73096953  1  0  0.078198  0.172749  0  1.06421  0
H  H44  1  0.84176741  0.33025996  0.11612389  1  0  0.080118  0.177085  0  1.052418  0
H  H45  1  0.65821489  0.83024397  0.38388349  1  0  0.080113  0.177043  0  1.052981  0
H  H46  1  0.15822715  0.66974181  0.88386808  1  0  0.08013  0.177071  0  1.05259  0
H  H47  1  0.34177730  0.16974128  0.61613178  1  0  0.080173  0.177211  0  1.052775  0
C  C48  1  0.39879337  0.04024410  0.23974660  1  0  -0.11455  -0.253191  0  4.082601  0
C  C49  1  0.10121764  0.54024198  0.26026388  1  0  -0.114635  -0.253417  0  4.08286  0
C  C50  1  0.60120508  0.95976980  0.76026495  1  0  -0.114728  -0.253456  0  4.082985  0
C  C51  1  0.89877405  0.45977081  0.73973710  1  0  -0.114758  -0.253657  0  4.08345  0
C  C52  1  0.24055756  0.93393359  0.19809361  1  0  -0.070754  -0.090286  0  3.966931  0
C  C53  1  0.25945907  0.43393323  0.30191001  1  0  -0.070689  -0.090202  0  3.967007  0
C  C54  1  0.75946314  0.06605937  0.80191455  1  0  -0.070663  -0.090158  0  3.967141  0
C  C55  1  0.74055009  0.56607406  0.69808807  1  0  -0.070649  -0.090103  0  3.967461  0
C  C56  1  0.39102978  0.41000847  0.21701503  1  0  -0.120594  -0.275004  0  4.090547  0
C  C57  1  0.10894976  0.91001205  0.28298590  1  0  -0.120616  -0.275044  0  4.090321  0
C  C58  1  0.60896615  0.59000983  0.78297033  1  0  -0.120616  -0.275092  0  4.09046  0
C  C59  1  0.89105495  0.08997650  0.71702192  1  0  -0.120617  -0.275051  0  4.090494  0
C  C60  1  0.31246134  0.50678585  0.12265633  1  0  -0.096085  -0.12878  0  4.011696  0
C  C61  1  0.18752513  0.00677955  0.37734788  1  0  -0.09606  -0.128656  0  4.012165  0
C  C62  1  0.68754880  0.49322915  0.87732421  1  0  -0.095944  -0.128385  0  4.011213  0
C  C63  1  0.81247789  0.99321561  0.62265729  1  0  -0.096127  -0.128862  0  4.011854  0
C  C64  1  0.36580146  0.08068344  0.35278685  1  0  -0.09794  -0.126044  0  4.009593  0
C  C65  1  0.13418610  0.58068395  0.14722572  1  0  -0.097819  -0.126009  0  4.009674  0
C  C66  1  0.63417783  0.91933156  0.64722495  1  0  -0.097802  -0.12582  0  4.009459  0
C  C67  1  0.86583086  0.41931562  0.85276707  1  0  -0.097825  -0.126045  0  4.009653  0
C  C68  1  0.32134153  0.18349185  0.98780768  1  0  -0.361384  -0.888279  0  3.779655  0
C  C69  1  0.17861643  0.68351583  0.51218331  1  0  -0.361561  -0.888581  0  3.779968  0
C  C70  1  0.67867083  0.81650551  0.01219064  1  0  -0.361434  -0.888247  0  3.779745  0
C  C71  1  0.82138163  0.31647162  0.48781730  1  0  -0.361726  -0.888895  0  3.780019  0
C  C72  1  0.91232325  0.22309564  0.14394036  1  0  -0.358703  -0.87975  0  3.795879  0
C  C73  1  0.58765878  0.72312747  0.35604673  1  0  -0.358595  -0.879434  0  3.796199  0
C  C74  1  0.08768108  0.77690283  0.85605653  1  0  -0.358656  -0.879635  0  3.795976  0
C  C75  1  0.41233490  0.27686329  0.64396530  1  0  -0.35866  -0.879733  0  3.796107  0
