# generated using pymatgen
data_ZnH4C4(IN)2
_symmetry_space_group_name_H-M   'P 1'
_cell_length_a   6.44827281
_cell_length_b   14.24998643
_cell_length_c   19.05753185
_cell_angle_alpha   90.00052687
_cell_angle_beta   90.18492841
_cell_angle_gamma   90.00026163
_symmetry_Int_Tables_number   1
_chemical_formula_structural   ZnH4C4(IN)2
_chemical_formula_sum   'Zn8 H32 C32 I16 N16'
_cell_volume   1751.14555268
_cell_formula_units_Z   8
loop_
 _symmetry_equiv_pos_site_id
 _symmetry_equiv_pos_as_xyz
  1  'x, y, z'
loop_
 _atom_site_type_symbol
 _atom_site_label
 _atom_site_symmetry_multiplicity
 _atom_site_fract_x
 _atom_site_fract_y
 _atom_site_fract_z
 _atom_site_occupancy
 _atom_site_hle17_bader_spin_density
 _atom_site_hle17_ddec_charge
 _atom_site_hle17_ddec_spin_density
 _atom_site_hle17_ddec_sum_bond_order
 _atom_site_hle17_magmom
 _atom_site_hse06_10hf_bader_spin_density
 _atom_site_hse06_10hf_ddec_charge
 _atom_site_hse06_10hf_ddec_spin_density
 _atom_site_hse06_10hf_ddec_sum_bond_order
 _atom_site_hse06_10hf_magmom
 _atom_site_hse06_bader_spin_density
 _atom_site_hse06_ddec_charge
 _atom_site_hse06_ddec_spin_density
 _atom_site_hse06_ddec_sum_bond_order
 _atom_site_hse06_magmom
 _atom_site_pbe_bader_spin_density
 _atom_site_pbe_cm5_charge
 _atom_site_pbe_ddec_charge
 _atom_site_pbe_ddec_spin_density
 _atom_site_pbe_ddec_sum_bond_order
 _atom_site_pbe_magmom
Zn  Zn0  1  0.16841257  0.26852960  0.91618848  1  0  0.653492  0  2.258454  0  0  0.49476  0  2.720224  0  0  0.536869  0  2.680967  0  0  0.438953  0.46633  0  2.746226  0
Zn  Zn1  1  0.83158852  0.76852940  0.58381188  1  0  0.653552  0  2.258434  0  0  0.494814  0  2.720201  0  0  0.536912  0  2.680945  0  0  0.439002  0.46638  0  2.746214  0
Zn  Zn2  1  0.83158180  0.73146943  0.08381198  1  0  0.653483  0  2.258455  0  0  0.494738  0  2.72025  0  0  0.536845  0  2.680992  0  0  0.438944  0.466308  0  2.746256  0
Zn  Zn3  1  0.16841361  0.23147244  0.41618964  1  0  0.653535  0  2.258439  0  0  0.494789  0  2.720205  0  0  0.536894  0  2.680949  0  0  0.438971  0.466351  0  2.746222  0
Zn  Zn4  1  0.61541559  0.27047519  0.66836899  1  0  0.69074  0  2.141957  0  0  0.529218  0  2.588298  0  0  0.573029  0  2.549209  0  0  0.451985  0.499376  0  2.614555  0
Zn  Zn5  1  0.38458706  0.77046592  0.83162981  1  0  0.690679  0  2.14214  0  0  0.529129  0  2.588581  0  0  0.572939  0  2.549487  0  0  0.451927  0.499279  0  2.614862  0
Zn  Zn6  1  0.38458652  0.72952875  0.33163043  1  0  0.69073  0  2.142031  0  0  0.529168  0  2.588443  0  0  0.572977  0  2.549349  0  0  0.451961  0.499316  0  2.614723  0
Zn  Zn7  1  0.61541661  0.22953031  0.16836961  1  0  0.690667  0  2.142101  0  0  0.52912  0  2.588509  0  0  0.572935  0  2.549418  0  0  0.451953  0.499274  0  2.614766  0
H  H8  1  0.94288273  0.23631548  0.77897484  1  0  0.05982  0  0.986276  0  0  0.062228  0  1.064265  0  0  0.065123  0  1.059973  0  0  0.105661  0.059901  0  1.067539  0
H  H9  1  0.05712268  0.73631259  0.72102425  1  0  0.05981  0  0.986226  0  0  0.062217  0  1.064229  0  0  0.065117  0  1.059928  0  0  0.105656  0.059895  0  1.067505  0
H  H10  1  0.05711939  0.76368777  0.22102406  1  0  0.059798  0  0.986254  0  0  0.062207  0  1.064249  0  0  0.065098  0  1.059969  0  0  0.105645  0.059889  0  1.067519  0
H  H11  1  0.94289184  0.26368434  0.27897360  1  0  0.059773  0  0.986309  0  0  0.062194  0  1.0643  0  0  0.065088  0  1.060012  0  0  0.105653  0.05987  0  1.067569  0
H  H12  1  0.54321794  0.46014382  0.74133241  1  0  0.077625  0  0.97653  0  0  0.083016  0  1.048726  0  0  0.086349  0  1.044249  0  0  0.096695  0.080453  0  1.05203  0
H  H13  1  0.45678823  0.96014221  0.75866874  1  0  0.07772  0  0.9765  0  0  0.083074  0  1.048679  0  0  0.086402  0  1.044208  0  0  0.096733  0.080501  0  1.052009  0
H  H14  1  0.45678418  0.53985942  0.25866648  1  0  0.077536  0  0.976653  0  0  0.082971  0  1.048806  0  0  0.086289  0  1.044346  0  0  0.096687  0.080409  0  1.052124  0
H  H15  1  0.54319997  0.03986103  0.24133802  1  0  0.077667  0  0.97662  0  0  0.083052  0  1.048781  0  0  0.086375  0  1.044323  0  0  0.096703  0.080476  0  1.052118  0
H  H16  1  0.68292104  0.54410330  0.84835046  1  0  0.126586  0  0.965829  0  0  0.132062  0  1.030075  0  0  0.135996  0  1.028935  0  0  0.098507  0.129153  0  1.031273  0
H  H17  1  0.31708087  0.04410334  0.65165466  1  0  0.1266  0  0.965853  0  0  0.132081  0  1.030069  0  0  0.136014  0  1.028931  0  0  0.098546  0.129168  0  1.031264  0
H  H18  1  0.31708108  0.45589994  0.15164896  1  0  0.126614  0  0.965822  0  0  0.132077  0  1.030083  0  0  0.136011  0  1.028943  0  0  0.098512  0.129164  0  1.031278  0
H  H19  1  0.68291663  0.95590130  0.34835210  1  0  0.126617  0  0.965741  0  0  0.132072  0  1.030019  0  0  0.136005  0  1.028879  0  0  0.098533  0.12916  0  1.031221  0
H  H20  1  0.95226004  0.45810395  0.92157196  1  0  0.081683  0  0.94491  0  0  0.085945  0  1.016623  0  0  0.089042  0  1.012401  0  0  0.10809  0.083534  0  1.019795  0
H  H21  1  0.04774920  0.95810279  0.57842865  1  0  0.081747  0  0.944735  0  0  0.086019  0  1.016432  0  0  0.089115  0  1.012211  0  0  0.108097  0.083605  0  1.019605  0
H  H22  1  0.04774052  0.54189859  0.07842693  1  0  0.081692  0  0.944898  0  0  0.085946  0  1.016633  0  0  0.089044  0  1.012412  0  0  0.10809  0.083534  0  1.019811  0
H  H23  1  0.95225758  0.04190116  0.42157339  1  0  0.081649  0  0.944843  0  0  0.0859  0  1.016588  0  0  0.088998  0  1.012367  0  0  0.108092  0.083485  0  1.019762  0
H  H24  1  0.91990369  0.29102961  0.05256484  1  0  0.068029  0  0.966563  0  0  0.069579  0  1.043256  0  0  0.072715  0  1.038683  0  0  0.11192  0.067055  0  1.046773  0
H  H25  1  0.08009542  0.79102887  0.44743352  1  0  0.068  0  0.96652  0  0  0.069565  0  1.043209  0  0  0.072696  0  1.038642  0  0  0.111934  0.067042  0  1.046729  0
H  H26  1  0.08008757  0.70896522  0.94743300  1  0  0.067964  0  0.966554  0  0  0.069534  0  1.043268  0  0  0.072675  0  1.038692  0  0  0.111901  0.067016  0  1.04678  0
H  H27  1  0.91990051  0.20897438  0.55256799  1  0  0.068072  0  0.966523  0  0  0.069641  0  1.04319  0  0  0.072763  0  1.038628  0  0  0.111955  0.067117  0  1.046706  0
H  H28  1  0.93696311  0.08433992  0.89798861  1  0  0.084526  0  0.939547  0  0  0.08995  0  1.008324  0  0  0.093399  0  1.003895  0  0  0.111196  0.0873  0  1.011614  0
H  H29  1  0.06301746  0.58433908  0.60200890  1  0  0.084549  0  0.939401  0  0  0.089967  0  1.00819  0  0  0.09342  0  1.003752  0  0  0.111171  0.087313  0  1.011484  0
H  H30  1  0.06302815  0.91565560  0.10200975  1  0  0.084475  0  0.939428  0  0  0.089882  0  1.008233  0  0  0.093332  0  1.0038  0  0  0.111152  0.087229  0  1.011524  0
H  H31  1  0.93697379  0.41565925  0.39798893  1  0  0.084492  0  0.939423  0  0  0.08991  0  1.008223  0  0  0.093361  0  1.00379  0  0  0.111164  0.08726  0  1.01151  0
H  H32  1  0.71686331  0.97826663  0.97381731  1  0  0.117481  0  0.964247  0  0  0.123131  0  1.030221  0  0  0.12688  0  1.029756  0  0  0.103283  0.120437  0  1.030778  0
H  H33  1  0.28313218  0.47826646  0.52618238  1  0  0.117438  0  0.9641  0  0  0.123066  0  1.030118  0  0  0.126815  0  1.029653  0  0  0.103257  0.12037  0  1.030678  0
H  H34  1  0.28314036  0.02172679  0.02618158  1  0  0.117484  0  0.964177  0  0  0.123119  0  1.030184  0  0  0.126867  0  1.029719  0  0  0.103266  0.120424  0  1.030741  0
H  H35  1  0.71686217  0.52173328  0.47381441  1  0  0.117472  0  0.964275  0  0  0.123083  0  1.030285  0  0  0.126832  0  1.02982  0  0  0.103276  0.120388  0  1.030843  0
H  H36  1  0.59763733  0.04374367  0.09116831  1  0  0.072842  0  0.986652  0  0  0.076961  0  1.061204  0  0  0.080531  0  1.056341  0  0  0.099175  0.074216  0  1.064831  0
H  H37  1  0.40237010  0.54374381  0.40883413  1  0  0.072799  0  0.986788  0  0  0.077001  0  1.061261  0  0  0.080574  0  1.056396  0  0  0.099186  0.074253  0  1.064885  0
H  H38  1  0.40236168  0.95624905  0.90883111  1  0  0.072781  0  0.986669  0  0  0.077  0  1.061125  0  0  0.080577  0  1.056252  0  0  0.099177  0.074252  0  1.064745  0
H  H39  1  0.59762736  0.45625944  0.59116528  1  0  0.072825  0  0.98674  0  0  0.077  0  1.061251  0  0  0.080573  0  1.056385  0  0  0.099174  0.074255  0  1.064877  0
C  C40  1  0.88396354  0.30491207  0.79493636  1  0  0.308442  0  3.671719  0  0  0.251769  0  3.928062  0  0  0.26879  0  3.940172  0  0  0.17633  0.24053  0  3.920147  0
C  C41  1  0.11605034  0.80491191  0.70506531  1  0  0.308579  0  3.671616  0  0  0.251899  0  3.927989  0  0  0.268919  0  3.9401  0  0  0.176407  0.240657  0  3.920067  0
C  C42  1  0.11604013  0.69509047  0.20506306  1  0  0.308497  0  3.671687  0  0  0.251829  0  3.928038  0  0  0.268848  0  3.940143  0  0  0.176352  0.240586  0  3.92012  0
C  C43  1  0.88395954  0.19508923  0.29493517  1  0  0.308504  0  3.671724  0  0  0.251797  0  3.928122  0  0  0.268817  0  3.940231  0  0  0.176351  0.240556  0  3.920198  0
C  C44  1  0.66568514  0.42992096  0.77390873  1  0  0.196193  0  3.617811  0  0  0.158405  0  3.860625  0  0  0.171144  0  3.87467  0  0  0.067593  0.15002  0  3.851568  0
C  C45  1  0.33432849  0.92992221  0.72609537  1  0  0.196265  0  3.61757  0  0  0.158519  0  3.86041  0  0  0.171283  0  3.874399  0  0  0.067663  0.150122  0  3.851358  0
C  C46  1  0.33432008  0.57008228  0.22609069  1  0  0.196355  0  3.617994  0  0  0.158534  0  3.860804  0  0  0.17129  0  3.874821  0  0  0.067654  0.150141  0  3.851745  0
C  C47  1  0.66567056  0.07008174  0.27390982  1  0  0.196169  0  3.617682  0  0  0.158402  0  3.860515  0  0  0.171156  0  3.874524  0  0  0.067645  0.150015  0  3.851454  0
C  C48  1  0.74075860  0.47527654  0.83324888  1  0  -0.139291  0  3.675941  0  0  -0.145849  0  3.918111  0  0  -0.157669  0  3.937761  0  0  -0.073804  -0.138818  0  3.905877  0
C  C49  1  0.25924152  0.97527549  0.66675289  1  0  -0.139389  0  3.676383  0  0  -0.145951  0  3.918517  0  0  -0.157769  0  3.938169  0  0  -0.073943  -0.138912  0  3.906268  0
C  C50  1  0.25924507  0.52472671  0.16675054  1  0  -0.139462  0  3.67609  0  0  -0.146004  0  3.918254  0  0  -0.157823  0  3.937901  0  0  -0.073938  -0.138962  0  3.906008  0
C  C51  1  0.74075752  0.02472775  0.33325177  1  0  -0.139395  0  3.676129  0  0  -0.145927  0  3.918249  0  0  -0.157739  0  3.937898  0  0  -0.073942  -0.138896  0  3.906015  0
C  C52  1  0.88825585  0.42850286  0.87330885  1  0  0.203895  0  3.617623  0  0  0.166946  0  3.862185  0  0  0.180202  0  3.875147  0  0  0.070773  0.158256  0  3.853778  0
C  C53  1  0.11176086  0.92850382  0.62669523  1  0  0.203722  0  3.617885  0  0  0.166782  0  3.862406  0  0  0.180037  0  3.875372  0  0  0.07076  0.158097  0  3.853985  0
C  C54  1  0.11174627  0.57149969  0.12669057  1  0  0.203882  0  3.617719  0  0  0.16693  0  3.862281  0  0  0.180184  0  3.875247  0  0  0.070801  0.15824  0  3.853876  0
C  C55  1  0.88824748  0.07150012  0.37330786  1  0  0.203998  0  3.61765  0  0  0.167062  0  3.862188  0  0  0.180308  0  3.875167  0  0  0.070821  0.158377  0  3.853774  0
C  C56  1  0.87160532  0.22164833  0.03433175  1  0  0.319638  0  3.654635  0  0  0.262056  0  3.914053  0  0  0.279846  0  3.924179  0  0  0.184453  0.25024  0  3.907634  0
C  C57  1  0.12839617  0.72164510  0.46566509  1  0  0.319785  0  3.654937  0  0  0.262155  0  3.914383  0  0  0.279938  0  3.92451  0  0  0.184419  0.250331  0  3.90797  0
C  C58  1  0.12839058  0.77834720  0.96566557  1  0  0.31982  0  3.654641  0  0  0.262152  0  3.914177  0  0  0.27993  0  3.924299  0  0  0.184418  0.250323  0  3.90776  0
C  C59  1  0.87160131  0.27835744  0.53433590  1  0  0.319535  0  3.655197  0  0  0.261908  0  3.914591  0  0  0.27971  0  3.924725  0  0  0.184326  0.25009  0  3.90817  0
C  C60  1  0.88049069  0.10621529  0.94947909  1  0  0.195453  0  3.64379  0  0  0.157067  0  3.892397  0  0  0.170265  0  3.905933  0  0  0.071508  0.14842  0  3.883612  0
C  C61  1  0.11950406  0.60621253  0.55051753  1  0  0.195478  0  3.643829  0  0  0.157095  0  3.892422  0  0  0.170294  0  3.905962  0  0  0.071518  0.148446  0  3.88363  0
C  C62  1  0.11950677  0.89377953  0.05051823  1  0  0.195564  0  3.643847  0  0  0.157241  0  3.892404  0  0  0.170439  0  3.905945  0  0  0.071596  0.148602  0  3.883604  0
C  C63  1  0.88048875  0.39378651  0.44948188  1  0  0.19555  0  3.64399  0  0  0.157146  0  3.89254  0  0  0.170345  0  3.906079  0  0  0.071572  0.1485  0  3.883747  0
C  C64  1  0.75827450  0.04866800  0.99112847  1  0  -0.16318  0  3.701276  0  0  -0.169524  0  3.948149  0  0  -0.182697  0  3.969935  0  0  -0.079444  -0.161456  0  3.934183  0
C  C65  1  0.24172123  0.54867058  0.50887248  1  0  -0.163159  0  3.701311  0  0  -0.16948  0  3.948231  0  0  -0.182653  0  3.97002  0  0  -0.079442  -0.161411  0  3.934261  0
C  C66  1  0.24172297  0.95132542  0.00887199  1  0  -0.163205  0  3.701219  0  0  -0.169607  0  3.948171  0  0  -0.182778  0  3.969957  0  0  -0.079496  -0.161535  0  3.934198  0
C  C67  1  0.75827623  0.45133126  0.49112641  1  0  -0.163244  0  3.701608  0  0  -0.169546  0  3.948504  0  0  -0.18272  0  3.970291  0  0  -0.079489  -0.161478  0  3.934538  0
C  C68  1  0.69354530  0.08438499  0.05521506  1  0  0.187185  0  3.645499  0  0  0.150674  0  3.88797  0  0  0.163428  0  3.901898  0  0  0.065467  0.142307  0  3.878953  0
C  C69  1  0.30646099  0.58438327  0.44478451  1  0  0.187308  0  3.645212  0  0  0.150684  0  3.887738  0  0  0.163429  0  3.901653  0  0  0.06547  0.142328  0  3.878713  0
C  C70  1  0.30645681  0.91560843  0.94478226  1  0  0.187221  0  3.645181  0  0  0.150675  0  3.887663  0  0  0.16342  0  3.901585  0  0  0.065456  0.142317  0  3.878633  0
C  C71  1  0.69353647  0.41561998  0.55521491  1  0  0.187316  0  3.645096  0  0  0.150707  0  3.887597  0  0  0.163462  0  3.901518  0  0  0.065499  0.142345  0  3.878583  0
I  I72  1  0.36333823  0.14742186  0.84255565  1  0  -0.474125  0  1.115972  0  0  -0.425521  0  1.449803  0  0  -0.44529  0  1.426659  0  0  -0.238504  -0.410654  0  1.465192  0
I  I73  1  0.63666162  0.64742288  0.65744440  1  0  -0.474127  0  1.115998  0  0  -0.425519  0  1.44984  0  0  -0.445288  0  1.426697  0  0  -0.238503  -0.41065  0  1.465241  0
I  I74  1  0.63665614  0.85257857  0.15744376  1  0  -0.474118  0  1.115983  0  0  -0.425491  0  1.44979  0  0  -0.445254  0  1.426647  0  0  -0.238494  -0.410621  0  1.465186  0
I  I75  1  0.36333895  0.35257826  0.34255607  1  0  -0.474121  0  1.115972  0  0  -0.425527  0  1.449823  0  0  -0.445293  0  1.426682  0  0  -0.238509  -0.410661  0  1.465215  0
I  I76  1  0.36260458  0.37686725  0.99739997  1  0  -0.451932  0  1.159008  0  0  -0.400949  0  1.502885  0  0  -0.42024  0  1.479807  0  0  -0.243076  -0.386938  0  1.518336  0
I  I77  1  0.63740847  0.87686775  0.50259904  1  0  -0.451963  0  1.159004  0  0  -0.400986  0  1.502886  0  0  -0.420274  0  1.479805  0  0  -0.243087  -0.386966  0  1.518336  0
I  I78  1  0.63740373  0.62313038  0.00259788  1  0  -0.451936  0  1.159035  0  0  -0.400961  0  1.502937  0  0  -0.420251  0  1.47986  0  0  -0.243065  -0.386943  0  1.518393  0
I  I79  1  0.36258900  0.12313339  0.49740248  1  0  -0.451942  0  1.159015  0  0  -0.400986  0  1.502931  0  0  -0.420275  0  1.479851  0  0  -0.24308  -0.386972  0  1.518384  0
I  I80  1  0.76272532  0.10530893  0.67776600  1  0  -0.434917  0  1.168122  0  0  -0.381841  0  1.510182  0  0  -0.402587  0  1.487321  0  0  -0.209073  -0.366695  0  1.525622  0
I  I81  1  0.23726786  0.60530205  0.82222747  1  0  -0.434881  0  1.168254  0  0  -0.381776  0  1.510317  0  0  -0.402526  0  1.487462  0  0  -0.209037  -0.366632  0  1.525783  0
I  I82  1  0.23726749  0.89469361  0.32223341  1  0  -0.434893  0  1.16817  0  0  -0.381805  0  1.510236  0  0  -0.402549  0  1.487379  0  0  -0.209045  -0.366657  0  1.5257  0
I  I83  1  0.76273115  0.39469558  0.17777038  1  0  -0.434881  0  1.16821  0  0  -0.381782  0  1.510269  0  0  -0.402525  0  1.48741  0  0  -0.209055  -0.366647  0  1.525724  0
I  I84  1  0.24861325  0.34133027  0.65886486  1  0  -0.461414  0  1.118178  0  0  -0.415752  0  1.450925  0  0  -0.43801  0  1.430345  0  0  -0.227754  -0.398934  0  1.464535  0
I  I85  1  0.75139014  0.84132045  0.84113653  1  0  -0.461448  0  1.118201  0  0  -0.415771  0  1.450935  0  0  -0.438031  0  1.430354  0  0  -0.227768  -0.398932  0  1.464556  0
I  I86  1  0.75138885  0.65867368  0.34113089  1  0  -0.461413  0  1.118196  0  0  -0.415736  0  1.450915  0  0  -0.437989  0  1.430337  0  0  -0.227765  -0.398913  0  1.464532  0
I  I87  1  0.24861508  0.15867226  0.15886447  1  0  -0.461449  0  1.118237  0  0  -0.415776  0  1.450958  0  0  -0.438029  0  1.430378  0  0  -0.227781  -0.398958  0  1.464571  0
N  N88  1  0.95886173  0.34319045  0.85394108  1  0  -0.3258  0  3.261389  0  0  -0.234424  0  3.523426  0  0  -0.257744  0  3.537894  0  0  -0.324676  -0.219192  0  3.513615  0
N  N89  1  0.04114632  0.84318730  0.64605717  1  0  -0.325778  0  3.261233  0  0  -0.234395  0  3.523269  0  0  -0.257716  0  3.537737  0  0  -0.32471  -0.219182  0  3.513505  0
N  N90  1  0.04114039  0.65681140  0.14605886  1  0  -0.325787  0  3.26148  0  0  -0.234419  0  3.523538  0  0  -0.257739  0  3.538012  0  0  -0.324675  -0.219191  0  3.513735  0
N  N91  1  0.95886200  0.15681384  0.35394173  1  0  -0.325854  0  3.261162  0  0  -0.234472  0  3.523218  0  0  -0.257787  0  3.537689  0  0  -0.324703  -0.219241  0  3.513414  0
N  N92  1  0.73821195  0.34488996  0.75476559  1  0  -0.335302  0  3.275945  0  0  -0.242286  0  3.534782  0  0  -0.2661  0  3.550164  0  0  -0.324136  -0.226704  0  3.524402  0
N  N93  1  0.26178993  0.84488638  0.74523425  1  0  -0.335412  0  3.27604  0  0  -0.242409  0  3.534876  0  0  -0.266225  0  3.550265  0  0  -0.324166  -0.22683  0  3.524513  0
N  N94  1  0.26179017  0.65511188  0.24523278  1  0  -0.335242  0  3.275952  0  0  -0.242219  0  3.534762  0  0  -0.266037  0  3.550155  0  0  -0.324067  -0.226639  0  3.52439  0
N  N95  1  0.73821065  0.15511405  0.25476780  1  0  -0.335233  0  3.275869  0  0  -0.242221  0  3.534723  0  0  -0.26604  0  3.55012  0  0  -0.324104  -0.226639  0  3.52435  0
N  N96  1  0.74656457  0.17150034  0.07585414  1  0  -0.328505  0  3.274638  0  0  -0.236822  0  3.531946  0  0  -0.259669  0  3.545834  0  0  -0.320609  -0.222086  0  3.522893  0
N  N97  1  0.25343332  0.67150317  0.42414655  1  0  -0.328822  0  3.274629  0  0  -0.237083  0  3.531968  0  0  -0.259899  0  3.545821  0  0  -0.320689  -0.222349  0  3.522912  0
N  N98  1  0.25343134  0.82849378  0.92414475  1  0  -0.328545  0  3.2743  0  0  -0.236872  0  3.531719  0  0  -0.259699  0  3.545587  0  0  -0.320558  -0.222162  0  3.522739  0
N  N99  1  0.74656725  0.32850007  0.57585392  1  0  -0.328665  0  3.274767  0  0  -0.236947  0  3.532093  0  0  -0.259792  0  3.545969  0  0  -0.320643  -0.222224  0  3.523062  0
N  N100  1  0.94104948  0.19154821  0.97204400  1  0  -0.329143  0  3.253511  0  0  -0.240788  0  3.516344  0  0  -0.263604  0  3.530393  0  0  -0.320507  -0.226023  0  3.507047  0
N  N101  1  0.05894150  0.69154784  0.52795321  1  0  -0.329125  0  3.253455  0  0  -0.240728  0  3.516262  0  0  -0.263548  0  3.530321  0  0  -0.320396  -0.225951  0  3.506954  0
N  N102  1  0.05894178  0.80844872  0.02795437  1  0  -0.329216  0  3.253579  0  0  -0.240824  0  3.516398  0  0  -0.263641  0  3.530456  0  0  -0.320481  -0.226054  0  3.507096  0
N  N103  1  0.94105442  0.30845259  0.47204726  1  0  -0.329087  0  3.253561  0  0  -0.240643  0  3.51629  0  0  -0.26346  0  3.530341  0  0  -0.32042  -0.225872  0  3.506985  0
