# generated using pymatgen
data_Zn4H3C24S4BrCl4O13
_symmetry_space_group_name_H-M   'P 1'
_cell_length_a   19.66236853
_cell_length_b   19.74825318
_cell_length_c   33.36197697
_cell_angle_alpha   78.97863584
_cell_angle_beta   79.23193198
_cell_angle_gamma   63.98863000
_symmetry_Int_Tables_number   1
_chemical_formula_structural   Zn4H3C24S4BrCl4O13
_chemical_formula_sum   'Zn16 H12 C96 S16 Br4 Cl16 O52'
_cell_volume   11349.29801893
_cell_formula_units_Z   4
loop_
 _symmetry_equiv_pos_site_id
 _symmetry_equiv_pos_as_xyz
  1  'x, y, z'
loop_
 _atom_site_type_symbol
 _atom_site_label
 _atom_site_symmetry_multiplicity
 _atom_site_fract_x
 _atom_site_fract_y
 _atom_site_fract_z
 _atom_site_occupancy
 _atom_site_pbe_bader_charge
 _atom_site_pbe_bader_spin_density
 _atom_site_pbe_cm5_charge
 _atom_site_pbe_ddec_charge
 _atom_site_pbe_ddec_spin_density
 _atom_site_pbe_ddec_sum_bond_order
 _atom_site_pbe_magmom
Zn  Zn0  1  0.05512358  0.40010268  0.47786796  1  1.317636  0  0.672531  0.97567  0  2.322216  0
Zn  Zn1  1  0.98581506  0.48380769  0.56062168  1  1.303218  0  0.674523  0.970631  0  2.364586  0
Zn  Zn2  1  0.05825472  0.56093395  0.48199464  1  1.321589  0  0.674182  0.971183  0  2.380551  0
Zn  Zn3  1  0.90041267  0.55498732  0.48008679  1  1.318046  0  0.674479  0.971822  0  2.38031  0
Zn  Zn4  1  0.69320246  0.34909232  0.27164885  1  1.316717  0  0.672886  0.970673  0  2.346322  0
Zn  Zn5  1  0.69088685  0.18770791  0.26599231  1  1.316117  0  0.674215  0.974408  0  2.33882  0
Zn  Zn6  1  0.76964646  0.26629230  0.19033447  1  1.320737  0  0.674491  0.972226  0  2.376829  0
Zn  Zn7  1  0.84798132  0.19631093  0.27268749  1  1.316025  0  0.67372  0.964803  0  2.385101  0
Zn  Zn8  1  0.26594157  0.76585069  0.69013609  1  1.325609  0  0.674197  0.964391  0  2.390928  0
Zn  Zn9  1  0.34980511  0.69707691  0.77173722  1  1.322075  0  0.674109  0.974435  0  2.341436  0
Zn  Zn10  1  0.19205059  0.84851229  0.77094268  1  1.318634  0  0.674086  0.975215  0  2.358546  0
Zn  Zn11  1  0.19136668  0.68726757  0.76686356  1  1.311617  0  0.672818  0.968709  0  2.36047  0
Zn  Zn12  1  0.55872583  0.06164707  0.98323108  1  1.32046  0  0.673904  0.969081  0  2.362233  0
Zn  Zn13  1  0.40234815  0.05336457  0.97782221  1  1.317922  0  0.674334  0.965308  0  2.386118  0
Zn  Zn14  1  0.55637483  0.90041650  0.97851800  1  1.320246  0  0.672469  0.971272  0  2.341226  0
Zn  Zn15  1  0.48206155  0.98481572  0.06055045  1  1.315902  0  0.673395  0.969124  0  2.357858  0
H  H16  1  0.95367852  0.25030190  0.35175379  1  0.112484  0  0.112116  0.119582  0  0.98841  0
H  H17  1  0.74616798  0.45421074  0.34976137  1  0.087457  0  0.109969  0.128505  0  0.997687  0
H  H18  1  0.99827833  0.30136917  0.39980735  1  0.137549  0  0.11307  0.121676  0  0.988828  0
H  H19  1  0.09631245  0.59578353  0.69954829  1  0.077452  0  0.112268  0.119317  0  0.988595  0
H  H20  1  0.20206369  0.70144666  0.59896506  1  0.093639  0  0.10989  0.128674  0  0.998883  0
H  H21  1  0.05035399  0.55109000  0.64896999  1  0.101107  0  0.112865  0.121265  0  0.991078  0
H  H22  1  0.55007816  0.05118227  0.15367187  1  0.086467  0  0.11256  0.120019  0  0.987944  0
H  H23  1  0.65077816  0.15209641  0.04816896  1  0.134845  0  0.109729  0.128023  0  0.998781  0
H  H24  1  0.60151575  0.10005591  0.19934343  1  0.142816  0  0.112966  0.12151  0  0.990831  0
H  H25  1  0.50151282  0.79390378  0.89789203  1  0.130142  0  0.112684  0.119761  0  0.987347  0
H  H26  1  0.29840822  0.00208434  0.90023006  1  0.149128  0  0.109648  0.128234  0  0.999209  0
H  H27  1  0.44822234  0.75171686  0.84981256  1  0.143448  0  0.112681  0.12093  0  0.991342  0
C  C28  1  0.06169821  0.31645959  0.56178490  1  1.610438  0  0.216797  0.624829  0  4.209871  0
C  C29  1  0.06930821  0.57067661  0.56853613  1  1.558851  0  0.228219  0.614666  0  4.158664  0
C  C30  1  0.18333542  0.43970383  0.43840485  1  1.615547  0  0.215943  0.623558  0  4.207534  0
C  C31  1  0.93601352  0.68402303  0.43874774  1  1.631021  0  0.215969  0.621621  0  4.211478  0
C  C32  1  0.93041863  0.43070117  0.43105859  1  1.57623  0  0.227722  0.616254  0  4.155195  0
C  C33  1  0.81745127  0.56090939  0.56293332  1  1.58421  0  0.21664  0.62219  0  4.21077  0
C  C34  1  0.56605087  0.30947315  0.31103289  1  1.596667  0  0.215969  0.623191  0  4.210121  0
C  C35  1  0.68268391  0.17989106  0.18043332  1  1.575708  0  0.227752  0.613698  0  4.157375  0
C  C36  1  0.68973333  0.43329364  0.18826424  1  1.605143  0  0.216415  0.623905  0  4.207365  0
C  C37  1  0.93560177  0.18821592  0.19001676  1  1.575274  0  0.21641  0.621927  0  4.213537  0
C  C38  1  0.81853832  0.32040328  0.31934704  1  1.57464  0  0.231208  0.605519  0  4.159586  0
C  C39  1  0.81303802  0.06590473  0.31131742  1  1.608664  0  0.214962  0.619814  0  4.218136  0
C  C40  1  0.43313456  0.68954382  0.68804433  1  1.584889  0  0.215737  0.621887  0  4.212645  0
C  C41  1  0.31797969  0.82078958  0.81887877  1  1.567552  0  0.228217  0.615581  0  4.154082  0
C  C42  1  0.18815281  0.93286590  0.68795820  1  1.583505  0  0.21617  0.622851  0  4.21197  0
C  C43  1  0.06545960  0.80871007  0.81090607  1  1.589564  0  0.216828  0.623762  0  4.205763  0
C  C44  1  0.18047584  0.67923186  0.68124563  1  1.563522  0  0.23104  0.604637  0  4.162021  0
C  C45  1  0.31424656  0.56596069  0.81112988  1  1.587743  0  0.216724  0.625247  0  4.208105  0
C  C46  1  0.43702659  0.18388656  0.93857993  1  1.618497  0  0.215502  0.620183  0  4.215892  0
C  C47  1  0.43259301  0.92860599  0.93059898  1  1.573943  0  0.232266  0.607628  0  4.15861  0
C  C48  1  0.68362699  0.94060121  0.93884497  1  1.593294  0  0.215912  0.623016  0  4.210161  0
C  C49  1  0.56062935  0.81707924  0.06212129  1  1.58484  0  0.216343  0.624697  0  4.208264  0
C  C50  1  0.56787175  0.07036180  0.06969062  1  1.564825  0  0.231824  0.605752  0  4.158413  0
C  C51  1  0.31530074  0.06189698  0.06045492  1  1.570026  0  0.216431  0.622268  0  4.211132  0
C  C52  1  0.89822179  0.40598361  0.40210803  1  -0.031023  0  -0.014425  -0.080069  0  3.914511  0
C  C53  1  0.84698242  0.34945178  0.34792515  1  -0.037515  0  -0.009413  -0.008499  0  3.964585  0
C  C54  1  0.82637922  0.44915083  0.38758431  1  -0.064026  0  -0.002791  0.107478  0  3.906562  0
C  C55  1  0.91846222  0.30584719  0.36191915  1  -0.03228  0  -0.079899  -0.097327  0  3.970942  0
C  C56  1  0.80153598  0.42074749  0.36079614  1  0.035634  0  -0.086071  -0.148529  0  3.95422  0
C  C57  1  0.94298680  0.33428684  0.38852347  1  0.011713  0  -0.075987  -0.076536  0  3.963274  0
C  C58  1  0.09978601  0.60048684  0.59573032  1  0.084561  0  -0.014349  -0.078968  0  3.916442  0
C  C59  1  0.15199470  0.65142537  0.65210912  1  -0.117458  0  -0.008887  -0.009455  0  3.965871  0
C  C60  1  0.14317769  0.64336950  0.58175092  1  -0.162648  0  -0.002987  0.107126  0  3.910665  0
C  C61  1  0.10912655  0.60889394  0.66657614  1  0.067447  0  -0.080047  -0.096654  0  3.975329  0
C  C62  1  0.16871649  0.66839710  0.60984499  1  0.13105  0  -0.085896  -0.1475  0  3.94916  0
C  C63  1  0.08378573  0.58420218  0.63853626  1  -0.055203  0  -0.075684  -0.076088  0  3.963224  0
C  C64  1  0.30516795  0.45384545  0.40072645  1  0.143604  0  0.011438  0.105573  0  4.073967  0
C  C65  1  0.44483506  0.29487458  0.34949624  1  0.135166  0  0.0098  0.103377  0  4.079692  0
C  C66  1  0.25851486  0.41535818  0.41386798  1  -0.133242  0  -0.028156  -0.184932  0  3.925532  0
C  C67  1  0.49138378  0.33337174  0.33612032  1  -0.122503  0  -0.028252  -0.185529  0  3.927449  0
C  C68  1  0.37702127  0.33882681  0.37307622  1  -0.062965  0  -0.027783  -0.072218  0  4.097642  0
C  C69  1  0.37316897  0.40981046  0.37725221  1  -0.155749  0  -0.027922  -0.073557  0  4.095358  0
C  C70  1  0.72573814  0.57543220  0.63072823  1  0.130079  0  0.010524  0.104647  0  4.077992  0
C  C71  1  0.52473261  0.67380310  0.62023170  1  0.222863  0  0.01135  0.106278  0  4.074518  0
C  C72  1  0.74310337  0.58500111  0.58816920  1  -0.110684  0  -0.028061  -0.184289  0  3.929632  0
C  C73  1  0.50750615  0.66451645  0.66283891  1  -0.131923  0  -0.028221  -0.185311  0  3.93058  0
C  C74  1  0.60441906  0.64125005  0.60853337  1  -0.173021  0  -0.027218  -0.074101  0  4.096502  0
C  C75  1  0.64606779  0.60783984  0.64238650  1  -0.105439  0  -0.028328  -0.073131  0  4.099701  0
C  C76  1  0.07642307  0.22474432  0.62975548  1  0.104891  0  0.010548  0.10579  0  4.075197  0
C  C77  1  0.17425895  0.02436064  0.62002087  1  0.148982  0  0.011108  0.105773  0  4.077751  0
C  C78  1  0.08607848  0.24209040  0.58714856  1  -0.067081  0  -0.028163  -0.186598  0  3.927994  0
C  C79  1  0.16436196  0.00713378  0.66262975  1  -0.127357  0  -0.028293  -0.186838  0  3.931564  0
C  C80  1  0.14213691  0.10378791  0.60805000  1  -0.125256  0  -0.027442  -0.072573  0  4.09714  0
C  C81  1  0.10864030  0.14531170  0.64169687  1  -0.10384  0  -0.027531  -0.073526  0  4.098464  0
C  C82  1  0.84217544  0.80169296  0.39694502  1  0.147101  0  0.010358  0.104063  0  4.079201  0
C  C83  1  0.90699566  0.94804804  0.35296704  1  0.111812  0  0.011012  0.105717  0  4.075445  0
C  C84  1  0.91059703  0.75849793  0.41367754  1  -0.153527  0  -0.027927  -0.184388  0  3.930545  0
C  C85  1  0.83852795  0.99122532  0.33622286  1  -0.101414  0  -0.028636  -0.184877  0  3.931802  0
C  C86  1  0.90835726  0.87879720  0.37505095  1  -0.107544  0  -0.027965  -0.075131  0  4.09975  0
C  C87  1  0.84102437  0.87076319  0.37472476  1  -0.117598  0  -0.026647  -0.070171  0  4.095736  0
C  C88  1  0.65490743  0.15349252  0.15010292  1  0.001504  0  -0.014504  -0.078335  0  3.910238  0
C  C89  1  0.59752709  0.09875455  0.09801845  1  -0.050636  0  -0.008094  -0.008227  0  3.964465  0
C  C90  1  0.66849739  0.16810453  0.10688390  1  -0.062654  0  -0.003333  0.10648  0  3.90703  0
C  C91  1  0.58332975  0.08381026  0.14080060  1  -0.01481  0  -0.081367  -0.098695  0  3.97386  0
C  C92  1  0.63999524  0.14076055  0.08140176  1  0.040478  0  -0.085331  -0.146635  0  3.950709  0
C  C93  1  0.61186096  0.11098350  0.16602974  1  -0.064805  0  -0.075428  -0.076383  0  3.961166  0
C  C94  1  0.67379924  0.52492011  0.12026325  1  0.150607  0  0.010716  0.105008  0  4.076501  0
C  C95  1  0.57575239  0.72531079  0.13009903  1  0.156647  0  0.01059  0.105518  0  4.077205  0
C  C96  1  0.66470144  0.50761915  0.16289098  1  -0.064745  0  -0.027777  -0.185226  0  3.925648  0
C  C97  1  0.58501017  0.74274428  0.08749164  1  -0.134551  0  -0.028834  -0.187629  0  3.930744  0
C  C98  1  0.60812064  0.64586347  0.14200982  1  -0.110568  0  -0.027359  -0.073299  0  4.097886  0
C  C99  1  0.64126811  0.60438090  0.10833322  1  -0.174536  0  -0.027284  -0.072532  0  4.097101  0
C  C100  1  0.08304745  0.12299968  0.17810210  1  0.187557  0  0.010672  0.104804  0  4.077646  0
C  C101  1  0.16781900  0.12620396  0.07235564  1  0.109935  0  0.011263  0.106367  0  4.075609  0
C  C102  1  0.01055913  0.16248898  0.16544188  1  -0.144091  0  -0.027944  -0.185139  0  3.932309  0
C  C103  1  0.24033109  0.08700864  0.08502842  1  -0.100266  0  -0.028578  -0.186173  0  3.932332  0
C  C104  1  0.11045029  0.13931412  0.10634531  1  -0.14638  0  -0.027625  -0.074234  0  4.097839  0
C  C105  1  0.14039227  0.10980108  0.14411031  1  -0.163179  0  -0.028002  -0.072537  0  4.096545  0
C  C106  1  0.34389144  0.85209713  0.84771080  1  -0.02339  0  -0.014505  -0.079864  0  3.911413  0
C  C107  1  0.40292438  0.90091656  0.90191942  1  -0.044402  0  -0.009215  -0.009939  0  3.963373  0
C  C108  1  0.30157625  0.92341681  0.86234072  1  -0.094541  0  -0.003316  0.10694  0  3.908357  0
C  C109  1  0.44567985  0.82991374  0.88782675  1  -0.04876  0  -0.080376  -0.097583  0  3.972806  0
C  C110  1  0.33118884  0.94709759  0.88909505  1  0.046816  0  -0.085672  -0.146946  0  3.949998  0
C  C111  1  0.41605661  0.80661645  0.86118981  1  -0.028808  0  -0.075452  -0.075328  0  3.961488  0
C  C112  1  0.40816277  0.44803549  0.85294225  1  0.171207  0  0.00999  0.10313  0  4.080859  0
C  C113  1  0.34294460  0.30194453  0.89703411  1  0.109805  0  0.011139  0.104997  0  4.077008  0
C  C114  1  0.33985642  0.49127170  0.83610583  1  -0.152556  0  -0.027853  -0.185184  0  3.930108  0
C  C115  1  0.41141985  0.25862385  0.91373863  1  -0.107556  0  -0.028245  -0.184727  0  3.930362  0
C  C116  1  0.34181798  0.37104402  0.87483558  1  -0.107918  0  -0.027674  -0.07407  0  4.097409  0
C  C117  1  0.40922726  0.37896845  0.87515503  1  -0.115001  0  -0.02711  -0.070814  0  4.094986  0
C  C118  1  0.94409683  0.79463044  0.84955503  1  0.222753  0  0.010559  0.104626  0  4.080413  0
C  C119  1  0.80531968  0.95433736  0.90052773  1  0.187141  0  0.01143  0.105862  0  4.075488  0
C  C120  1  0.99080218  0.83290085  0.83595203  1  -0.155392  0  -0.028113  -0.184978  0  3.928802  0
C  C121  1  0.75848061  0.91616028  0.91403484  1  -0.127383  0  -0.028791  -0.18648  0  3.929196  0
C  C122  1  0.87299058  0.90994076  0.87699392  1  -0.131612  0  -0.028083  -0.073702  0  4.096085  0
C  C123  1  0.87642877  0.83897834  0.87309987  1  -0.155144  0  -0.027536  -0.072951  0  4.097579  0
S  S124  1  0.29805436  0.32555962  0.39768946  1  0.312013  0  0.093334  0.158554  0  2.772636  0
S  S125  1  0.45207299  0.42307009  0.35246974  1  0.301305  0  0.095202  0.161812  0  2.769857  0
S  S126  1  0.66212518  0.63332149  0.56252782  1  0.307831  0  0.096852  0.163462  0  2.773076  0
S  S127  1  0.58848454  0.61600650  0.68841862  1  0.298112  0  0.093838  0.159488  0  2.775636  0
S  S128  1  0.13443610  0.16134562  0.56189668  1  0.303598  0  0.094223  0.160167  0  2.771388  0
S  S129  1  0.11599981  0.08788576  0.68786635  1  0.300332  0  0.095303  0.162177  0  2.774623  0
S  S130  1  0.97323590  0.80225758  0.40221762  1  0.30194  0  0.096194  0.162801  0  2.775058  0
S  S131  1  0.77616298  0.94720551  0.34750275  1  0.31159  0  0.093998  0.159454  0  2.774501  0
S  S132  1  0.61634320  0.58832936  0.18817190  1  0.307199  0  0.095398  0.16191  0  2.770474  0
S  S133  1  0.63314572  0.66201424  0.06219020  1  0.307168  0  0.094268  0.160644  0  2.77187  0
S  S134  1  0.01262997  0.18319179  0.11214643  1  0.345635  0  0.096808  0.163871  0  2.775563  0
S  S135  1  0.23821872  0.06620155  0.13832212  1  0.350863  0  0.094504  0.160387  0  2.774153  0
S  S136  1  0.27715838  0.44756245  0.84751866  1  0.299882  0  0.094553  0.160884  0  2.774708  0
S  S137  1  0.47398383  0.30246292  0.90239980  1  0.3049  0  0.095261  0.161193  0  2.773229  0
S  S138  1  0.95194422  0.92278225  0.85198215  1  0.304442  0  0.096223  0.162564  0  2.775459  0
S  S139  1  0.79739035  0.82621921  0.89804972  1  0.294075  0  0.093501  0.159525  0  2.773959  0
Br  Br140  1  0.75617279  0.54720880  0.40143521  1  -0.029066  0  0.019461  -0.059314  0  1.396067  0
Br  Br141  1  0.17242128  0.67145962  0.52563165  1  -0.030163  0  0.019384  -0.059343  0  1.394764  0
Br  Br142  1  0.72439072  0.22442084  0.07836820  1  -0.022875  0  0.019234  -0.059487  0  1.394883  0
Br  Br143  1  0.20313200  0.99430122  0.84862214  1  -0.030626  0  0.019784  -0.058932  0  1.384604  0
Cl  Cl144  1  0.28696417  0.54229978  0.41045782  1  -0.151555  0  0.011952  -0.025335  0  1.503171  0
Cl  Cl145  1  0.46303180  0.20631829  0.33989102  1  -0.162784  0  0.010196  -0.026853  0  1.490508  0
Cl  Cl146  1  0.78895530  0.53105088  0.66620450  1  -0.157947  0  0.009736  -0.027718  0  1.490866  0
Cl  Cl147  1  0.46156451  0.71807240  0.58474112  1  -0.158043  0  0.012148  -0.024572  0  1.493305  0
Cl  Cl148  1  0.03214237  0.28763688  0.66501185  1  -0.155868  0  0.010288  -0.026947  0  1.494112  0
Cl  Cl149  1  0.21839557  0.96134501  0.58483884  1  -0.14873  0  0.011562  -0.025145  0  1.494595  0
Cl  Cl150  1  0.76719545  0.77814302  0.40106376  1  -0.149974  0  0.011952  -0.025411  0  1.501712  0
Cl  Cl151  1  0.98218280  0.97137194  0.34870651  1  -0.153922  0  0.010376  -0.026818  0  1.493327  0
Cl  Cl152  1  0.71726023  0.46194435  0.08503027  1  -0.156534  0  0.011859  -0.025496  0  1.503063  0
Cl  Cl153  1  0.53197808  0.78823032  0.16535915  1  -0.151649  0  0.010965  -0.025898  0  1.489721  0
Cl  Cl154  1  0.10458154  0.09263358  0.22746078  1  -0.152911  0  0.01082  -0.02642  0  1.492591  0
Cl  Cl155  1  0.14617891  0.15653564  0.02302238  1  -0.145841  0  0.012447  -0.024516  0  1.492944  0
Cl  Cl156  1  0.48336815  0.47130590  0.84868471  1  -0.152723  0  0.011261  -0.025534  0  1.489323  0
Cl  Cl157  1  0.26778479  0.27859210  0.90130710  1  -0.15345  0  0.011703  -0.025089  0  1.492335  0
Cl  Cl158  1  0.96199865  0.70603445  0.84017578  1  -0.153654  0  0.010446  -0.02666  0  1.489867  0
Cl  Cl159  1  0.78761258  0.04286502  0.90990540  1  -0.155301  0  0.012628  -0.024009  0  1.49002  0
O  O160  1  0.00076833  0.49821015  0.50016564  1  -1.218143  0  -0.570083  -1.031355  0  2.516925  0
O  O161  1  0.07798566  0.31504235  0.52282203  1  -1.173834  0  -0.319809  -0.546506  0  2.316677  0
O  O162  1  0.03323798  0.53071400  0.58655759  1  -1.169545  0  -0.313246  -0.541939  0  2.330776  0
O  O163  1  0.15423533  0.50623005  0.44904461  1  -1.165811  0  -0.313664  -0.537197  0  2.373138  0
O  O164  1  0.02694504  0.37497760  0.58060904  1  -1.175752  0  -0.314317  -0.539092  0  2.371655  0
O  O165  1  0.15399871  0.39136437  0.44667554  1  -1.165214  0  -0.319385  -0.547185  0  2.315578  0
O  O166  1  0.08116520  0.58713621  0.52993991  1  -1.152392  0  -0.313062  -0.544878  0  2.447916  0
O  O167  1  0.00384585  0.65696799  0.44856571  1  -1.167843  0  -0.318063  -0.540583  0  2.3315  0
O  O168  1  0.88935261  0.49469181  0.44381710  1  -1.180301  0  -0.314179  -0.546229  0  2.453181  0
O  O169  1  0.88931355  0.65321818  0.44854302  1  -1.173969  0  -0.312993  -0.538134  0  2.368803  0
O  O170  1  0.99691020  0.38522700  0.44077415  1  -1.162566  0  -0.313125  -0.544928  0  2.31663  0
O  O171  1  0.87680694  0.52593789  0.58146524  1  -1.166535  0  -0.314396  -0.540058  0  2.365514  0
O  O172  1  0.81507525  0.57791104  0.52400184  1  -1.140871  0  -0.31767  -0.540182  0  2.331707  0
O  O173  1  0.74937448  0.25011768  0.25060050  1  -1.223626  0  -0.570199  -1.031066  0  2.517947  0
O  O174  1  0.59503537  0.35813958  0.30307467  1  -1.172309  0  -0.319229  -0.543721  0  2.322639  0
O  O175  1  0.66476988  0.16186845  0.21855950  1  -1.16463  0  -0.313142  -0.542979  0  2.322251  0
O  O176  1  0.72733486  0.37475299  0.16963976  1  -1.173567  0  -0.313805  -0.538724  0  2.370917  0
O  O177  1  0.59503384  0.24360231  0.29955221  1  -1.171292  0  -0.314343  -0.541668  0  2.363983  0
O  O178  1  0.67122225  0.43462655  0.22713831  1  -1.173383  0  -0.318857  -0.544634  0  2.319721  0
O  O179  1  0.72171193  0.21794486  0.16619330  1  -1.173027  0  -0.312762  -0.544347  0  2.452464  0
O  O180  1  0.87827287  0.22420615  0.16950396  1  -1.166077  0  -0.318105  -0.541526  0  2.331476  0
O  O181  1  0.86267099  0.25479732  0.30881830  1  -1.1706  0  -0.310614  -0.539781  0  2.340897  0
O  O182  1  0.93393268  0.17294519  0.22893168  1  -1.161308  0  -0.313401  -0.537325  0  2.371039  0
O  O183  1  0.75294144  0.36333468  0.30796375  1  -1.170275  0  -0.311266  -0.539693  0  2.331265  0
O  O184  1  0.74671997  0.09166814  0.29962370  1  -1.171628  0  -0.318982  -0.544608  0  2.325153  0
O  O185  1  0.85853132  0.09812403  0.30363354  1  -1.167298  0  -0.313182  -0.535542  0  2.375667  0
O  O186  1  0.25005192  0.74913159  0.75045480  1  -1.232563  0  -0.570418  -1.031533  0  2.518239  0
O  O187  1  0.37419902  0.72422109  0.66912876  1  -1.159277  0  -0.313402  -0.535799  0  2.374527  0
O  O188  1  0.36445192  0.75564193  0.80821535  1  -1.171044  0  -0.313724  -0.544249  0  2.324338  0
O  O189  1  0.16989459  0.93428038  0.72684125  1  -1.164813  0  -0.318943  -0.543836  0  2.325975  0
O  O190  1  0.43480576  0.67393008  0.72705453  1  -1.170625  0  -0.319483  -0.545925  0  2.322267  0
O  O191  1  0.22438898  0.87419816  0.66933367  1  -1.161588  0  -0.314123  -0.538278  0  2.374602  0
O  O192  1  0.25241591  0.86072420  0.80724818  1  -1.170889  0  -0.313285  -0.546377  0  2.444869  0
O  O193  1  0.09405490  0.85766427  0.80237536  1  -1.154647  0  -0.319067  -0.543622  0  2.326917  0
O  O194  1  0.16497372  0.66143547  0.71957518  1  -1.159729  0  -0.309984  -0.540055  0  2.330856  0
O  O195  1  0.09487963  0.74234406  0.80003701  1  -1.170504  0  -0.31414  -0.540405  0  2.362865  0
O  O196  1  0.21792905  0.71853898  0.66516353  1  -1.167154  0  -0.311422  -0.537069  0  2.34726  0
O  O197  1  0.35959354  0.59834992  0.80278764  1  -1.156864  0  -0.314189  -0.541879  0  2.362036  0
O  O198  1  0.24742205  0.59144426  0.80011028  1  -1.166506  0  -0.319662  -0.543979  0  2.32854  0
O  O199  1  0.50077218  0.99905718  0.00011296  1  -1.228516  0  -0.569986  -1.030621  0  2.517382  0
O  O200  1  0.50365012  0.15802892  0.94991854  1  -1.16835  0  -0.319015  -0.543034  0  2.326328  0
O  O201  1  0.38928893  0.99404133  0.94156643  1  -1.168905  0  -0.311683  -0.538686  0  2.34744  0
O  O202  1  0.65437597  0.89216629  0.94701465  1  -1.176793  0  -0.319606  -0.545492  0  2.32428  0
O  O203  1  0.39159934  0.15157811  0.94658718  1  -1.164334  0  -0.313048  -0.536482  0  2.373003  0
O  O204  1  0.65467482  0.00682874  0.94987077  1  -1.16663  0  -0.314049  -0.538968  0  2.366241  0
O  O205  1  0.49830199  0.88484462  0.94164058  1  -1.171541  0  -0.310599  -0.542356  0  2.323697  0
O  O206  1  0.57847814  0.81542541  0.02322181  1  -1.163324  0  -0.319875  -0.545281  0  2.322322  0
O  O207  1  0.52921136  0.03248183  0.08640052  1  -1.161491  0  -0.310804  -0.540931  0  2.329768  0
O  O208  1  0.52438355  0.87580604  0.08070442  1  -1.16047  0  -0.314241  -0.540502  0  2.367417  0
O  O209  1  0.58379527  0.08646915  0.03121440  1  -1.173986  0  -0.311482  -0.539044  0  2.339566  0
O  O210  1  0.31664996  0.07663908  0.02152042  1  -1.141025  0  -0.313715  -0.537012  0  2.370826  0
O  O211  1  0.37285145  0.02712149  0.08087803  1  -1.163944  0  -0.319743  -0.54438  0  2.32586  0
