# generated using pymatgen
data_ZnH22(C12N5)2
_symmetry_space_group_name_H-M   'P 1'
_cell_length_a   9.61496032
_cell_length_b   10.27498571
_cell_length_c   13.32212681
_cell_angle_alpha   98.67001369
_cell_angle_beta   105.64348348
_cell_angle_gamma   109.51902417
_symmetry_Int_Tables_number   1
_chemical_formula_structural   ZnH22(C12N5)2
_chemical_formula_sum   'Zn2 H44 C48 N20'
_cell_volume   1151.72919670
_cell_formula_units_Z   2
loop_
 _symmetry_equiv_pos_site_id
 _symmetry_equiv_pos_as_xyz
  1  'x, y, z'
loop_
 _atom_site_type_symbol
 _atom_site_label
 _atom_site_symmetry_multiplicity
 _atom_site_fract_x
 _atom_site_fract_y
 _atom_site_fract_z
 _atom_site_occupancy
 _atom_site_hle17_bader_spin_density
 _atom_site_hle17_ddec_charge
 _atom_site_hle17_ddec_spin_density
 _atom_site_hle17_ddec_sum_bond_order
 _atom_site_hle17_magmom
 _atom_site_hse06_10hf_bader_spin_density
 _atom_site_hse06_10hf_ddec_charge
 _atom_site_hse06_10hf_ddec_spin_density
 _atom_site_hse06_10hf_ddec_sum_bond_order
 _atom_site_hse06_10hf_magmom
 _atom_site_hse06_bader_spin_density
 _atom_site_hse06_ddec_charge
 _atom_site_hse06_ddec_spin_density
 _atom_site_hse06_ddec_sum_bond_order
 _atom_site_hse06_magmom
 _atom_site_pbe_bader_spin_density
 _atom_site_pbe_cm5_charge
 _atom_site_pbe_ddec_charge
 _atom_site_pbe_ddec_spin_density
 _atom_site_pbe_ddec_sum_bond_order
 _atom_site_pbe_magmom
Zn  Zn0  1  0.60671315  0.98532028  0.70222005  1  0  0.8701  0  2.041012  0  0  0.693317  0  2.489936  0  0  0.731693  0  2.453185  0  0  0.700456  0.666777  0  2.51513  0
Zn  Zn1  1  0.39328761  0.01467894  0.29777970  1  0  0.870064  0  2.041066  0  0  0.693265  0  2.490001  0  0  0.731645  0  2.453247  0  0  0.700434  0.666723  0  2.515193  0
H  H2  1  0.36146315  0.32501058  0.07947248  1  0  0.095287  0  0.964522  0  0  0.108356  0  1.031615  0  0  0.109142  0  1.032559  0  0  0.099962  0.107742  0  1.030945  0
H  H3  1  0.63854334  0.67499182  0.92053175  1  0  0.095241  0  0.964498  0  0  0.108349  0  1.031536  0  0  0.109134  0  1.032482  0  0  0.099956  0.107733  0  1.030866  0
H  H4  1  0.31287623  0.47656163  0.08014640  1  0  0.085563  0  0.948412  0  0  0.103268  0  1.008715  0  0  0.104331  0  1.00888  0  0  0.096764  0.102596  0  1.008429  0
H  H5  1  0.68712191  0.52343652  0.91985346  1  0  0.085543  0  0.948435  0  0  0.103253  0  1.008731  0  0  0.104318  0  1.008897  0  0  0.096765  0.102582  0  1.008447  0
H  H6  1  0.36208386  0.48591744  0.90289111  1  0  0.065975  0  0.924313  0  0  0.078099  0  0.987162  0  0  0.079492  0  0.986806  0  0  0.100769  0.07731  0  0.987025  0
H  H7  1  0.63791382  0.51407963  0.09710929  1  0  0.065952  0  0.924306  0  0  0.078098  0  0.987162  0  0  0.079491  0  0.986805  0  0  0.10078  0.077309  0  0.987028  0
H  H8  1  0.16249303  0.08798917  0.97288265  1  0  0.11466  0  0.944305  0  0  0.123285  0  1.006844  0  0  0.126491  0  1.006269  0  0  0.108222  0.121233  0  1.006906  0
H  H9  1  0.83751082  0.91200467  0.02711853  1  0  0.114618  0  0.944392  0  0  0.123285  0  1.006898  0  0  0.126492  0  1.006319  0  0  0.108172  0.121232  0  1.006958  0
H  H10  1  0.88549152  0.94309568  0.84832575  1  0  0.08024  0  0.943926  0  0  0.085342  0  1.012269  0  0  0.087906  0  1.01045  0  0  0.113997  0.083134  0  1.014182  0
H  H11  1  0.11451325  0.05690033  0.15167362  1  0  0.080309  0  0.943791  0  0  0.085387  0  1.012155  0  0  0.087951  0  1.010336  0  0  0.113986  0.083179  0  1.014068  0
H  H12  1  0.81638298  0.30539276  0.79255895  1  0  0.077707  0  0.964658  0  0  0.084591  0  1.03299  0  0  0.086814  0  1.03101  0  0  0.11298  0.082916  0  1.034297  0
H  H13  1  0.18361965  0.69460319  0.20744601  1  0  0.07769  0  0.964679  0  0  0.084558  0  1.033025  0  0  0.086779  0  1.031049  0  0  0.112969  0.082888  0  1.034317  0
H  H14  1  0.08741200  0.46661593  0.91665196  1  0  0.108835  0  0.950708  0  0  0.118678  0  1.011344  0  0  0.121439  0  1.011873  0  0  0.105844  0.116745  0  1.011117  0
H  H15  1  0.91258816  0.53337681  0.08335213  1  0  0.10886  0  0.95063  0  0  0.118723  0  1.011259  0  0  0.121487  0  1.011786  0  0  0.105807  0.116785  0  1.011029  0
H  H16  1  0.56406222  0.26371827  0.04121707  1  0  0.112055  0  0.957796  0  0  0.11972  0  1.023439  0  0  0.122463  0  1.023425  0  0  0.107733  0.117682  0  1.023661  0
H  H17  1  0.43593653  0.73627881  0.95878128  1  0  0.112071  0  0.957806  0  0  0.119738  0  1.023441  0  0  0.122482  0  1.023424  0  0  0.107732  0.117698  0  1.023663  0
H  H18  1  0.62558913  0.08545261  0.93218934  1  0  0.085549  0  0.936864  0  0  0.091885  0  1.004685  0  0  0.094834  0  1.001625  0  0  0.117225  0.089719  0  1.006801  0
H  H19  1  0.37440948  0.91454662  0.06780924  1  0  0.085522  0  0.93672  0  0  0.091863  0  1.004558  0  0  0.094812  0  1.001498  0  0  0.117207  0.089695  0  1.006675  0
H  H20  1  0.40119676  0.15220338  0.64518752  1  0  0.074678  0  0.96961  0  0  0.076511  0  1.044566  0  0  0.078484  0  1.043646  0  0  0.109272  0.075071  0  1.045221  0
H  H21  1  0.59880755  0.84779905  0.35481330  1  0  0.074676  0  0.969547  0  0  0.076486  0  1.044528  0  0  0.078463  0  1.043601  0  0  0.109266  0.075044  0  1.045187  0
H  H22  1  0.33828993  0.34212240  0.74235764  1  0  0.115825  0  0.971899  0  0  0.123731  0  1.037675  0  0  0.126697  0  1.036917  0  0  0.105386  0.121549  0  1.038399  0
H  H23  1  0.66170928  0.65787577  0.25763943  1  0  0.11585  0  0.971869  0  0  0.123741  0  1.037663  0  0  0.126705  0  1.036906  0  0  0.105385  0.121559  0  1.038389  0
H  H24  1  0.04484962  0.71916557  0.46013619  1  0  0.089894  0  0.937822  0  0  0.105285  0  1.001645  0  0  0.106408  0  1.001829  0  0  0.09587  0.104012  0  1.002226  0
H  H25  1  0.95514929  0.28083687  0.53986284  1  0  0.089883  0  0.937841  0  0  0.105278  0  1.001651  0  0  0.106387  0  1.00185  0  0  0.095872  0.104004  0  1.002226  0
H  H26  1  0.86003878  0.58887891  0.36860330  1  0  0.098004  0  0.947708  0  0  0.112054  0  1.014302  0  0  0.11359  0  1.013696  0  0  0.098003  0.110925  0  1.0149  0
H  H27  1  0.13995905  0.41112354  0.63139478  1  0  0.098012  0  0.947725  0  0  0.112052  0  1.014317  0  0  0.113588  0  1.013709  0  0  0.098002  0.110922  0  1.014912  0
H  H28  1  0.82733399  0.44532914  0.49122403  1  0  0.064403  0  0.921193  0  0  0.076427  0  0.984521  0  0  0.077207  0  0.984829  0  0  0.099717  0.075885  0  0.98415  0
H  H29  1  0.17266554  0.55467223  0.50877499  1  0  0.064426  0  0.92116  0  0  0.07649  0  0.984459  0  0  0.077269  0  0.984768  0  0  0.099732  0.075948  0  0.98409  0
H  H30  1  0.61756859  0.55537241  0.44318837  1  0  0.111358  0  0.978955  0  0  0.119103  0  1.044575  0  0  0.122383  0  1.043462  0  0  0.104178  0.116723  0  1.045398  0
H  H31  1  0.38243203  0.44462893  0.55681386  1  0  0.111358  0  0.978896  0  0  0.119111  0  1.044523  0  0  0.122392  0  1.043407  0  0  0.104173  0.116731  0  1.045347  0
H  H32  1  0.50411868  0.69511714  0.54289284  1  0  0.072323  0  0.955517  0  0  0.079464  0  1.02348  0  0  0.081144  0  1.022379  0  0  0.114965  0.078117  0  1.024429  0
H  H33  1  0.49588086  0.30488421  0.45710843  1  0  0.072332  0  0.955548  0  0  0.079493  0  1.023479  0  0  0.081174  0  1.022384  0  0  0.114961  0.078145  0  1.024428  0
H  H34  1  0.91603340  0.05812173  0.65102475  1  0  0.076098  0  0.943013  0  0  0.08699  0  1.001701  0  0  0.089012  0  1.000702  0  0  0.115653  0.085497  0  1.002328  0
H  H35  1  0.08396443  0.94188073  0.34897258  1  0  0.076114  0  0.942939  0  0  0.087009  0  1.001631  0  0  0.089031  0  1.000631  0  0  0.115661  0.085516  0  1.00226  0
H  H36  1  0.05270159  0.92835376  0.56820946  1  0  0.107987  0  0.953792  0  0  0.117017  0  1.016104  0  0  0.119832  0  1.016183  0  0  0.10521  0.11444  0  1.016982  0
H  H37  1  0.94729685  0.07164763  0.43178710  1  0  0.108002  0  0.953836  0  0  0.117059  0  1.01612  0  0  0.119874  0  1.0162  0  0  0.105229  0.114482  0  1.016997  0
H  H38  1  0.78147052  0.46607590  0.65633418  1  0  0.102067  0  0.960229  0  0  0.109976  0  1.026415  0  0  0.11317  0  1.02558  0  0  0.098791  0.107642  0  1.027092  0
H  H39  1  0.21852995  0.53392760  0.34366678  1  0  0.102108  0  0.960252  0  0  0.110025  0  1.026416  0  0  0.113219  0  1.025582  0  0  0.098803  0.107689  0  1.027093  0
H  H40  1  0.86564483  0.59422644  0.84970631  1  0  0.055922  0  0.967004  0  0  0.067466  0  1.028149  0  0  0.069422  0  1.02708  0  0  0.101598  0.066157  0  1.028649  0
H  H41  1  0.13435548  0.40577921  0.15029338  1  0  0.055929  0  0.967006  0  0  0.067478  0  1.028143  0  0  0.069434  0  1.027072  0  0  0.101601  0.066167  0  1.028645  0
H  H42  1  0.29319742  0.86396909  0.84573427  1  0  0.061958  0  0.946352  0  0  0.070967  0  1.009887  0  0  0.073056  0  1.008977  0  0  0.102517  0.069394  0  1.010629  0
H  H43  1  0.70680381  0.13603121  0.15426495  1  0  0.061963  0  0.946375  0  0  0.071014  0  1.009866  0  0  0.07309  0  1.008971  0  0  0.102533  0.06944  0  1.010611  0
H  H44  1  0.22642686  0.75216467  0.65267621  1  0  0.106387  0  1.002339  0  0  0.112318  0  1.073668  0  0  0.115538  0  1.072674  0  0  0.099109  0.109892  0  1.074807  0
H  H45  1  0.77357375  0.24783670  0.34732302  1  0  0.106414  0  1.002338  0  0  0.112341  0  1.073669  0  0  0.115561  0  1.072675  0  0  0.099126  0.109917  0  1.074807  0
C  C46  1  0.31315859  0.38359784  0.02725852  1  0  -0.195875  0  3.681867  0  0  -0.244227  0  3.929168  0  0  -0.245684  0  3.940004  0  0  -0.158268  -0.243311  0  3.921869  0
C  C47  1  0.68684279  0.61640030  0.97274196  1  0  -0.19579  0  3.681823  0  0  -0.244191  0  3.929172  0  0  -0.245652  0  3.940016  0  0  -0.158269  -0.243276  0  3.921877  0
C  C48  1  0.42033159  0.43980585  0.96217504  1  0  -0.032971  0  3.601494  0  0  -0.038744  0  3.831291  0  0  -0.040305  0  3.846216  0  0  -0.073344  -0.037949  0  3.821183  0
C  C49  1  0.57966810  0.56019336  0.03782600  1  0  -0.032914  0  3.601417  0  0  -0.038779  0  3.831337  0  0  -0.04034  0  3.846262  0  0  -0.073393  -0.037983  0  3.821231  0
C  C50  1  0.14818907  0.29000343  0.95502799  1  0  0.162176  0  3.725846  0  0  0.175477  0  3.966932  0  0  0.1808  0  3.988764  0  0  0.011896  0.17218  0  3.952572  0
C  C51  1  0.85181309  0.70999147  0.04497450  1  0  0.162203  0  3.725945  0  0  0.175566  0  3.966967  0  0  0.18089  0  3.988801  0  0  0.011973  0.17227  0  3.952608  0
C  C52  1  0.08959530  0.14077358  0.93475045  1  0  -0.169173  0  3.690606  0  0  -0.18697  0  3.938231  0  0  -0.195464  0  3.959951  0  0  -0.08358  -0.181736  0  3.923846  0
C  C53  1  0.91040315  0.85922027  0.06524970  1  0  -0.169192  0  3.690707  0  0  -0.187061  0  3.938318  0  0  -0.195554  0  3.960036  0  0  -0.08359  -0.181825  0  3.923931  0
C  C54  1  0.93600282  0.05960390  0.86575876  1  0  0.132708  0  3.714228  0  0  0.100916  0  3.969627  0  0  0.108812  0  3.986033  0  0  0.047945  0.095748  0  3.958879  0
C  C55  1  0.06399887  0.94038994  0.13424276  1  0  0.132666  0  3.714262  0  0  0.100898  0  3.969666  0  0  0.108793  0  3.986071  0  0  0.048009  0.095729  0  3.958918  0
C  C56  1  0.89658703  0.26239200  0.83562333  1  0  0.127381  0  3.727815  0  0  0.093696  0  3.983373  0  0  0.101105  0  4.001226  0  0  0.043353  0.089347  0  3.970328  0
C  C57  1  0.10341297  0.73760290  0.16437950  1  0  0.127236  0  3.727882  0  0  0.093565  0  3.983454  0  0  0.100973  0  4.001307  0  0  0.043264  0.089218  0  3.970411  0
C  C58  1  0.04796708  0.35079254  0.90379105  1  0  -0.175063  0  3.704664  0  0  -0.191047  0  3.952262  0  0  -0.199475  0  3.973828  0  0  -0.087842  -0.185723  0  3.937588  0
C  C59  1  0.95203292  0.64920236  0.09621178  1  0  -0.175036  0  3.704699  0  0  -0.191065  0  3.952259  0  0  -0.199496  0  3.973828  0  0  -0.087804  -0.185732  0  3.937579  0
C  C60  1  0.44646538  0.31977324  0.90017227  1  0  0.127147  0  3.706398  0  0  0.139398  0  3.941703  0  0  0.144367  0  3.964381  0  0  0.012678  0.136707  0  3.926168  0
C  C61  1  0.55353492  0.68022490  0.09982726  1  0  0.127148  0  3.706426  0  0  0.139381  0  3.941794  0  0  0.14435  0  3.964473  0  0  0.012655  0.13669  0  3.926255  0
C  C62  1  0.52518971  0.24341391  0.95347385  1  0  -0.172416  0  3.696894  0  0  -0.190995  0  3.949131  0  0  -0.199072  0  3.970737  0  0  -0.087281  -0.185725  0  3.933441  0
C  C63  1  0.47481105  0.75658531  0.04652514  1  0  -0.17248  0  3.696914  0  0  -0.191047  0  3.949158  0  0  -0.199124  0  3.970765  0  0  -0.087284  -0.185777  0  3.933467  0
C  C64  1  0.55895189  0.14276390  0.89341451  1  0  0.128046  0  3.715553  0  0  0.09497  0  3.971526  0  0  0.102519  0  3.988775  0  0  0.046881  0.090545  0  3.959074  0
C  C65  1  0.44104887  0.85723533  0.10658374  1  0  0.128136  0  3.715347  0  0  0.095037  0  3.971343  0  0  0.102586  0  3.988593  0  0  0.046888  0.090612  0  3.958891  0
C  C66  1  0.43382207  0.18055407  0.73285300  1  0  0.138201  0  3.710483  0  0  0.110632  0  3.95548  0  0  0.118312  0  3.973055  0  0  0.046149  0.105113  0  3.94414  0
C  C67  1  0.56618132  0.81944623  0.26714588  1  0  0.13827  0  3.710407  0  0  0.110719  0  3.955383  0  0  0.118399  0  3.972959  0  0  0.046189  0.105199  0  3.94404  0
C  C68  1  0.39749286  0.28421378  0.78722264  1  0  -0.172507  0  3.700146  0  0  -0.191567  0  3.945333  0  0  -0.199961  0  3.96698  0  0  -0.086688  -0.186449  0  3.931625  0
C  C69  1  0.60250682  0.71578545  0.21277540  1  0  -0.17254  0  3.700209  0  0  -0.191569  0  3.945375  0  0  -0.199963  0  3.967025  0  0  -0.08667  -0.186453  0  3.931667  0
C  C70  1  0.92761344  0.64600274  0.45414551  1  0  -0.195878  0  3.654235  0  0  -0.243841  0  3.898048  0  0  -0.245602  0  3.908985  0  0  -0.157372  -0.242688  0  3.890858  0
C  C71  1  0.07238486  0.35400076  0.54585428  1  0  -0.19582  0  3.654267  0  0  -0.243735  0  3.897996  0  0  -0.24548  0  3.908921  0  0  -0.157337  -0.242576  0  3.890795  0
C  C72  1  0.94460656  0.53220379  0.51617965  1  0  -0.027278  0  3.589057  0  0  -0.032108  0  3.81641  0  0  -0.033156  0  3.831788  0  0  -0.071579  -0.031391  0  3.805792  0
C  C73  1  0.05539358  0.46779652  0.48381786  1  0  -0.027347  0  3.589101  0  0  -0.032248  0  3.816526  0  0  -0.033296  0  3.8319  0  0  -0.071595  -0.031537  0  3.805907  0
C  C74  1  0.84666054  0.72977476  0.49925530  1  0  0.163925  0  3.716229  0  0  0.181903  0  3.946589  0  0  0.187163  0  3.968809  0  0  0.014763  0.178687  0  3.931232  0
C  C75  1  0.15333885  0.27022873  0.50074621  1  0  0.163781  0  3.716216  0  0  0.18179  0  3.946532  0  0  0.18705  0  3.968749  0  0  0.014767  0.178573  0  3.931173  0
C  C76  1  0.68905265  0.66556760  0.49128497  1  0  -0.169941  0  3.686354  0  0  -0.184836  0  3.928881  0  0  -0.193381  0  3.950541  0  0  -0.085035  -0.179241  0  3.914233  0
C  C77  1  0.31094642  0.33443269  0.50871458  1  0  -0.169855  0  3.686329  0  0  -0.18478  0  3.928864  0  0  -0.193325  0  3.950524  0  0  -0.085038  -0.179185  0  3.914216  0
C  C78  1  0.62464196  0.74356132  0.54463395  1  0  0.130942  0  3.713549  0  0  0.100193  0  3.964525  0  0  0.107083  0  3.983851  0  0  0.043216  0.095727  0  3.951397  0
C  C79  1  0.37535742  0.25644218  0.45536605  1  0  0.130846  0  3.713571  0  0  0.100077  0  3.96456  0  0  0.10696  0  3.98389  0  0  0.043173  0.095612  0  3.951431  0
C  C80  1  0.85474768  0.94554946  0.60618856  1  0  0.131033  0  3.71959  0  0  0.100152  0  3.971547  0  0  0.107779  0  3.988828  0  0  0.042927  0.095107  0  3.959836  0
C  C81  1  0.14525215  0.05445514  0.39380942  1  0  0.131082  0  3.719664  0  0  0.100201  0  3.971636  0  0  0.10783  0  3.988917  0  0  0.042949  0.095155  0  3.959927  0
C  C82  1  0.92933381  0.87342552  0.55823009  1  0  -0.178272  0  3.723515  0  0  -0.193712  0  3.966898  0  0  -0.201584  0  3.988292  0  0  -0.086388  -0.188639  0  3.952543  0
C  C83  1  0.07066355  0.12657586  0.44176701  1  0  -0.17835  0  3.723702  0  0  -0.193839  0  3.967085  0  0  -0.20171  0  3.988479  0  0  -0.086465  -0.188766  0  3.952731  0
C  C84  1  0.99722468  0.59702369  0.63681423  1  0  0.10637  0  3.718189  0  0  0.122436  0  3.947526  0  0  0.125263  0  3.97199  0  0  0.003964  0.120935  0  3.930842  0
C  C85  1  0.00277531  0.40297874  0.36318576  1  0  0.106449  0  3.718187  0  0  0.122499  0  3.947574  0  0  0.125326  0  3.972039  0  0  0.003993  0.121003  0  3.930892  0
C  C86  1  0.89659064  0.55413238  0.69510459  1  0  -0.17922  0  3.736354  0  0  -0.1969  0  3.979789  0  0  -0.204344  0  4.002812  0  0  -0.094782  -0.192137  0  3.964119  0
C  C87  1  0.10341090  0.44587112  0.30489583  1  0  -0.179356  0  3.736427  0  0  -0.197038  0  3.979883  0  0  -0.204483  0  4.002907  0  0  -0.09484  -0.192278  0  3.964212  0
C  C88  1  0.94419888  0.62578122  0.80392237  1  0  0.10879  0  3.778699  0  0  0.090356  0  4.031529  0  0  0.095487  0  4.049451  0  0  0.028607  0.087207  0  4.019099  0
C  C89  1  0.05580205  0.37422335  0.19607806  1  0  0.108773  0  3.778653  0  0  0.090335  0  4.031481  0  0  0.095466  0  4.049405  0  0  0.028581  0.087189  0  4.019051  0
C  C90  1  0.17990181  0.77464597  0.80196372  1  0  0.109283  0  3.76424  0  0  0.089791  0  4.019827  0  0  0.094771  0  4.037618  0  0  0.029398  0.086392  0  4.007754  0
C  C91  1  0.82009926  0.22535648  0.19803498  1  0  0.109243  0  3.764263  0  0  0.089722  0  4.019863  0  0  0.094715  0  4.037653  0  0  0.029387  0.086323  0  4.007794  0
C  C92  1  0.14301213  0.71032668  0.69309261  1  0  -0.163365  0  3.704451  0  0  -0.182787  0  3.949018  0  0  -0.190128  0  3.971964  0  0  -0.092805  -0.178091  0  3.933822  0
C  C93  1  0.85698802  0.28967360  0.30690865  1  0  -0.163402  0  3.704405  0  0  -0.182826  0  3.949004  0  0  -0.190166  0  3.971944  0  0  -0.092849  -0.178133  0  3.933811  0
N  N94  1  0.66393462  0.17223939  0.60999022  1  0  -0.479637  0  2.574409  0  0  -0.473847  0  2.858947  0  0  -0.485275  0  2.866535  0  0  -0.237119  -0.464816  0  2.852587  0
N  N95  1  0.33606862  0.82776303  0.39001114  1  0  -0.479628  0  2.574435  0  0  -0.473828  0  2.858979  0  0  -0.485256  0  2.866566  0  0  -0.237101  -0.464795  0  2.852616  0
N  N96  1  0.64215292  0.14333990  0.51644736  1  0  0.385377  0  4.264579  0  0  0.416832  0  4.556079  0  0  0.432469  0  4.584452  0  0  0.071626  0.406719  0  4.535667  0
N  N97  1  0.35784661  0.85666146  0.48355316  1  0  0.385348  0  4.264561  0  0  0.416821  0  4.556035  0  0  0.432457  0  4.584406  0  0  0.071588  0.406708  0  4.535624  0
N  N98  1  0.62319468  0.11737209  0.42237714  1  0  -0.515664  0  2.657101  0  0  -0.497849  0  2.952591  0  0  -0.513832  0  2.95885  0  0  -0.271174  -0.486838  0  2.948631  0
N  N99  1  0.37680270  0.88262926  0.57762372  1  0  -0.515655  0  2.657085  0  0  -0.497872  0  2.952562  0  0  -0.513855  0  2.95882  0  0  -0.271153  -0.486859  0  2.948602  0
N  N100  1  0.57922302  0.83791980  0.79553947  1  0  -0.570087  0  2.665264  0  0  -0.550721  0  2.968022  0  0  -0.570039  0  2.974167  0  0  -0.30695  -0.537367  0  2.963336  0
N  N101  1  0.42077297  0.16207835  0.20445923  1  0  -0.569974  0  2.665303  0  0  -0.550593  0  2.968047  0  0  -0.569913  0  2.974195  0  0  -0.306827  -0.53724  0  2.96336  0
N  N102  1  0.50071576  0.71251272  0.75659685  1  0  0.37921  0  4.297849  0  0  0.417884  0  4.584351  0  0  0.433138  0  4.612896  0  0  0.065968  0.407875  0  4.564003  0
N  N103  1  0.49928022  0.28748543  0.24340185  1  0  0.379047  0  4.297926  0  0  0.417722  0  4.58443  0  0  0.432974  0  4.612978  0  0  0.065858  0.407712  0  4.564081  0
N  N104  1  0.42513065  0.58885508  0.72241286  1  0  -0.459291  0  2.451971  0  0  -0.461294  0  2.697064  0  0  -0.469309  0  2.706094  0  0  -0.230483  -0.454932  0  2.689767  0
N  N105  1  0.57486641  0.41114307  0.27758604  1  0  -0.459236  0  2.452024  0  0  -0.461245  0  2.697122  0  0  -0.469255  0  2.706149  0  0  -0.230492  -0.454884  0  2.689824  0
N  N106  1  0.84108890  0.11894163  0.81638698  1  0  -0.32454  0  3.306327  0  0  -0.247196  0  3.5688  0  0  -0.265303  0  3.586047  0  0  -0.324624  -0.234849  0  3.556754  0
N  N107  1  0.15891249  0.88105651  0.18361425  1  0  -0.324483  0  3.306482  0  0  -0.247106  0  3.568866  0  0  -0.265212  0  3.58611  0  0  -0.324596  -0.23476  0  3.55682  0
N  N108  1  0.51592470  0.11307547  0.78502826  1  0  -0.312671  0  3.312987  0  0  -0.229359  0  3.564829  0  0  -0.248313  0  3.583308  0  0  -0.323597  -0.216826  0  3.552488  0
N  N109  1  0.48407807  0.88692590  0.21497063  1  0  -0.312749  0  3.31295  0  0  -0.229421  0  3.564798  0  0  -0.248375  0  3.583273  0  0  -0.323614  -0.216889  0  3.552458  0
N  N110  1  0.70552502  0.88164438  0.60202044  1  0  -0.329524  0  3.29482  0  0  -0.252207  0  3.554964  0  0  -0.271125  0  3.574953  0  0  -0.325395  -0.239442  0  3.541708  0
N  N111  1  0.29447235  0.11835700  0.39797742  1  0  -0.329458  0  3.294795  0  0  -0.252138  0  3.554957  0  0  -0.271057  0  3.574948  0  0  -0.325354  -0.239374  0  3.541703  0
N  N112  1  0.08345457  0.73494667  0.85843694  1  0  -0.340048  0  3.075476  0  0  -0.308217  0  3.344761  0  0  -0.318205  0  3.359829  0  0  -0.339252  -0.301234  0  3.334421  0
N  N113  1  0.91654697  0.26505684  0.14156273  1  0  -0.339947  0  3.075408  0  0  -0.30811  0  3.344697  0  0  -0.318096  0  3.35976  0  0  -0.339193  -0.301127  0  3.334357  0
