# generated using pymatgen
data_FeH20C16(SN7)2
_symmetry_space_group_name_H-M   'P 1'
_cell_length_a   7.69979158
_cell_length_b   8.45920486
_cell_length_c   9.54645617
_cell_angle_alpha   77.21173998
_cell_angle_beta   72.96807026
_cell_angle_gamma   66.96576130
_symmetry_Int_Tables_number   1
_chemical_formula_structural   FeH20C16(SN7)2
_chemical_formula_sum   'Fe1 H20 C16 S2 N14'
_cell_volume   543.08715968
_cell_formula_units_Z   1
loop_
 _symmetry_equiv_pos_site_id
 _symmetry_equiv_pos_as_xyz
  1  'x, y, z'
loop_
 _atom_site_type_symbol
 _atom_site_label
 _atom_site_symmetry_multiplicity
 _atom_site_fract_x
 _atom_site_fract_y
 _atom_site_fract_z
 _atom_site_occupancy
 _atom_site_hle17_bader_spin_density
 _atom_site_hle17_ddec_charge
 _atom_site_hle17_ddec_spin_density
 _atom_site_hle17_ddec_sum_bond_order
 _atom_site_hle17_magmom
 _atom_site_hse06_10hf_bader_spin_density
 _atom_site_hse06_10hf_ddec_charge
 _atom_site_hse06_10hf_ddec_spin_density
 _atom_site_hse06_10hf_ddec_sum_bond_order
 _atom_site_hse06_10hf_magmom
 _atom_site_hse06_bader_spin_density
 _atom_site_hse06_ddec_charge
 _atom_site_hse06_ddec_spin_density
 _atom_site_hse06_ddec_sum_bond_order
 _atom_site_hse06_magmom
 _atom_site_pbe_bader_spin_density
 _atom_site_pbe_cm5_charge
 _atom_site_pbe_ddec_charge
 _atom_site_pbe_ddec_spin_density
 _atom_site_pbe_ddec_sum_bond_order
 _atom_site_pbe_magmom
Fe  Fe0  1  0.47921235  0.51336258  0.50575303  1  0  0.556822  0  3.041918  0  0  0.517715  0  3.531409  0  0  0.574294  0  3.466057  0  0  0.710981  0.486163  0  3.570848  0
H  H1  1  0.74593042  0.15708330  0.29088819  1  0  0.110633  0  0.94901  0  0  0.114671  0  1.020316  0  0  0.117682  0  1.016358  0  0  0.139588  0.112568  0  1.023013  0
H  H2  1  0.26615922  0.83871861  0.70569381  1  0  0.115661  0  0.945513  0  0  0.118014  0  1.019391  0  0  0.121346  0  1.014312  0  0  0.14153  0.115518  0  1.023157  0
H  H3  1  0.97784869  0.36211033  0.52585057  1  0  0.091562  0  0.936724  0  0  0.101928  0  0.997774  0  0  0.102425  0  0.997468  0  0  0.133724  0.101766  0  0.997734  0
H  H4  1  0.03392580  0.62807417  0.47427143  1  0  0.099576  0  0.935343  0  0  0.108244  0  0.996349  0  0  0.109066  0  0.995401  0  0  0.138015  0.107641  0  0.997123  0
H  H5  1  0.04403852  0.90291907  0.21246093  1  0  0.075281  0  0.97086  0  0  0.081534  0  1.05182  0  0  0.082436  0  1.051809  0  0  0.107324  0.080934  0  1.051741  0
H  H6  1  0.96395483  0.08990708  0.78690879  1  0  0.076483  0  0.970532  0  0  0.082131  0  1.052267  0  0  0.083029  0  1.052362  0  0  0.10739  0.0815  0  1.052127  0
H  H7  1  0.23743722  0.84498844  0.30048200  1  0  0.094206  0  0.948113  0  0  0.106213  0  1.013494  0  0  0.106387  0  1.014919  0  0  0.116547  0.105953  0  1.012657  0
H  H8  1  0.77371609  0.14636027  0.69596776  1  0  0.096758  0  0.936204  0  0  0.109154  0  0.999872  0  0  0.109376  0  1.001283  0  0  0.117256  0.108792  0  0.999044  0
H  H9  1  0.32818254  0.42107340  0.86073091  1  0  0.111101  0  0.96472  0  0  0.118316  0  1.033055  0  0  0.120639  0  1.02953  0  0  0.131855  0.11575  0  1.037328  0
H  H10  1  0.65157377  0.58968907  0.14554626  1  0  0.111943  0  0.953077  0  0  0.11748  0  1.023225  0  0  0.119599  0  1.020333  0  0  0.134152  0.115123  0  1.026897  0
H  H11  1  0.11759512  0.27719293  0.05807733  1  0  0.081954  0  0.955483  0  0  0.094515  0  1.024615  0  0  0.095377  0  1.024586  0  0  0.104033  0.094064  0  1.024542  0
H  H12  1  0.88144030  0.71617302  0.94569424  1  0  0.081568  0  0.953693  0  0  0.093705  0  1.023478  0  0  0.094538  0  1.023289  0  0  0.102914  0.093371  0  1.023398  0
H  H13  1  0.02343342  0.15112640  0.99559507  1  0  0.079059  0  0.930969  0  0  0.095863  0  0.994371  0  0  0.096563  0  0.994004  0  0  0.107358  0.095354  0  0.994692  0
H  H14  1  0.97927073  0.84162068  0.00521011  1  0  0.0785  0  0.934933  0  0  0.094285  0  0.999255  0  0  0.095038  0  0.998829  0  0  0.106287  0.093891  0  0.999492  0
H  H15  1  0.34328952  0.89174229  0.02552852  1  0  0.088654  0  0.924696  0  0  0.10588  0  0.986972  0  0  0.106517  0  0.987179  0  0  0.099477  0.105506  0  0.986662  0
H  H16  1  0.66240593  0.10403193  0.97011809  1  0  0.09058  0  0.924083  0  0  0.106531  0  0.987555  0  0  0.107389  0  0.987516  0  0  0.099791  0.105934  0  0.987462  0
H  H17  1  0.39005784  0.02948161  0.11551925  1  0  0.08495  0  0.947409  0  0  0.098321  0  1.014115  0  0  0.099283  0  1.014807  0  0  0.097219  0.097616  0  1.013626  0
H  H18  1  0.61606032  0.96593815  0.88042540  1  0  0.08616  0  0.945412  0  0  0.099389  0  1.011826  0  0  0.100337  0  1.012475  0  0  0.097173  0.098704  0  1.011277  0
H  H19  1  0.38704347  0.15827704  0.51243965  1  0  0.102699  0  0.937351  0  0  0.107148  0  1.006208  0  0  0.10921  0  1.00333  0  0  0.137844  0.105616  0  1.008175  0
H  H20  1  0.60429167  0.85906870  0.48553914  1  0  0.099841  0  0.936192  0  0  0.105466  0  1.004127  0  0  0.107395  0  1.00139  0  0  0.137107  0.104086  0  1.005959  0
C  C21  1  0.84183458  0.18427938  0.33831310  1  0  0.155352  0  3.62853  0  0  0.083512  0  3.89458  0  0  0.097119  0  3.906364  0  0  0.160232  0.075095  0  3.885596  0
C  C22  1  0.17012184  0.81018038  0.65961026  1  0  0.164517  0  3.572674  0  0  0.087941  0  3.838956  0  0  0.104743  0  3.847973  0  0  0.162738  0.076715  0  3.832878  0
C  C23  1  0.96538034  0.28448808  0.45534194  1  0  0.184675  0  3.719423  0  0  0.133873  0  4.019517  0  0  0.144756  0  4.034876  0  0  0.143808  0.126764  0  4.008171  0
C  C24  1  0.04632601  0.70661690  0.54376451  1  0  0.186912  0  3.675966  0  0  0.133771  0  3.976567  0  0  0.146603  0  3.989698  0  0  0.145349  0.124865  0  3.967598  0
C  C25  1  0.14786679  0.94913703  0.23324984  1  0  -0.023001  0  3.628637  0  0  -0.093073  0  3.877523  0  0  -0.090171  0  3.889675  0  0  -0.053915  -0.094692  0  3.869056  0
C  C26  1  0.86145361  0.04291598  0.76505195  1  0  -0.020706  0  3.625084  0  0  -0.093088  0  3.878546  0  0  -0.090263  0  3.890364  0  0  -0.052462  -0.094551  0  3.870312  0
C  C27  1  0.32559763  0.33194875  0.79578081  1  0  0.171029  0  3.581125  0  0  0.094735  0  3.844184  0  0  0.111216  0  3.854424  0  0  0.164439  0.083978  0  3.837837  0
C  C28  1  0.65835711  0.67903340  0.20813287  1  0  0.171873  0  3.585726  0  0  0.096815  0  3.851462  0  0  0.112439  0  3.86255  0  0  0.166368  0.086846  0  3.844119  0
C  C29  1  0.32240799  0.48880652  0.25322852  1  0  0.266391  0  4.043208  0  0  0.257972  0  4.34659  0  0  0.28331  0  4.355547  0  0  0.129336  0.240574  0  4.342189  0
C  C30  1  0.66348110  0.51893033  0.74905898  1  0  0.274123  0  4.034495  0  0  0.266183  0  4.336643  0  0  0.291266  0  4.345747  0  0  0.130463  0.249022  0  4.331967  0
C  C31  1  0.15772364  0.16237581  0.00329685  1  0  -0.018713  0  3.640007  0  0  -0.095019  0  3.899943  0  0  -0.091428  0  3.91085  0  0  -0.055224  -0.09736  0  3.892208  0
C  C32  1  0.84388279  0.83258957  0.99756579  1  0  -0.019536  0  3.638822  0  0  -0.094049  0  3.89746  0  0  -0.090469  0  3.908457  0  0  -0.056186  -0.096383  0  3.889499  0
C  C33  1  0.27537427  0.00232862  0.08993600  1  0  -0.148157  0  3.672539  0  0  -0.195625  0  3.944077  0  0  -0.197386  0  3.956892  0  0  -0.163973  -0.194037  0  3.934883  0
C  C34  1  0.73058000  0.99197352  0.90739591  1  0  -0.148853  0  3.668023  0  0  -0.195722  0  3.939247  0  0  -0.19754  0  3.951912  0  0  -0.163326  -0.194001  0  3.930139  0
C  C35  1  0.35828727  0.19285749  0.62198311  1  0  0.196372  0  3.659478  0  0  0.143748  0  3.954565  0  0  0.157354  0  3.965922  0  0  0.149728  0.134817  0  3.946617  0
C  C36  1  0.63266377  0.82110854  0.37736998  1  0  0.201021  0  3.667915  0  0  0.147991  0  3.962941  0  0  0.161314  0  3.974515  0  0  0.151073  0.139245  0  3.954804  0
S  S37  1  0.21685247  0.51998387  0.12046313  1  0  -0.400039  0  2.059749  0  0  -0.395985  0  2.366129  0  0  -0.407171  0  2.357694  0  0  -0.199557  -0.389364  0  2.374748  0
S  S38  1  0.78254351  0.47605604  0.87584479  1  0  -0.411225  0  2.037562  0  0  -0.405368  0  2.340768  0  0  -0.415967  0  2.332257  0  0  -0.20709  -0.398663  0  2.349179  0
N  N39  1  0.26082471  0.19971199  0.85270939  1  0  0.038446  0  3.582571  0  0  0.160919  0  3.766035  0  0  0.150557  0  3.790018  0  0  -0.138213  0.166502  0  3.751972  0
N  N40  1  0.73749559  0.80187618  0.14859197  1  0  0.037858  0  3.583971  0  0  0.158382  0  3.768707  0  0  0.147772  0  3.793045  0  0  -0.137591  0.164158  0  3.754393  0
N  N41  1  0.28077296  0.10941635  0.74380795  1  0  -0.288889  0  2.891275  0  0  -0.284936  0  3.161449  0  0  -0.29502  0  3.174912  0  0  -0.222606  -0.277517  0  3.152182  0
N  N42  1  0.72232144  0.89392476  0.25466084  1  0  -0.290283  0  2.89252  0  0  -0.285521  0  3.162908  0  0  -0.295495  0  3.176648  0  0  -0.222633  -0.278213  0  3.153478  0
N  N43  1  0.38897430  0.33115185  0.64892588  1  0  -0.300329  0  3.302239  0  0  -0.254796  0  3.606179  0  0  -0.282215  0  3.620249  0  0  -0.339704  -0.236938  0  3.595632  0
N  N44  1  0.58952630  0.68845601  0.35374064  1  0  -0.307598  0  3.26438  0  0  -0.260774  0  3.563154  0  0  -0.287299  0  3.577181  0  0  -0.330416  -0.243253  0  3.552528  0
N  N45  1  0.03294568  0.09224492  0.32074721  1  0  0.041307  0  3.568281  0  0  0.168218  0  3.740457  0  0  0.157154  0  3.766639  0  0  -0.137341  0.174467  0  3.724297  0
N  N46  1  0.97846733  0.89888792  0.67858304  1  0  0.042102  0  3.567429  0  0  0.169598  0  3.740811  0  0  0.159156  0  3.765435  0  0  -0.135485  0.174652  0  3.727214  0
N  N47  1  0.11467587  0.15443176  0.39474342  1  0  -0.282814  0  2.854053  0  0  -0.285464  0  3.126013  0  0  -0.295083  0  3.141854  0  0  -0.226781  -0.27797  0  3.114568  0
N  N48  1  0.89741962  0.83503093  0.60570387  1  0  -0.26721  0  2.857741  0  0  -0.274828  0  3.132882  0  0  -0.283978  0  3.147389  0  0  -0.222493  -0.267786  0  3.122929  0
N  N49  1  0.79482876  0.30657798  0.42406538  1  0  -0.332918  0  3.139676  0  0  -0.289715  0  3.433676  0  0  -0.314438  0  3.449812  0  0  -0.308361  -0.271966  0  3.421196  0
N  N50  1  0.21883510  0.68688131  0.57289473  1  0  -0.3008  0  3.328311  0  0  -0.256602  0  3.636047  0  0  -0.286018  0  3.651083  0  0  -0.343621  -0.236519  0  3.624232  0
N  N51  1  0.39501758  0.47257992  0.35208973  1  0  -0.489679  0  3.195085  0  0  -0.457458  0  3.497975  0  0  -0.478861  0  3.497199  0  0  -0.427097  -0.44512  0  3.4988  0
N  N52  1  0.58029163  0.54428210  0.65464537  1  0  -0.495223  0  3.189138  0  0  -0.462137  0  3.490272  0  0  -0.483882  0  3.490115  0  0  -0.427021  -0.449217  0  3.490407  0
