# generated using pymatgen
data_NdH10(C3O2)4
_symmetry_space_group_name_H-M   'P 1'
_cell_length_a   6.20968466
_cell_length_b   10.23351726
_cell_length_c   10.10116349
_cell_angle_alpha   102.46753885
_cell_angle_beta   92.14139204
_cell_angle_gamma   101.77591241
_symmetry_Int_Tables_number   1
_chemical_formula_structural   NdH10(C3O2)4
_chemical_formula_sum   'Nd2 H20 C24 O16'
_cell_volume   611.33940401
_cell_formula_units_Z   2
loop_
 _symmetry_equiv_pos_site_id
 _symmetry_equiv_pos_as_xyz
  1  'x, y, z'
loop_
 _atom_site_type_symbol
 _atom_site_label
 _atom_site_symmetry_multiplicity
 _atom_site_fract_x
 _atom_site_fract_y
 _atom_site_fract_z
 _atom_site_occupancy
 _atom_site_pbe_bader_spin_density
 _atom_site_pbe_cm5_charge
 _atom_site_pbe_ddec_charge
 _atom_site_pbe_ddec_spin_density
 _atom_site_pbe_ddec_sum_bond_order
 _atom_site_pbe_magmom
Nd  Nd0  1  0.50761822  0.48774246  0.24597841  1  0  1.484204  2.166965  0  2.13196  0
Nd  Nd1  1  0.49238074  0.51225927  0.75402128  1  0  1.484201  2.166963  0  2.132083  0
H  H2  1  0.07776109  0.54702613  0.14108982  1  0  0.306021  0.395743  0  0.934046  0
H  H3  1  0.92223876  0.45297354  0.85890746  1  0  0.306024  0.395743  0  0.934046  0
H  H4  1  0.84637093  0.58949397  0.51048144  1  0  0.310717  0.404939  0  0.921641  0
H  H5  1  0.15363576  0.41050675  0.48951917  1  0  0.310695  0.404936  0  0.921657  0
H  H6  1  0.97993636  0.54927604  0.38380928  1  0  0.309305  0.399529  0  0.925349  0
H  H7  1  0.02006856  0.45071955  0.61618920  1  0  0.309302  0.39957  0  0.925281  0
H  H8  1  0.22904302  0.60877883  0.03877969  1  0  0.307611  0.401664  0  0.926379  0
H  H9  1  0.77095883  0.39122189  0.96122083  1  0  0.307596  0.401644  0  0.926405  0
H  H10  1  0.74279824  0.16218370  0.97452032  1  0  0.108995  0.112108  0  1.000331  0
H  H11  1  0.25719556  0.83781700  0.02548103  1  0  0.109032  0.112146  0  1.000401  0
H  H12  1  0.65000629  0.90585551  0.91730837  1  0  0.108921  0.108959  0  1.031272  0
H  H13  1  0.34999716  0.09414520  0.08269019  1  0  0.108938  0.108956  0  1.03135  0
H  H14  1  0.92452004  0.90405833  0.31264773  1  0  0.111281  0.117944  0  0.993911  0
H  H15  1  0.07548626  0.09594136  0.68734968  1  0  0.111265  0.117917  0  0.993933  0
H  H16  1  0.03676520  0.16010693  0.36693155  1  0  0.109169  0.111862  0  1.002768  0
H  H17  1  0.96323950  0.83989275  0.63306682  1  0  0.109157  0.111847  0  1.002808  0
H  H18  1  0.32903035  0.79925372  0.31246293  1  0  0.107784  0.111109  0  1.036842  0
H  H19  1  0.67097702  0.20074905  0.68753615  1  0  0.107836  0.111193  0  1.036788  0
H  H20  1  0.37610304  0.03786382  0.27753957  1  0  0.104707  0.107032  0  1.027395  0
H  H21  1  0.62389916  0.96213792  0.72246018  1  0  0.104713  0.107022  0  1.02741  0
C  C22  1  0.95233789  0.32995036  0.20749996  1  0  0.237425  0.617366  0  4.148818  0
C  C23  1  0.04765786  0.67005137  0.79250066  1  0  0.23749  0.617412  0  4.148721  0
C  C24  1  0.89523671  0.17733896  0.17426463  1  0  -0.006935  -0.030701  0  3.943053  0
C  C25  1  0.10476803  0.82266074  0.82573671  1  0  -0.006965  -0.030713  0  3.942997  0
C  C26  1  0.78505284  0.10554746  0.04780544  1  0  -0.076574  -0.085327  0  3.952852  0
C  C27  1  0.21494383  0.89445223  0.95219574  1  0  -0.076609  -0.085421  0  3.953013  0
C  C28  1  0.73180817  0.96323254  0.01593413  1  0  -0.076652  -0.090211  0  3.974921  0
C  C29  1  0.26819333  0.03676715  0.98406616  1  0  -0.076682  -0.090229  0  3.974992  0
C  C30  1  0.77971054  0.89053742  0.11171677  1  0  -0.010356  -0.038096  0  3.938715  0
C  C31  1  0.22028611  0.10946225  0.88828243  1  0  -0.010348  -0.0381  0  3.938652  0
C  C32  1  0.88926625  0.96185622  0.23868398  1  0  -0.075459  -0.085621  0  3.948214  0
C  C33  1  0.11073684  0.03814346  0.76131436  1  0  -0.075454  -0.085577  0  3.948206  0
C  C34  1  0.95056722  0.10431699  0.26874934  1  0  -0.074752  -0.083977  0  3.935539  0
C  C35  1  0.04943588  0.89568270  0.73124999  1  0  -0.074703  -0.083907  0  3.935418  0
C  C36  1  0.70751476  0.73762107  0.07784787  1  0  0.239646  0.661632  0  4.142642  0
C  C37  1  0.29248805  0.26237762  0.92215619  1  0  0.239592  0.661592  0  4.142708  0
C  C38  1  0.45206266  0.72573892  0.54204994  1  0  0.237405  0.65107  0  4.14741  0
C  C39  1  0.54793306  0.27426278  0.45794770  1  0  0.237399  0.650978  0  4.147382  0
C  C40  1  0.47535625  0.86722086  0.51998035  1  0  -0.010798  -0.040538  0  3.954582  0
C  C41  1  0.52464399  0.13277985  0.48002014  1  0  -0.010824  -0.040519  0  3.954567  0
C  C42  1  0.40370872  0.88744341  0.39406074  1  0  -0.077049  -0.091987  0  3.950051  0
C  C43  1  0.59629598  0.11255627  0.60593763  1  0  -0.077096  -0.092134  0  3.950123  0
C  C44  1  0.42929305  0.01985064  0.37459313  1  0  -0.079024  -0.086731  0  3.970248  0
C  C45  1  0.57070557  0.98015006  0.62540732  1  0  -0.079027  -0.086672  0  3.970269  0
O  O46  1  0.84405147  0.39598439  0.14429492  1  0  -0.350935  -0.662479  0  2.298841  0
O  O47  1  0.15594483  0.60401425  0.85570406  1  0  -0.350933  -0.662466  0  2.298793  0
O  O48  1  0.10942579  0.39377586  0.29877781  1  0  -0.356969  -0.6587  0  2.325291  0
O  O49  1  0.89056868  0.60622687  0.70122103  1  0  -0.357033  -0.658778  0  2.325306  0
O  O50  1  0.62845295  0.67804484  0.95665432  1  0  -0.417761  -0.709678  0  2.356843  0
O  O51  1  0.37154553  0.32195074  0.04334503  1  0  -0.417737  -0.709655  0  2.357033  0
O  O52  1  0.72385108  0.67447933  0.17194260  1  0  -0.409001  -0.668306  0  2.284807  0
O  O53  1  0.27614306  0.32552239  0.82805799  1  0  -0.40897  -0.668289  0  2.284655  0
O  O54  1  0.40357941  0.62534404  0.43827872  1  0  -0.427892  -0.707314  0  2.37201  0
O  O55  1  0.59641998  0.37465874  0.56172715  1  0  -0.427938  -0.707313  0  2.371858  0
O  O56  1  0.48105919  0.71057169  0.66254101  1  0  -0.393176  -0.663569  0  2.297305  0
O  O57  1  0.51892227  0.28943515  0.33746638  1  0  -0.393132  -0.663473  0  2.297487  0
O  O58  1  0.85005148  0.58606718  0.41245673  1  0  -0.624215  -0.82807  0  2.045482  0
O  O59  1  0.14995114  0.41392637  0.58754226  1  0  -0.624188  -0.828106  0  2.045406  0
O  O60  1  0.22985034  0.59566951  0.13272697  1  0  -0.615625  -0.836593  0  2.05529  0
O  O61  1  0.77014955  0.40433018  0.86727329  1  0  -0.61562  -0.836589  0  2.055311  0
