# generated using pymatgen
data_ZnH8C12(N2Cl)2
_symmetry_space_group_name_H-M   'P 1'
_cell_length_a   14.48271434
_cell_length_b   17.85235828
_cell_length_c   31.14583098
_cell_angle_alpha   99.43593622
_cell_angle_beta   89.99300543
_cell_angle_gamma   113.92725913
_symmetry_Int_Tables_number   1
_chemical_formula_structural   ZnH8C12(N2Cl)2
_chemical_formula_sum   'Zn12 H96 C144 N48 Cl24'
_cell_volume   7241.43630864
_cell_formula_units_Z   12
loop_
 _symmetry_equiv_pos_site_id
 _symmetry_equiv_pos_as_xyz
  1  'x, y, z'
loop_
 _atom_site_type_symbol
 _atom_site_label
 _atom_site_symmetry_multiplicity
 _atom_site_fract_x
 _atom_site_fract_y
 _atom_site_fract_z
 _atom_site_occupancy
 _atom_site_pbe_bader_charge
 _atom_site_pbe_bader_spin_density
 _atom_site_pbe_cm5_charge
 _atom_site_pbe_ddec_charge
 _atom_site_pbe_ddec_spin_density
 _atom_site_pbe_ddec_sum_bond_order
 _atom_site_pbe_magmom
Zn  Zn0  1  0.78839661  0.85600394  0.89819289  1  1.124497  0  0.535224  0.626548  0  2.714166  0
Zn  Zn1  1  0.93258279  0.14404852  0.60180821  1  1.123581  0  0.53507  0.6265  0  2.713982  0
Zn  Zn2  1  0.21160401  0.14399595  0.10180712  1  1.124501  0  0.535229  0.626556  0  2.714154  0
Zn  Zn3  1  0.06741745  0.85595200  0.39819153  1  1.123565  0  0.535106  0.626556  0  2.71402  0
Zn  Zn4  1  0.49043978  0.24339857  0.55303979  1  1.123307  0  0.537292  0.622343  0  2.718432  0
Zn  Zn5  1  0.24702577  0.75661658  0.94694904  1  1.121365  0  0.537257  0.622948  0  2.716275  0
Zn  Zn6  1  0.50956046  0.75660195  0.44696060  1  1.123308  0  0.537296  0.622376  0  2.718416  0
Zn  Zn7  1  0.75297485  0.24338332  0.05305097  1  1.121362  0  0.537255  0.622958  0  2.716249  0
Zn  Zn8  1  0.45252265  0.60227785  0.71142029  1  1.116552  0  0.54286  0.59307  0  2.753304  0
Zn  Zn9  1  0.85028098  0.39774281  0.78858098  1  1.117834  0  0.542563  0.592461  0  2.752955  0
Zn  Zn10  1  0.54747697  0.39772142  0.28857966  1  1.116486  0  0.54284  0.593073  0  2.753314  0
Zn  Zn11  1  0.14971895  0.60225708  0.21141903  1  1.117838  0  0.54258  0.592494  0  2.752931  0
H  H12  1  0.50431735  0.37102192  0.63001761  1  0.140198  0  0.10518  0.092364  0  1.030555  0
H  H13  1  0.13329150  0.62899517  0.87003075  1  0.143684  0  0.105088  0.091908  0  1.030368  0
H  H14  1  0.49568320  0.62897922  0.36998252  1  0.140201  0  0.105184  0.092379  0  1.030572  0
H  H15  1  0.86670912  0.37100473  0.12996894  1  0.143669  0  0.105091  0.091904  0  1.030339  0
H  H16  1  0.63602269  0.48146683  0.68392487  1  0.135257  0  0.102033  0.113776  0  1.041765  0
H  H17  1  0.15452434  0.51852954  0.81609984  1  0.145109  0  0.102253  0.113695  0  1.042002  0
H  H18  1  0.36397793  0.51853307  0.31607578  1  0.135274  0  0.102063  0.113787  0  1.041769  0
H  H19  1  0.84547559  0.48147036  0.18390017  1  0.145109  0  0.102247  0.113681  0  1.042028  0
H  H20  1  0.85451784  0.39471722  0.62588172  1  0.117127  0  0.11137  0.124439  0  1.008056  0
H  H21  1  0.45975034  0.60519542  0.87407557  1  0.149931  0  0.111423  0.124218  0  1.00871  0
H  H22  1  0.14548240  0.60528330  0.37411803  1  0.117118  0  0.111382  0.12445  0  1.00809  0
H  H23  1  0.54024990  0.39480510  0.12592481  1  0.149929  0  0.111416  0.124217  0  1.008714  0
H  H24  1  0.71530430  0.28980528  0.57349002  1  0.121617  0  0.111675  0.092081  0  1.01052  0
H  H25  1  0.42553955  0.71020611  0.92647899  1  0.126229  0  0.111846  0.092754  0  1.010643  0
H  H26  1  0.28469556  0.71019587  0.42651042  1  0.121592  0  0.111682  0.092088  0  1.010535  0
H  H27  1  0.57445969  0.28979379  0.07352102  1  0.126232  0  0.111849  0.092749  0  1.010629  0
H  H28  1  0.07504899  0.48487751  0.65675310  1  0.123018  0  0.119861  0.131453  0  0.988836  0
H  H29  1  0.59005442  0.51500644  0.84332196  1  0.130332  0  0.119847  0.131217  0  0.988761  0
H  H30  1  0.92495094  0.51512239  0.34324754  1  0.123007  0  0.11988  0.13149  0  0.988802  0
H  H31  1  0.40994651  0.48499409  0.15667779  1  0.130327  0  0.119886  0.131319  0  0.988743  0
H  H32  1  0.25498377  0.49686308  0.65807643  1  0.110402  0  0.11862  0.094099  0  0.989052  0
H  H33  1  0.75807908  0.50312820  0.84193892  1  0.129375  0  0.118685  0.09419  0  0.989405  0
H  H34  1  0.74501546  0.50313682  0.34192358  1  0.110396  0  0.118615  0.0941  0  0.989046  0
H  H35  1  0.24192122  0.49687107  0.15806102  1  0.129373  0  0.118672  0.094205  0  0.989382  0
H  H36  1  0.34531601  0.69172433  0.76314636  1  0.123614  0  0.111408  0.088644  0  1.013452  0
H  H37  1  0.65368269  0.30825492  0.73688174  1  0.136275  0  0.111373  0.088719  0  1.013044  0
H  H38  1  0.65468460  0.30827557  0.23685397  1  0.123615  0  0.111417  0.088656  0  1.013441  0
H  H39  1  0.34631624  0.69174436  0.26311821  1  0.136274  0  0.111379  0.088739  0  1.013022  0
H  H40  1  0.16951688  0.68894518  0.76582647  1  0.121988  0  0.118725  0.130031  0  0.991245  0
H  H41  1  0.48057001  0.31087940  0.73426329  1  0.100989  0  0.118494  0.129972  0  0.99096  0
H  H42  1  0.83048399  0.31105658  0.23417372  1  0.122001  0  0.11876  0.130064  0  0.991267  0
H  H43  1  0.51942953  0.68912113  0.26573678  1  0.100998  0  0.118501  0.129987  0  0.990945  0
H  H44  1  0.01632339  0.72535907  0.81723865  1  0.109834  0  0.110122  0.122767  0  1.013505  0
H  H45  1  0.29106805  0.27470299  0.68280920  1  0.135571  0  0.11009  0.122183  0  1.01382  0
H  H46  1  0.98367692  0.27464021  0.18276130  1  0.109837  0  0.110099  0.122723  0  1.013522  0
H  H47  1  0.70893319  0.72529816  0.31718996  1  0.135578  0  0.110101  0.122176  0  1.013856  0
H  H48  1  0.97366282  0.81500448  0.87630469  1  0.133862  0  0.109792  0.088973  0  1.01965  0
H  H49  1  0.15881736  0.18510239  0.62370028  1  0.112006  0  0.109867  0.089287  0  1.019949  0
H  H50  1  0.02633711  0.18499541  0.12369564  1  0.133875  0  0.109797  0.088973  0  1.019627  0
H  H51  1  0.84118256  0.81489751  0.37629973  1  0.112  0  0.10984  0.089234  0  1.019991  0
H  H52  1  0.67508024  0.72080879  0.82484765  1  0.136251  0  0.103163  0.094788  0  1.042392  0
H  H53  1  0.95436167  0.27926420  0.67516763  1  0.142358  0  0.103316  0.094675  0  1.04306  0
H  H54  1  0.32491993  0.27919298  0.17515221  1  0.136432  0  0.103152  0.09478  0  1.042412  0
H  H55  1  0.04563889  0.72073694  0.32483218  1  0.142351  0  0.103311  0.094709  0  1.043007  0
H  H56  1  0.70650198  0.62863339  0.76313289  1  0.117275  0  0.108982  0.117699  0  1.01839  0
H  H57  1  0.07788284  0.37135810  0.73692043  1  0.123765  0  0.108821  0.117256  0  1.019106  0
H  H58  1  0.29349756  0.37136713  0.23686718  1  0.117253  0  0.108981  0.117681  0  1.018405  0
H  H59  1  0.92211778  0.62864180  0.26307990  1  0.123889  0  0.108838  0.117286  0  1.019074  0
H  H60  1  0.80754171  0.78294422  0.97544876  1  0.126923  0  0.115687  0.09107  0  0.997315  0
H  H61  1  0.02464779  0.21700049  0.52451272  1  0.106416  0  0.115525  0.090968  0  0.996983  0
H  H62  1  0.19245690  0.21705443  0.02455145  1  0.126941  0  0.115669  0.091068  0  0.997301  0
H  H63  1  0.97535221  0.78299817  0.47548621  1  0.106458  0  0.115535  0.090964  0  0.997051  0
H  H64  1  0.94900357  0.79072724  0.02613038  1  0.12609  0  0.118796  0.129685  0  0.98783  0
H  H65  1  0.15842834  0.20930523  0.47384704  1  0.12757  0  0.118756  0.129839  0  0.987346  0
H  H66  1  0.05099536  0.20927204  0.97387021  1  0.126129  0  0.118761  0.1296  0  0.987761  0
H  H67  1  0.84157165  0.79069343  0.52615189  1  0.127581  0  0.118736  0.129804  0  0.987277  0
H  H68  1  0.15204627  0.99553792  0.96933932  1  0.12265  0  0.115589  0.125278  0  0.989617  0
H  H69  1  0.15681685  0.00455366  0.53063392  1  0.114504  0  0.115813  0.125651  0  0.990071  0
H  H70  1  0.84795334  0.00446136  0.03066159  1  0.12265  0  0.115611  0.125294  0  0.989598  0
H  H71  1  0.84318208  0.99544561  0.46936635  1  0.114672  0  0.115831  0.125703  0  0.989996  0
H  H72  1  0.00194839  0.98064955  0.92156143  1  0.113831  0  0.114753  0.091858  0  0.997362  0
H  H73  1  0.02143835  0.01928557  0.57837421  1  0.118469  0  0.114891  0.091973  0  0.997317  0
H  H74  1  0.99805292  0.01935035  0.07843922  1  0.113762  0  0.114734  0.091821  0  0.997386  0
H  H75  1  0.97856058  0.98071371  0.42162541  1  0.118451  0  0.114895  0.092018  0  0.997291  0
H  H76  1  0.48183338  0.98827834  0.10249783  1  0.114563  0  0.116042  0.124811  0  0.994146  0
H  H77  1  0.49353352  0.01167820  0.39749603  1  0.115551  0  0.116109  0.125296  0  0.994033  0
H  H78  1  0.51816617  0.01172218  0.89750192  1  0.114543  0  0.116037  0.124787  0  0.994164  0
H  H79  1  0.50646609  0.98832108  0.60250392  1  0.115531  0  0.116118  0.125285  0  0.994021  0
H  H80  1  0.65768148  0.09878699  0.09791229  1  0.119508  0  0.113518  0.088069  0  1.000986  0
H  H81  1  0.55883833  0.90108651  0.40208322  1  0.112573  0  0.113696  0.08827  0  1.001379  0
H  H82  1  0.34231775  0.90121291  0.90208740  1  0.119488  0  0.113528  0.08811  0  1.000956  0
H  H83  1  0.44116129  0.09891277  0.59791673  1  0.112585  0  0.113719  0.0883  0  1.001358  0
H  H84  1  0.55990987  0.17723828  0.99617760  1  0.115731  0  0.115509  0.094206  0  0.994212  0
H  H85  1  0.38261907  0.82278027  0.50385743  1  0.114934  0  0.115547  0.093946  0  0.993622  0
H  H86  1  0.44008999  0.82276287  0.00382252  1  0.115632  0  0.115529  0.094253  0  0.994216  0
H  H87  1  0.61738117  0.17722025  0.49614296  1  0.114938  0  0.115545  0.093937  0  0.993621  0
H  H88  1  0.37936129  0.07177785  0.99739653  1  0.123262  0  0.114753  0.124195  0  0.99443  0
H  H89  1  0.30750077  0.92824341  0.50258950  1  0.126845  0  0.114974  0.124331  0  0.994339  0
H  H90  1  0.62063788  0.92822330  0.00260392  1  0.123278  0  0.114782  0.124198  0  0.994385  0
H  H91  1  0.69249947  0.07175711  0.49741121  1  0.126683  0  0.114993  0.124376  0  0.994358  0
H  H92  1  0.06481771  0.69407238  0.07372251  1  0.122747  0  0.118248  0.133871  0  0.981013  0
H  H93  1  0.37080736  0.30585837  0.42627841  1  0.130656  0  0.118232  0.133798  0  0.981455  0
H  H94  1  0.93518153  0.30592752  0.92627782  1  0.122735  0  0.118262  0.133891  0  0.981013  0
H  H95  1  0.62919088  0.69414091  0.57372121  1  0.130654  0  0.118229  0.133766  0  0.981442  0
H  H96  1  0.04681533  0.59614946  0.12672097  1  0.108328  0  0.115606  0.091911  0  1.001383  0
H  H97  1  0.45072283  0.40382956  0.37330173  1  0.145927  0  0.115673  0.092263  0  1.001045  0
H  H98  1  0.95318391  0.40385043  0.87327936  1  0.108325  0  0.115604  0.091866  0  1.001514  0
H  H99  1  0.54927679  0.59616972  0.62669822  1  0.14591  0  0.11567  0.092276  0  1.001031  0
H  H100  1  0.27258298  0.78139125  0.21272587  1  0.093324  0  0.118186  0.087192  0  0.991346  0
H  H101  1  0.49124571  0.21862502  0.28723118  1  0.114223  0  0.118207  0.087466  0  0.990606  0
H  H102  1  0.72741833  0.21860865  0.78727382  1  0.093337  0  0.11817  0.08718  0  0.991347  0
H  H103  1  0.50875253  0.78137426  0.71276813  1  0.114232  0  0.118197  0.087517  0  0.990582  0
H  H104  1  0.30498996  0.88463831  0.16187527  1  0.122236  0  0.119291  0.130863  0  0.980628  0
H  H105  1  0.42047583  0.11533253  0.33808336  1  0.109048  0  0.119265  0.13072  0  0.981089  0
H  H106  1  0.69501028  0.11536221  0.83812512  1  0.122254  0  0.119306  0.13089  0  0.980605  0
H  H107  1  0.57952209  0.88466613  0.66191620  1  0.109061  0  0.119293  0.130758  0  0.981116  0
C  C108  1  0.58309494  0.37907661  0.62999087  1  0.479437  0  0.045749  0.092964  0  3.912677  0
C  C109  1  0.20401488  0.62092112  0.87003311  1  0.482327  0  0.046081  0.094045  0  3.913119  0
C  C110  1  0.41690492  0.62092453  0.37000926  1  0.479241  0  0.045734  0.092915  0  3.912772  0
C  C111  1  0.79598536  0.37907940  0.12996664  1  0.482303  0  0.046083  0.094048  0  3.913047  0
C  C112  1  0.65688219  0.44035977  0.66004143  1  -0.044878  0  -0.075929  -0.14131  0  3.926007  0
C  C113  1  0.21650331  0.55961946  0.83997449  1  -0.053741  0  -0.076137  -0.141052  0  3.927012  0
C  C114  1  0.34311666  0.55964075  0.33995895  1  -0.044703  0  -0.07592  -0.141225  0  3.926111  0
C  C115  1  0.78349731  0.44038044  0.16002552  1  -0.053723  0  -0.076152  -0.141041  0  3.927049  0
C  C116  1  0.75687157  0.44789403  0.65871634  1  -0.030581  0  0.014491  0.047422  0  3.943543  0
C  C117  1  0.30893594  0.55207180  0.84128836  1  -0.02822  0  0.014448  0.046539  0  3.945613  0
C  C118  1  0.24312867  0.55210649  0.34128340  1  -0.030531  0  0.01443  0.047288  0  3.943644  0
C  C119  1  0.69106399  0.44792810  0.15871133  1  -0.028231  0  0.014465  0.046528  0  3.945664  0
C  C120  1  0.77851731  0.39262751  0.62728561  1  0.00587  0  -0.067901  -0.124019  0  3.906836  0
C  C121  1  0.38586065  0.60733937  0.87270291  1  0.007641  0  -0.06786  -0.123019  0  3.906881  0
C  C122  1  0.22148224  0.60737301  0.37271413  1  0.005867  0  -0.067908  -0.123979  0  3.906747  0
C  C123  1  0.61413959  0.39266115  0.12729716  1  0.007858  0  -0.067893  -0.123071  0  3.906904  0
C  C124  1  0.70059826  0.33360957  0.59822569  1  0.501265  0  0.051196  0.099781  0  3.906729  0
C  C125  1  0.36700876  0.66639240  0.90176409  1  0.458026  0  0.050808  0.098481  0  3.90669  0
C  C126  1  0.29940129  0.66639095  0.40177437  1  0.501047  0  0.051235  0.099808  0  3.906716  0
C  C127  1  0.63299217  0.33360812  0.09823598  1  0.457827  0  0.05083  0.098533  0  3.906707  0
C  C128  1  0.83809862  0.51251250  0.68993784  1  1.134962  0  0.265319  0.384891  0  3.994787  0
C  C129  1  0.32557796  0.48745054  0.81008244  1  1.106694  0  0.265192  0.38434  0  3.994357  0
C  C130  1  0.16190162  0.48748802  0.31006190  1  1.134957  0  0.265416  0.385052  0  3.994601  0
C  C131  1  0.67442235  0.51254873  0.18991783  1  1.106805  0  0.265183  0.38427  0  3.99441  0
C  C132  1  0.00429428  0.58036210  0.71306597  1  1.126894  0  0.264444  0.375037  0  4.014838  0
C  C133  1  0.42390000  0.41953190  0.78699075  1  1.123569  0  0.264938  0.37481  0  4.014026  0
C  C134  1  0.99570596  0.41963842  0.28693474  1  1.12692  0  0.264437  0.375051  0  4.014743  0
C  C135  1  0.57610093  0.58046862  0.21300932  1  1.123594  0  0.264945  0.374737  0  4.014022  0
C  C136  1  0.88889059  0.61795025  0.74850512  1  1.109827  0  0.264821  0.384521  0  3.996928  0
C  C137  1  0.27091186  0.38195232  0.75155544  1  1.081042  0  0.264848  0.383681  0  3.999874  0
C  C138  1  0.11110934  0.38204964  0.25149553  1  1.110062  0  0.264731  0.384429  0  3.996952  0
C  C139  1  0.72908875  0.61804758  0.24844457  1  1.08105  0  0.264847  0.383624  0  3.999914  0
C  C140  1  0.10956375  0.58712695  0.71099951  1  0.020204  0  0.022252  0.061031  0  3.928647  0
C  C141  1  0.52235437  0.41268201  0.78910180  1  -0.033003  0  0.02265  0.0619  0  3.927777  0
C  C142  1  0.89043649  0.41287357  0.28900088  1  0.020207  0  0.022245  0.061015  0  3.928647  0
C  C143  1  0.47764656  0.58731851  0.21089827  1  -0.033016  0  0.022629  0.061915  0  3.927751  0
C  C144  1  0.13351707  0.53229703  0.68025553  1  0.000914  0  -0.0652  -0.13334  0  3.904148  0
C  C145  1  0.60110553  0.46754641  0.81984743  1  0.011549  0  -0.065371  -0.133085  0  3.903428  0
C  C146  1  0.86648286  0.46770287  0.31974480  1  0.000906  0  -0.065188  -0.133338  0  3.90416  0
C  C147  1  0.39889509  0.53245349  0.18015226  1  0.011541  0  -0.06537  -0.13316  0  3.903402  0
C  C148  1  0.23240912  0.53874736  0.68079794  1  0.509596  0  0.054557  0.097628  0  3.922715  0
C  C149  1  0.69358483  0.46117569  0.81926285  1  0.461153  0  0.054622  0.097577  0  3.923592  0
C  C150  1  0.76759081  0.46125254  0.31920239  1  0.509599  0  0.054563  0.097623  0  3.922729  0
C  C151  1  0.30641548  0.53882359  0.18073678  1  0.461144  0  0.054579  0.097476  0  3.923585  0
C  C152  1  0.28311498  0.64856212  0.73968300  1  0.47336  0  0.047929  0.09009  0  3.935814  0
C  C153  1  0.63456788  0.35134752  0.76037257  1  0.437267  0  0.048334  0.090632  0  3.934503  0
C  C154  1  0.71688494  0.35143778  0.26031700  1  0.473353  0  0.04794  0.090108  0  3.935819  0
C  C155  1  0.36543174  0.64865175  0.23962738  1  0.437267  0  0.048344  0.090622  0  3.934535  0
C  C156  1  0.18635537  0.64636917  0.74121831  1  -0.062216  0  -0.067479  -0.134562  0  3.915248  0
C  C157  1  0.53994006  0.35345215  0.75887700  1  0.044191  0  -0.067752  -0.135609  0  3.915142  0
C  C158  1  0.81364487  0.35363135  0.25878143  1  -0.062213  0  -0.067549  -0.134627  0  3.91531  0
C  C159  1  0.46005918  0.64654775  0.24112269  1  0.0442  0  -0.067752  -0.135621  0  3.915161  0
C  C160  1  0.86522383  0.67095726  0.78465328  1  -0.047383  0  0.015107  0.045998  0  3.943239  0
C  C161  1  0.19429411  0.32903480  0.71539294  1  -0.002602  0  0.014598  0.044446  0  3.945603  0
C  C162  1  0.13477579  0.32904201  0.21534731  1  -0.047562  0  0.015139  0.045968  0  3.943234  0
C  C163  1  0.80570645  0.67096635  0.28460654  1  -0.002582  0  0.01457  0.044343  0  3.945625  0
C  C164  1  0.94049260  0.72384529  0.81731399  1  0.000832  0  -0.069703  -0.130294  0  3.91044  0
C  C165  1  0.21674132  0.27619273  0.68271392  1  0.034406  0  -0.068787  -0.127555  0  3.909068  0
C  C166  1  0.05950670  0.27615337  0.18268622  1  0.000818  0  -0.069647  -0.130184  0  3.910441  0
C  C167  1  0.78326023  0.72380904  0.31728562  1  0.034414  0  -0.068738  -0.127455  0  3.909094  0
C  C168  1  0.91649546  0.77363026  0.85047904  1  0.48043  0  0.050358  0.098075  0  3.913361  0
C  C169  1  0.14300203  0.22646039  0.64953448  1  0.421596  0  0.049945  0.09744  0  3.914745  0
C  C170  1  0.08350447  0.22636964  0.14952161  1  0.480426  0  0.050347  0.098092  0  3.913354  0
C  C171  1  0.85699852  0.77354076  0.35046532  1  0.421796  0  0.049931  0.097449  0  3.914757  0
C  C172  1  0.74998177  0.72063502  0.82188417  1  0.489255  0  0.048832  0.094808  0  3.907473  0
C  C173  1  0.02943537  0.27943716  0.67813169  1  0.506506  0  0.048579  0.095693  0  3.90782  0
C  C174  1  0.25001916  0.27936550  0.17811590  1  0.489081  0  0.048846  0.094824  0  3.907459  0
C  C175  1  0.97056587  0.72056398  0.32186844  1  0.506501  0  0.048606  0.095722  0  3.907748  0
C  C176  1  0.76782626  0.66910034  0.78745536  1  0.006012  0  -0.072248  -0.137978  0  3.918258  0
C  C177  1  0.09875891  0.33091518  0.71258507  1  -0.045115  0  -0.071867  -0.137637  0  3.919659  0
C  C178  1  0.23217498  0.33090081  0.21254509  1  0.005953  0  -0.072255  -0.137935  0  3.918199  0
C  C179  1  0.90124271  0.66908534  0.28741500  1  -0.045227  0  -0.071913  -0.13769  0  3.919591  0
C  C180  1  0.88526712  0.82910616  0.97559915  1  0.498136  0  0.051249  0.0911  0  3.926441  0
C  C181  1  0.05627318  0.17088086  0.52437673  1  0.459074  0  0.051703  0.091655  0  3.925709  0
C  C182  1  0.11473280  0.17089373  0.02440150  1  0.498394  0  0.051298  0.091173  0  3.926357  0
C  C183  1  0.94372513  0.82911717  0.47562182  1  0.459383  0  0.051707  0.091668  0  3.925646  0
C  C184  1  0.96308199  0.83379363  0.00342467  1  -0.039202  0  -0.065024  -0.128135  0  3.903012  0
C  C185  1  0.12948142  0.16626420  0.49657131  1  0.014772  0  -0.065368  -0.128505  0  3.901848  0
C  C186  1  0.03691663  0.16620502  0.99657586  1  -0.039423  0  -0.064987  -0.128026  0  3.902881  0
C  C187  1  0.87051620  0.83373384  0.50342724  1  0.014405  0  -0.065317  -0.128402  0  3.901669  0
C  C188  1  0.06125415  0.89369768  0.00114955  1  -0.000232  0  0.021807  0.058942  0  3.929893  0
C  C189  1  0.16782457  0.10642203  0.49886875  1  0.004482  0  0.021802  0.058998  0  3.931845  0
C  C190  1  0.93874408  0.10630159  0.99885104  1  -0.000247  0  0.021784  0.058864  0  3.930011  0
C  C191  1  0.83217374  0.89357600  0.50113076  1  0.004404  0  0.02182  0.059054  0  3.931766  0
C  C192  1  0.07659672  0.94829950  0.97168023  1  0.032913  0  -0.069202  -0.129278  0  3.925808  0
C  C193  1  0.12857022  0.05177936  0.52831175  1  0.014154  0  -0.069284  -0.129766  0  3.927975  0
C  C194  1  0.92340321  0.05170040  0.02832009  1  0.032892  0  -0.069178  -0.129236  0  3.925852  0
C  C195  1  0.87142878  0.94821867  0.47168808  1  0.01413  0  -0.069326  -0.129853  0  3.927855  0
C  C196  1  0.99471139  0.94006191  0.94521827  1  0.43035  0  0.048012  0.08285  0  3.93891  0
C  C197  1  0.05482243  0.05993331  0.55474377  1  0.439306  0  0.04817  0.083666  0  3.940765  0
C  C198  1  0.00528822  0.05993736  0.05478200  1  0.430403  0  0.047989  0.082864  0  3.93899  0
C  C199  1  0.94517888  0.94006659  0.44525624  1  0.439327  0  0.048126  0.08353  0  3.940707  0
C  C200  1  0.14683609  0.89853162  0.02921448  1  1.123317  0  0.267589  0.38179  0  3.999667  0
C  C201  1  0.24858788  0.10161167  0.47080713  1  1.129613  0  0.267963  0.381454  0  4.002394  0
C  C202  1  0.85316314  0.10146828  0.97078617  1  1.12327  0  0.267526  0.381687  0  3.999735  0
C  C203  1  0.75141174  0.89838761  0.52919218  1  1.129561  0  0.268004  0.381457  0  4.002562  0
C  C204  1  0.20449757  0.85398716  0.08290752  1  1.151264  0  0.268631  0.394748  0  4.008579  0
C  C205  1  0.35076397  0.14603485  0.41708905  1  1.144427  0  0.268759  0.393797  0  4.011383  0
C  C206  1  0.79550304  0.14601274  0.91709281  1  1.151143  0  0.268647  0.394711  0  4.008631  0
C  C207  1  0.64923489  0.85396567  0.58291070  1  1.14447  0  0.268687  0.393683  0  4.011529  0
C  C208  1  0.31309866  0.95996270  0.05270255  1  1.123899  0  0.266962  0.382329  0  4.002699  0
C  C209  1  0.35326120  0.04003932  0.44729090  1  1.130287  0  0.266801  0.381669  0  4.003217  0
C  C210  1  0.68690127  0.04003720  0.94729778  1  1.123884  0  0.266979  0.38237  0  4.002793  0
C  C211  1  0.64673904  0.95996120  0.55270885  1  1.130291  0  0.266782  0.381605  0  4.003219  0
C  C212  1  0.41753296  0.02231842  0.05018858  1  -0.001564  0  0.021153  0.05691  0  3.927148  0
C  C213  1  0.39521434  0.97762939  0.44979589  1  -0.021137  0  0.021893  0.057562  0  3.92963  0
C  C214  1  0.58246797  0.97768210  0.94981116  1  -0.00164  0  0.021126  0.056812  0  3.927243  0
C  C215  1  0.60478627  0.02237051  0.55020412  1  -0.020974  0  0.021908  0.057569  0  3.929574  0
C  C216  1  0.49672254  0.02945761  0.07873720  1  -0.022904  0  -0.06909  -0.134644  0  3.915971  0
C  C217  1  0.46723886  0.97047507  0.42124187  1  0.020815  0  -0.068969  -0.135191  0  3.916904  0
C  C218  1  0.50327739  0.97054229  0.92126280  1  -0.022835  0  -0.069059  -0.134561  0  3.91601  0
C  C219  1  0.53276076  0.02952420  0.57875808  1  0.020817  0  -0.068935  -0.135066  0  3.916906  0
C  C220  1  0.59315555  0.08991221  0.07640324  1  0.457789  0  0.048513  0.090909  0  3.932338  0
C  C221  1  0.50317856  0.90999784  0.42358020  1  0.440352  0  0.048092  0.090608  0  3.93376  0
C  C222  1  0.40684369  0.91008768  0.92359644  1  0.457783  0  0.048475  0.09082  0  3.932327  0
C  C223  1  0.49682106  0.09000143  0.57642007  1  0.440333  0  0.048024  0.090464  0  3.933834  0
C  C224  1  0.53820960  0.13401773  0.01918321  1  0.503607  0  0.051225  0.091908  0  3.922604  0
C  C225  1  0.40409889  0.86595048  0.48082457  1  0.453405  0  0.051783  0.092659  0  3.922092  0
C  C226  1  0.46178925  0.86598279  0.98081685  1  0.503734  0  0.051071  0.09163  0  3.922782  0
C  C227  1  0.59590204  0.13405004  0.51917550  1  0.4534  0  0.051779  0.092689  0  3.922047  0
C  C228  1  0.43941292  0.07557035  0.01973522  1  0.006953  0  -0.067213  -0.126481  0  3.929972  0
C  C229  1  0.36375425  0.92438901  0.48024998  1  0.035121  0  -0.068267  -0.127339  0  3.932227  0
C  C230  1  0.56058656  0.92443142  0.98026497  1  0.006981  0  -0.067191  -0.126345  0  3.929897  0
C  C231  1  0.63624668  0.07561152  0.51974977  1  0.03512  0  -0.068281  -0.127405  0  3.932248  0
C  C232  1  0.18680340  0.79624311  0.11409801  1  0.018957  0  0.027215  0.071679  0  3.920094  0
C  C233  1  0.39077195  0.20374638  0.38589259  1  0.002044  0  0.026891  0.071019  0  3.920438  0
C  C234  1  0.81319753  0.20375741  0.88590238  1  0.019037  0  0.027175  0.071662  0  3.920041  0
C  C235  1  0.60922836  0.79625290  0.61410703  1  0.002066  0  0.026887  0.071006  0  3.92049  0
C  C236  1  0.11160510  0.71502502  0.10430031  1  0.031562  0  -0.063567  -0.121815  0  3.89518  0
C  C237  1  0.39673845  0.28494867  0.39571483  1  0.035326  0  -0.0633  -0.12088  0  3.894509  0
C  C238  1  0.88839476  0.28497612  0.89570014  1  0.030939  0  -0.063601  -0.121867  0  3.895157  0
C  C239  1  0.60326117  0.71505060  0.60428512  1  0.035302  0  -0.063306  -0.120829  0  3.894471  0
C  C240  1  0.10158323  0.66111495  0.13321583  1  0.452215  0  0.053064  0.096686  0  3.914132  0
C  C241  1  0.44060868  0.33888308  0.36681350  1  0.410984  0  0.053018  0.095748  0  3.913565  0
C  C242  1  0.89841632  0.33888557  0.86678487  1  0.452863  0  0.053069  0.096785  0  3.914136  0
C  C243  1  0.55939094  0.66111619  0.63318612  1  0.411035  0  0.053018  0.095706  0  3.913528  0
C  C244  1  0.22998489  0.76453760  0.18115504  1  0.456177  0  0.050427  0.091319  0  3.94325  0
C  C245  1  0.46557575  0.23546532  0.31882964  1  0.434963  0  0.050146  0.090418  0  3.942698  0
C  C246  1  0.77001742  0.23546293  0.81884502  1  0.456179  0  0.050478  0.091347  0  3.943201  0
C  C247  1  0.53442217  0.76453333  0.68116993  1  0.43497  0  0.050112  0.090217  0  3.942593  0
C  C248  1  0.24680878  0.82141606  0.15338622  1  0.030292  0  -0.066255  -0.135254  0  3.911836  0
C  C249  1  0.42554690  0.17856464  0.34658737  1  0.04155  0  -0.06575  -0.13415  0  3.911436  0
C  C250  1  0.75319215  0.17858446  0.84661417  1  0.030247  0  -0.066268  -0.135268  0  3.911744  0
C  C251  1  0.57445134  0.82143464  0.65341225  1  0.04157  0  -0.065755  -0.134138  0  3.91144  0
N  N252  1  0.60457929  0.32689869  0.59946031  1  -1.262282  0  -0.323549  -0.204232  0  3.565115  0
N  N253  1  0.27770190  0.67311144  0.90054416  1  -1.255721  0  -0.323519  -0.204579  0  3.56565  0
N  N254  1  0.39542095  0.67310183  0.40053975  1  -1.262065  0  -0.323578  -0.204303  0  3.565226  0
N  N255  1  0.72229734  0.32688846  0.09945552  1  -1.255721  0  -0.323493  -0.20455  0  3.565693  0
N  N256  1  0.93348531  0.52099028  0.68409095  1  -1.188566  0  -0.294448  -0.38619  0  3.219386  0
N  N257  1  0.41250418  0.47899149  0.81591727  1  -1.187216  0  -0.294712  -0.385768  0  3.218676  0
N  N258  1  0.06651556  0.47901148  0.31590923  1  -1.188661  0  -0.294474  -0.386262  0  3.219367  0
N  N259  1  0.58749675  0.52100903  0.18408279  1  -1.187293  0  -0.294683  -0.385686  0  3.218628  0
N  N260  1  0.98677961  0.63265853  0.74467386  1  -1.180011  0  -0.295976  -0.386166  0  3.227026  0
N  N261  1  0.35407754  0.36721415  0.75539125  1  -1.178643  0  -0.296206  -0.385981  0  3.226587  0
N  N262  1  0.01321931  0.36734074  0.25532705  1  -1.179953  0  -0.295958  -0.386142  0  3.226889  0
N  N263  1  0.64592339  0.63278637  0.24460881  1  -1.178651  0  -0.296244  -0.385942  0  3.226589  0
N  N264  1  0.81155931  0.55808267  0.72227243  1  -1.197924  0  -0.296074  -0.38856  0  3.184425  0
N  N265  1  0.25344461  0.44182817  0.77777973  1  -1.1697  0  -0.296151  -0.387694  0  3.184028  0
N  N266  1  0.18844093  0.44191785  0.27772764  1  -1.197944  0  -0.296113  -0.388601  0  3.184394  0
N  N267  1  0.74655539  0.55817048  0.22222048  1  -1.169734  0  -0.296162  -0.387633  0  3.18402  0
N  N268  1  0.30581721  0.59591875  0.70994331  1  -1.261857  0  -0.326573  -0.206258  0  3.580024  0
N  N269  1  0.70989439  0.40404368  0.79009652  1  -1.25642  0  -0.326358  -0.205953  0  3.579393  0
N  N270  1  0.69418241  0.40408053  0.29005664  1  -1.261858  0  -0.326576  -0.206273  0  3.580026  0
N  N271  1  0.29010553  0.59595622  0.20990349  1  -1.256405  0  -0.326347  -0.205908  0  3.579373  0
N  N272  1  0.82310352  0.77257313  0.85267951  1  -1.247862  0  -0.32068  -0.201914  0  3.553564  0
N  N273  1  0.05066193  0.22751142  0.64733163  1  -1.235568  0  -0.320865  -0.203037  0  3.554972  0
N  N274  1  0.17689741  0.22742739  0.14732087  1  -1.247799  0  -0.320689  -0.201974  0  3.553624  0
N  N275  1  0.94933862  0.77248972  0.35266882  1  -1.235798  0  -0.320859  -0.203053  0  3.554978  0
N  N276  1  0.90098627  0.88079306  0.94674041  1  -1.259192  0  -0.326814  -0.20948  0  3.580163  0
N  N277  1  0.02032156  0.11917723  0.55323028  1  -1.246032  0  -0.327021  -0.210503  0  3.582072  0
N  N278  1  0.09901266  0.11920621  0.05325986  1  -1.259222  0  -0.326828  -0.209538  0  3.58018  0
N  N279  1  0.97967882  0.88082081  0.44676827  1  -1.246067  0  -0.327022  -0.210475  0  3.58197  0
N  N280  1  0.12543853  0.84473160  0.05699745  1  -1.188034  0  -0.292633  -0.385894  0  3.211166  0
N  N281  1  0.28100549  0.15537582  0.44301820  1  -1.178346  0  -0.292973  -0.385349  0  3.212531  0
N  N282  1  0.87456071  0.15526830  0.94300320  1  -1.188021  0  -0.29259  -0.385776  0  3.21118  0
N  N283  1  0.71899343  0.84462345  0.55698143  1  -1.178313  0  -0.293015  -0.385392  0  3.212602  0
N  N284  1  0.29920795  0.91150234  0.08287167  1  -1.178581  0  -0.296094  -0.393726  0  3.220039  0
N  N285  1  0.38785581  0.08845666  0.41710362  1  -1.179977  0  -0.296054  -0.392878  0  3.220169  0
N  N286  1  0.70079198  0.08849756  0.91712834  1  -1.178429  0  -0.296086  -0.39372  0  3.220049  0
N  N287  1  0.61214450  0.91154261  0.58289697  1  -1.180027  0  -0.295979  -0.392736  0  3.220206  0
N  N288  1  0.23973520  0.95589072  0.02489201  1  -1.168116  0  -0.293546  -0.390787  0  3.207926  0
N  N289  1  0.28405494  0.04420707  0.47512549  1  -1.180176  0  -0.293937  -0.390726  0  3.208153  0
N  N290  1  0.76026404  0.04410918  0.97510832  1  -1.168121  0  -0.293539  -0.390787  0  3.208078  0
N  N291  1  0.71594537  0.95579221  0.52487414  1  -1.180181  0  -0.293911  -0.390679  0  3.208249  0
N  N292  1  0.61331933  0.14167645  0.04732537  1  -1.270347  0  -0.327183  -0.208676  0  3.577394  0
N  N293  1  0.47156233  0.85827193  0.45267938  1  -1.252875  0  -0.327206  -0.208256  0  3.577176  0
N  N294  1  0.38668022  0.85832407  0.95267470  1  -1.270364  0  -0.327067  -0.208474  0  3.577368  0
N  N295  1  0.52843691  0.14172797  0.54732063  1  -1.252834  0  -0.327216  -0.208256  0  3.577112  0
N  N296  1  0.15997595  0.68543736  0.17088282  1  -1.269588  0  -0.32902  -0.206976  0  3.593029  0
N  N297  1  0.47465254  0.31456380  0.32913104  1  -1.260716  0  -0.329103  -0.20668  0  3.593105  0
N  N298  1  0.84002498  0.31456316  0.82911725  1  -1.269654  0  -0.329007  -0.206995  0  3.592941  0
N  N299  1  0.52534638  0.68543548  0.67086891  1  -1.260785  0  -0.329079  -0.206554  0  3.592926  0
Cl  Cl300  1  0.64084443  0.78136578  0.92275133  1  -0.675511  0  -0.365052  -0.525245  0  1.115516  0
Cl  Cl301  1  0.85959542  0.21862573  0.57723740  1  -0.674547  0  -0.365128  -0.52515  0  1.114878  0
Cl  Cl302  1  0.35915550  0.21863411  0.07724868  1  -0.67551  0  -0.365058  -0.525241  0  1.115524  0
Cl  Cl303  1  0.14040544  0.78137604  0.42276215  1  -0.674535  0  -0.365161  -0.525192  0  1.114879  0
Cl  Cl304  1  0.82987006  0.97025100  0.86991843  1  -0.668477  0  -0.387461  -0.520308  0  1.097796  0
Cl  Cl305  1  0.85965482  0.02979638  0.63006510  1  -0.669195  0  -0.387772  -0.520457  0  1.097097  0
Cl  Cl306  1  0.17012986  0.02974890  0.13008189  1  -0.66848  0  -0.387471  -0.520315  0  1.097793  0
Cl  Cl307  1  0.14034435  0.97020477  0.36993471  1  -0.669207  0  -0.387771  -0.520475  0  1.097117  0
Cl  Cl308  1  0.52459303  0.28930333  0.49058642  1  -0.663906  0  -0.374673  -0.521564  0  1.122989  0
Cl  Cl309  1  0.23524645  0.71069986  0.00940224  1  -0.663362  0  -0.374715  -0.521662  0  1.122433  0
Cl  Cl310  1  0.47540621  0.71069657  0.50941358  1  -0.663911  0  -0.374659  -0.521541  0  1.122994  0
Cl  Cl311  1  0.76475348  0.28930004  0.99059745  1  -0.663361  0  -0.374709  -0.521652  0  1.122418  0
Cl  Cl312  1  0.34847726  0.21105783  0.58757859  1  -0.675302  0  -0.355596  -0.520671  0  1.148163  0
Cl  Cl313  1  0.13741793  0.78894606  0.91239286  1  -0.675661  0  -0.35568  -0.520765  0  1.146935  0
Cl  Cl314  1  0.65152336  0.78894207  0.41242142  1  -0.675304  0  -0.355616  -0.520706  0  1.14816  0
Cl  Cl315  1  0.86258199  0.21105384  0.08760714  1  -0.675664  0  -0.355676  -0.520751  0  1.146925  0
Cl  Cl316  1  0.51205313  0.66773237  0.77890650  1  -0.65546  0  -0.32175  -0.49179  0  1.242839  0
Cl  Cl317  1  0.84436352  0.33228583  0.72109494  1  -0.655374  0  -0.321619  -0.491617  0  1.243373  0
Cl  Cl318  1  0.48794780  0.33226815  0.22109293  1  -0.655397  0  -0.321743  -0.491783  0  1.24282  0
Cl  Cl319  1  0.15563571  0.66771406  0.27890507  1  -0.655377  0  -0.321618  -0.49163  0  1.243374  0
Cl  Cl320  1  0.44017176  0.47894172  0.67807764  1  -0.65844  0  -0.317264  -0.484452  0  1.243716  0
Cl  Cl321  1  0.96123014  0.52107489  0.82193843  1  -0.660301  0  -0.317005  -0.484052  0  1.243621  0
Cl  Cl322  1  0.55982785  0.52105756  0.32192231  1  -0.658426  0  -0.317255  -0.484442  0  1.243706  0
Cl  Cl323  1  0.03876979  0.47892500  0.17806158  1  -0.660303  0  -0.317006  -0.484055  0  1.243612  0
