# generated using pymatgen
data_Gd3H13C10S2O13
_symmetry_space_group_name_H-M   'P 1'
_cell_length_a   7.29604421
_cell_length_b   9.30455140
_cell_length_c   14.38705150
_cell_angle_alpha   76.52756805
_cell_angle_beta   76.75401931
_cell_angle_gamma   79.18538309
_symmetry_Int_Tables_number   1
_chemical_formula_structural   Gd3H13C10S2O13
_chemical_formula_sum   'Gd6 H26 C20 S4 O26'
_cell_volume   915.19476701
_cell_formula_units_Z   2
loop_
 _symmetry_equiv_pos_site_id
 _symmetry_equiv_pos_as_xyz
  1  'x, y, z'
loop_
 _atom_site_type_symbol
 _atom_site_label
 _atom_site_symmetry_multiplicity
 _atom_site_fract_x
 _atom_site_fract_y
 _atom_site_fract_z
 _atom_site_occupancy
 _atom_site_hle17_bader_spin_density
 _atom_site_hle17_ddec_charge
 _atom_site_hle17_ddec_spin_density
 _atom_site_hle17_ddec_sum_bond_order
 _atom_site_hle17_magmom
 _atom_site_hse06_10hf_bader_spin_density
 _atom_site_hse06_10hf_ddec_charge
 _atom_site_hse06_10hf_ddec_spin_density
 _atom_site_hse06_10hf_ddec_sum_bond_order
 _atom_site_hse06_10hf_magmom
 _atom_site_hse06_bader_spin_density
 _atom_site_hse06_ddec_charge
 _atom_site_hse06_ddec_spin_density
 _atom_site_hse06_ddec_sum_bond_order
 _atom_site_hse06_magmom
 _atom_site_pbe_bader_spin_density
 _atom_site_pbe_cm5_charge
 _atom_site_pbe_ddec_charge
 _atom_site_pbe_ddec_spin_density
 _atom_site_pbe_ddec_sum_bond_order
 _atom_site_pbe_magmom
Gd  Gd0  1  0.55752021  0.14742781  0.05837248  1  0  2.284736  0  1.804535  0  0  2.20823  0  2.159264  0  0  2.261519  0  2.098475  0  0  1.421902  2.167369  0  2.206569  0
Gd  Gd1  1  0.44247770  0.85257110  0.94162917  1  0  2.284706  0  1.80456  0  0  2.208259  0  2.159204  0  0  2.261526  0  2.098453  0  0  1.421898  2.167376  0  2.20655  0
Gd  Gd2  1  0.23220489  0.48635474  0.05020667  1  0  2.309976  0  1.839272  0  0  2.233807  0  2.201861  0  0  2.287181  0  2.139747  0  0  1.435146  2.191333  0  2.2523  0
Gd  Gd3  1  0.76779683  0.51364642  0.94979282  1  0  2.309926  0  1.839274  0  0  2.233828  0  2.201755  0  0  2.287168  0  2.139698  0  0  1.435138  2.191329  0  2.252252  0
Gd  Gd4  1  0.07206470  0.14646442  0.05717741  1  0  2.295187  0  1.775351  0  0  2.221175  0  2.121507  0  0  2.274358  0  2.061741  0  0  1.418584  2.180639  0  2.167868  0
Gd  Gd5  1  0.92793483  0.85353338  0.94282352  1  0  2.295203  0  1.775299  0  0  2.221173  0  2.121491  0  0  2.274349  0  2.061733  0  0  1.418594  2.180641  0  2.167846  0
H  H6  1  0.54973398  0.39594864  0.14663361  1  0  0.436542  0  0.859919  0  0  0.409595  0  0.919347  0  0  0.419585  0  0.904504  0  0  0.303707  0.402478  0  0.929896  0
H  H7  1  0.45026451  0.60405475  0.85336662  1  0  0.436545  0  0.859921  0  0  0.409596  0  0.919351  0  0  0.419588  0  0.904503  0  0  0.3037  0.402478  0  0.929901  0
H  H8  1  0.86518666  0.39291586  0.14710067  1  0  0.429255  0  0.866688  0  0  0.404482  0  0.921967  0  0  0.414227  0  0.907462  0  0  0.302833  0.397499  0  0.932348  0
H  H9  1  0.13480943  0.60708529  0.85289948  1  0  0.429224  0  0.866732  0  0  0.404463  0  0.921988  0  0  0.414206  0  0.907488  0  0  0.302854  0.39748  0  0.932368  0
H  H10  1  0.88470467  0.22159872  0.89885136  1  0  0.413083  0  0.909996  0  0  0.383888  0  0.975609  0  0  0.394446  0  0.959749  0  0  0.295669  0.376512  0  0.98661  0
H  H11  1  0.11529465  0.77840019  0.10114944  1  0  0.413084  0  0.910004  0  0  0.383877  0  0.975642  0  0  0.394436  0  0.959781  0  0  0.295652  0.376501  0  0.986643  0
H  H12  1  0.16332458  0.08896869  0.85522915  1  0  0.449949  0  0.831992  0  0  0.429348  0  0.878628  0  0  0.438826  0  0.864624  0  0  0.3114  0.422502  0  0.888792  0
H  H13  1  0.83667031  0.91103133  0.14477200  1  0  0.449909  0  0.832043  0  0  0.429302  0  0.878696  0  0  0.438779  0  0.864694  0  0  0.311353  0.422454  0  0.888862  0
H  H14  1  0.34651675  0.89096344  0.14008929  1  0  0.440679  0  0.85775  0  0  0.413785  0  0.916453  0  0  0.424311  0  0.900827  0  0  0.299028  0.406065  0  0.927923  0
H  H15  1  0.65348236  0.10903660  0.85991136  1  0  0.440678  0  0.857747  0  0  0.413789  0  0.916443  0  0  0.424314  0  0.900818  0  0  0.299036  0.406068  0  0.927912  0
H  H16  1  0.22047997  0.21596105  0.21378546  1  0  0.451381  0  0.820495  0  0  0.435782  0  0.85716  0  0  0.44402  0  0.845289  0  0  0.317774  0.429931  0  0.865621  0
H  H17  1  0.77951873  0.78404122  0.78621422  1  0  0.45137  0  0.820505  0  0  0.435774  0  0.857166  0  0  0.444013  0  0.845293  0  0  0.317775  0.429922  0  0.865627  0
H  H18  1  0.36998318  0.30069906  0.89360464  1  0  0.4564  0  0.81737  0  0  0.436736  0  0.86079  0  0  0.446149  0  0.84707  0  0  0.319793  0.429896  0  0.870842  0
H  H19  1  0.63001192  0.69929985  0.10639525  1  0  0.456388  0  0.817383  0  0  0.436731  0  0.860791  0  0  0.446144  0  0.847071  0  0  0.319802  0.429892  0  0.870843  0
H  H20  1  0.98454889  0.95845448  0.36722696  1  0  0.116304  0  0.939793  0  0  0.125525  0  0.999001  0  0  0.128928  0  0.996862  0  0  0.112468  0.122963  0  1.000836  0
H  H21  1  0.01545203  0.04154334  0.63277172  1  0  0.116321  0  0.939772  0  0  0.125537  0  0.998985  0  0  0.12894  0  0.996847  0  0  0.112472  0.122967  0  1.00083  0
H  H22  1  0.95996403  0.79291960  0.53186958  1  0  0.087835  0  0.98315  0  0  0.096232  0  1.047133  0  0  0.097634  0  1.049399  0  0  0.098456  0.095325  0  1.045406  0
H  H23  1  0.04003811  0.20707931  0.46813227  1  0  0.087871  0  0.983128  0  0  0.09624  0  1.047141  0  0  0.097642  0  1.049408  0  0  0.098447  0.095333  0  1.045419  0
H  H24  1  0.64901958  0.77922594  0.64242250  1  0  0.110052  0  0.957745  0  0  0.117773  0  1.021211  0  0  0.121628  0  1.018102  0  0  0.109469  0.114943  0  1.023667  0
H  H25  1  0.35097609  0.22077744  0.35757736  1  0  0.110061  0  0.957683  0  0  0.117779  0  1.021166  0  0  0.121634  0  1.018056  0  0  0.109465  0.114951  0  1.023621  0
H  H26  1  0.40953830  0.68678620  0.38452238  1  0  0.115037  0  0.938275  0  0  0.126347  0  0.992204  0  0  0.129854  0  0.990185  0  0  0.111283  0.123626  0  0.99412  0
H  H27  1  0.59046622  0.31321500  0.61547400  1  0  0.11505  0  0.938232  0  0  0.126356  0  0.992171  0  0  0.129862  0  0.99015  0  0  0.111264  0.123634  0  0.994088  0
H  H28  1  0.38257622  0.62580149  0.56583452  1  0  0.101645  0  0.959527  0  0  0.108544  0  1.023579  0  0  0.111152  0  1.023668  0  0  0.101572  0.106463  0  1.024105  0
H  H29  1  0.61742487  0.37420303  0.43416455  1  0  0.101633  0  0.959679  0  0  0.108539  0  1.023699  0  0  0.111147  0  1.023788  0  0  0.101578  0.10646  0  1.024226  0
H  H30  1  0.12400102  0.49611013  0.67084712  1  0  0.112462  0  0.953003  0  0  0.121644  0  1.0129  0  0  0.125882  0  1.009216  0  0  0.108098  0.118422  0  1.015833  0
H  H31  1  0.87599810  0.50388988  0.32915701  1  0  0.112497  0  0.952996  0  0  0.121677  0  1.012892  0  0  0.125917  0  1.009205  0  0  0.108114  0.118457  0  1.015826  0
C  C32  1  0.68937503  0.04818993  0.39081053  1  0  -0.167776  0  3.715402  0  0  -0.146484  0  3.964146  0  0  -0.155315  0  3.986581  0  0  -0.014101  -0.141048  0  3.94942  0
C  C33  1  0.31062429  0.95180898  0.60919026  1  0  -0.167813  0  3.715536  0  0  -0.146508  0  3.964267  0  0  -0.15534  0  3.986704  0  0  -0.014119  -0.14107  0  3.949534  0
C  C34  1  0.84914471  0.95866636  0.41823510  1  0  -0.032032  0  3.727529  0  0  -0.063327  0  3.983038  0  0  -0.060436  0  4.001218  0  0  -0.074439  -0.065013  0  3.970799  0
C  C35  1  0.15085722  0.04133368  0.58176522  1  0  -0.032063  0  3.727558  0  0  -0.063355  0  3.983066  0  0  -0.060462  0  4.001246  0  0  -0.07446  -0.065032  0  3.970829  0
C  C36  1  0.83358524  0.86377158  0.51067739  1  0  -0.053372  0  3.756344  0  0  -0.066033  0  4.012741  0  0  -0.069698  0  4.035165  0  0  -0.084916  -0.063309  0  3.997088  0
C  C37  1  0.16641689  0.13622736  0.48932168  1  0  -0.053418  0  3.756399  0  0  -0.066067  0  4.012824  0  0  -0.069732  0  4.035247  0  0  -0.084913  -0.063343  0  3.997171  0
C  C38  1  0.65973475  0.85770796  0.57289102  1  0  -0.092905  0  3.691556  0  0  -0.117231  0  3.94404  0  0  -0.11733  0  3.961687  0  0  -0.081581  -0.117159  0  3.932025  0
C  C39  1  0.34026477  0.14228984  0.42710922  1  0  -0.092908  0  3.691534  0  0  -0.117228  0  3.944013  0  0  -0.117328  0  3.961661  0  0  -0.081566  -0.117158  0  3.932005  0
C  C40  1  0.50656005  0.04961316  0.45328078  1  0  0.064574  0  3.746997  0  0  0.073227  0  3.973286  0  0  0.07346  0  3.998293  0  0  0.003107  0.07339  0  3.956295  0
C  C41  1  0.49343708  0.95038239  0.54672216  1  0  0.064583  0  3.747027  0  0  0.073224  0  3.973322  0  0  0.073457  0  3.998329  0  0  0.003121  0.073387  0  3.956329  0
C  C42  1  0.16186792  0.59175098  0.38949212  1  0  -0.154488  0  3.67748  0  0  -0.135087  0  3.927208  0  0  -0.143159  0  3.950178  0  0  -0.012886  -0.130071  0  3.912013  0
C  C43  1  0.83813681  0.40824908  0.61050648  1  0  -0.154548  0  3.677583  0  0  -0.135131  0  3.927267  0  0  -0.143203  0  3.950238  0  0  -0.012938  -0.130112  0  3.912067  0
C  C44  1  0.29406850  0.62966482  0.43122109  1  0  -0.055533  0  3.750705  0  0  -0.082654  0  4.001675  0  0  -0.080875  0  4.020667  0  0  -0.079109  -0.083681  0  3.989119  0
C  C45  1  0.70593240  0.37034080  0.56877923  1  0  -0.055602  0  3.750732  0  0  -0.082726  0  4.001679  0  0  -0.080945  0  4.020669  0  0  -0.079107  -0.083752  0  3.989124  0
C  C46  1  0.27908328  0.59445126  0.53321321  1  0  -0.060505  0  3.760063  0  0  -0.074221  0  4.020529  0  0  -0.077409  0  4.041271  0  0  -0.087712  -0.072058  0  4.006896  0
C  C47  1  0.72091260  0.40555100  0.46678750  1  0  -0.060365  0  3.759984  0  0  -0.074051  0  4.020389  0  0  -0.077239  0  4.041132  0  0  -0.087646  -0.07189  0  4.006762  0
C  C48  1  0.13348099  0.52156607  0.59232428  1  0  -0.090286  0  3.695973  0  0  -0.115777  0  3.94928  0  0  -0.115577  0  3.965854  0  0  -0.081303  -0.115866  0  3.938343  0
C  C49  1  0.86651631  0.47843618  0.40767696  1  0  -0.090386  0  3.695914  0  0  -0.11588  0  3.949238  0  0  -0.115682  0  3.965811  0  0  -0.081351  -0.115971  0  3.938308  0
C  C50  1  0.00622921  0.51813970  0.44780635  1  0  0.053491  0  3.742226  0  0  0.062303  0  3.973279  0  0  0.062303  0  3.998796  0  0  0.000672  0.062334  0  3.955877  0
C  C51  1  0.99377433  0.48185924  0.55219186  1  0  0.053565  0  3.742235  0  0  0.062411  0  3.97324  0  0  0.062406  0  3.998763  0  0  0.000705  0.062442  0  3.955835  0
S  S52  1  0.71245278  0.15341236  0.27062438  1  0  1.341953  0  5.598768  0  0  1.24366  0  6.119748  0  0  1.291822  0  6.095982  0  0  0.543013  1.210427  0  6.134979  0
S  S53  1  0.28754633  0.84658768  0.72937557  1  0  1.34197  0  5.598736  0  0  1.243672  0  6.119717  0  0  1.29183  0  6.095954  0  0  0.543026  1.210438  0  6.134945  0
S  S54  1  0.19016449  0.64658402  0.25975167  1  0  1.307642  0  5.604205  0  0  1.214131  0  6.122102  0  0  1.260874  0  6.10026  0  0  0.525658  1.181946  0  6.13598  0
S  S55  1  0.80984207  0.35341381  0.74024705  1  0  1.307589  0  5.60424  0  0  1.214083  0  6.122137  0  0  1.26083  0  6.100287  0  0  0.525634  1.181898  0  6.136008  0
O  O56  1  0.58072066  0.09863754  0.22656714  1  0  -0.747553  0  2.030579  0  0  -0.697747  0  2.287787  0  0  -0.719679  0  2.271653  0  0  -0.393474  -0.681893  0  2.298804  0
O  O57  1  0.41927825  0.90136361  0.77343337  1  0  -0.747567  0  2.030536  0  0  -0.697786  0  2.287748  0  0  -0.719716  0  2.271617  0  0  -0.393504  -0.681929  0  2.298765  0
O  O58  1  0.91310942  0.11485991  0.22432896  1  0  -0.746687  0  2.080641  0  0  -0.698171  0  2.348164  0  0  -0.719459  0  2.331376  0  0  -0.389528  -0.682855  0  2.359643  0
O  O59  1  0.08689110  0.88514013  0.77567083  1  0  -0.746685  0  2.080649  0  0  -0.698162  0  2.348179  0  0  -0.719449  0  2.331394  0  0  -0.389525  -0.682847  0  2.359655  0
O  O60  1  0.66191431  0.31333495  0.27146649  1  0  -0.640726  0  1.911293  0  0  -0.582197  0  2.138762  0  0  -0.603092  0  2.12454  0  0  -0.309932  -0.567509  0  2.148291  0
O  O61  1  0.33808502  0.68666397  0.72853430  1  0  -0.640731  0  1.911294  0  0  -0.582185  0  2.138732  0  0  -0.603074  0  2.124511  0  0  -0.309913  -0.567496  0  2.148259  0
O  O62  1  0.19408072  0.50982954  0.22191674  1  0  -0.746522  0  1.976958  0  0  -0.700576  0  2.238906  0  0  -0.722027  0  2.222481  0  0  -0.385131  -0.684821  0  2.250034  0
O  O63  1  0.80592303  0.49016827  0.77808300  1  0  -0.74649  0  1.976937  0  0  -0.700553  0  2.238878  0  0  -0.722003  0  2.222449  0  0  -0.385129  -0.684803  0  2.250022  0
O  O64  1  0.37156744  0.70751026  0.22539415  1  0  -0.661115  0  1.930761  0  0  -0.60497  0  2.159902  0  0  -0.624267  0  2.143665  0  0  -0.318449  -0.591474  0  2.171109  0
O  O65  1  0.62843552  0.29248419  0.77460827  1  0  -0.661104  0  1.930687  0  0  -0.60499  0  2.159817  0  0  -0.624289  0  2.143579  0  0  -0.318431  -0.591493  0  2.171023  0
O  O66  1  0.02515584  0.75860786  0.23935041  1  0  -0.664832  0  1.920844  0  0  -0.61183  0  2.156153  0  0  -0.632759  0  2.142423  0  0  -0.325956  -0.597108  0  2.165426  0
O  O67  1  0.97485269  0.24139450  0.76064255  1  0  -0.664806  0  1.920897  0  0  -0.611809  0  2.156228  0  0  -0.63274  0  2.142496  0  0  -0.32596  -0.597087  0  2.165501  0
O  O68  1  0.54471334  0.40110851  0.07855390  1  0  -1.213582  0  1.854107  0  0  -1.173371  0  2.083152  0  0  -1.20166  0  2.056181  0  0  -0.795676  -1.151315  0  2.102387  0
O  O69  1  0.45528536  0.59889375  0.92144648  1  0  -1.213576  0  1.854117  0  0  -1.173368  0  2.083156  0  0  -1.201653  0  2.056188  0  0  -0.795667  -1.151308  0  2.102391  0
O  O70  1  0.93658262  0.40518064  0.08014901  1  0  -1.201  0  1.82377  0  0  -1.159915  0  2.046738  0  0  -1.187796  0  2.019528  0  0  -0.778024  -1.138496  0  2.066365  0
O  O71  1  0.06341931  0.59481940  0.91985131  1  0  -1.200951  0  1.823836  0  0  -1.159873  0  2.046785  0  0  -1.187754  0  2.019578  0  0  -0.778045  -1.138455  0  2.066411  0
O  O72  1  0.83701323  0.25592005  0.96066297  1  0  -1.230414  0  1.875973  0  0  -1.189078  0  2.108382  0  0  -1.217517  0  2.079982  0  0  -0.795987  -1.167481  0  2.128566  0
O  O73  1  0.16298369  0.74407663  0.03933773  1  0  -1.230435  0  1.876005  0  0  -1.189082  0  2.108423  0  0  -1.217523  0  2.080029  0  0  -0.795961  -1.167477  0  2.128587  0
O  O74  1  0.15674164  0.02587728  0.92010097  1  0  -1.221991  0  1.802781  0  0  -1.179176  0  2.017901  0  0  -1.20724  0  1.990709  0  0  -0.77101  -1.158034  0  2.037525  0
O  O75  1  0.84325908  0.97412163  0.07990036  1  0  -1.221972  0  1.802838  0  0  -1.179111  0  2.017889  0  0  -1.20718  0  1.990691  0  0  -0.770967  -1.157973  0  2.037512  0
O  O76  1  0.35132190  0.96656176  0.07913444  1  0  -1.215862  0  1.786602  0  0  -1.171294  0  2.007995  0  0  -1.19965  0  1.97962  0  0  -0.792466  -1.150295  0  2.028826  0
O  O77  1  0.64867701  0.03343938  0.92086677  1  0  -1.215878  0  1.786592  0  0  -1.171301  0  2.007978  0  0  -1.199655  0  1.979603  0  0  -0.792471  -1.1503  0  2.028809  0
O  O78  1  0.25278362  0.23323275  0.14331802  1  0  -1.198064  0  1.884429  0  0  -1.156345  0  2.098663  0  0  -1.184099  0  2.073952  0  0  -0.80792  -1.135497  0  2.116433  0
O  O79  1  0.74721508  0.76676952  0.85668165  1  0  -1.198036  0  1.884413  0  0  -1.156343  0  2.098638  0  0  -1.18409  0  2.073931  0  0  -0.807934  -1.135491  0  2.116415  0
O  O80  1  0.32382267  0.28269639  0.96392229  1  0  -1.182914  0  1.742457  0  0  -1.140772  0  1.960805  0  0  -1.169131  0  1.933597  0  0  -0.760013  -1.119111  0  1.980606  0
O  O81  1  0.67617504  0.71730365  0.03607783  1  0  -1.182866  0  1.742432  0  0  -1.140757  0  1.960761  0  0  -1.16911  0  1.933558  0  0  -0.760036  -1.119092  0  1.98057  0
