# generated using pymatgen
data_ZnH14C14(NO2)2
_symmetry_space_group_name_H-M   'P 1'
_cell_length_a   7.94208355
_cell_length_b   9.01564250
_cell_length_c   10.55654309
_cell_angle_alpha   108.89739712
_cell_angle_beta   99.74554022
_cell_angle_gamma   100.44033074
_symmetry_Int_Tables_number   1
_chemical_formula_structural   ZnH14C14(NO2)2
_chemical_formula_sum   'Zn2 H28 C28 N4 O8'
_cell_volume   681.86298083
_cell_formula_units_Z   2
loop_
 _symmetry_equiv_pos_site_id
 _symmetry_equiv_pos_as_xyz
  1  'x, y, z'
loop_
 _atom_site_type_symbol
 _atom_site_label
 _atom_site_symmetry_multiplicity
 _atom_site_fract_x
 _atom_site_fract_y
 _atom_site_fract_z
 _atom_site_occupancy
 _atom_site_hle17_bader_spin_density
 _atom_site_hle17_ddec_charge
 _atom_site_hle17_ddec_spin_density
 _atom_site_hle17_ddec_sum_bond_order
 _atom_site_hle17_magmom
 _atom_site_hse06_10hf_bader_spin_density
 _atom_site_hse06_10hf_ddec_charge
 _atom_site_hse06_10hf_ddec_spin_density
 _atom_site_hse06_10hf_ddec_sum_bond_order
 _atom_site_hse06_10hf_magmom
 _atom_site_hse06_bader_spin_density
 _atom_site_hse06_ddec_charge
 _atom_site_hse06_ddec_spin_density
 _atom_site_hse06_ddec_sum_bond_order
 _atom_site_hse06_magmom
 _atom_site_pbe_bader_spin_density
 _atom_site_pbe_cm5_charge
 _atom_site_pbe_ddec_charge
 _atom_site_pbe_ddec_spin_density
 _atom_site_pbe_ddec_sum_bond_order
 _atom_site_pbe_magmom
Zn  Zn0  1  0.83851064  0.01723113  0.34741070  1  0  1.01755  0  1.834009  0  0  0.82731  0  2.295549  0  0  0.879537  0  2.238707  0  0  0.671565  0.791547  0  2.333986  0
Zn  Zn1  1  0.16148970  0.98276447  0.65258865  1  0  1.017453  0  1.834169  0  0  0.827262  0  2.295713  0  0  0.87949  0  2.238866  0  0  0.671555  0.791497  0  2.334153  0
H  H2  1  0.35538409  0.14550372  0.12139552  1  0  0.129876  0  0.950516  0  0  0.148763  0  1.010137  0  0  0.150886  0  1.010144  0  0  0.091197  0.147022  0  1.010424  0
H  H3  1  0.64460612  0.85449672  0.87861621  1  0  0.129895  0  0.950495  0  0  0.148775  0  1.010109  0  0  0.150898  0  1.010116  0  0  0.091213  0.147034  0  1.010395  0
H  H4  1  0.51783188  0.16935833  0.02618678  1  0  0.13765  0  0.947612  0  0  0.156978  0  1.007512  0  0  0.159483  0  1.006959  0  0  0.096322  0.154856  0  1.008673  0
H  H5  1  0.48214565  0.83064236  0.97381675  1  0  0.137556  0  0.94765  0  0  0.156909  0  1.007539  0  0  0.159411  0  1.006988  0  0  0.096271  0.154786  0  1.008698  0
H  H6  1  0.53164063  0.32576557  0.18399339  1  0  0.122238  0  0.943981  0  0  0.142864  0  1.003496  0  0  0.145038  0  1.003054  0  0  0.091257  0.141175  0  1.004176  0
H  H7  1  0.46834888  0.67423245  0.81601755  1  0  0.122249  0  0.944057  0  0  0.14286  0  1.003586  0  0  0.145035  0  1.003144  0  0  0.091269  0.141171  0  1.004265  0
H  H8  1  0.67725575  0.64176659  0.62082325  1  0  0.126163  0  0.962081  0  0  0.143837  0  1.024105  0  0  0.145782  0  1.024439  0  0  0.090582  0.142592  0  1.023503  0
H  H9  1  0.32274805  0.35822775  0.37917618  1  0  0.126174  0  0.962059  0  0  0.143842  0  1.0241  0  0  0.145788  0  1.024434  0  0  0.090599  0.142593  0  1.023505  0
H  H10  1  0.58613307  0.57436234  0.43779267  1  0  0.129266  0  0.949862  0  0  0.150507  0  1.006973  0  0  0.152674  0  1.00644  0  0  0.094741  0.148766  0  1.007745  0
H  H11  1  0.41387632  0.42563801  0.56220824  1  0  0.129227  0  0.949862  0  0  0.150487  0  1.006954  0  0  0.152656  0  1.006421  0  0  0.094737  0.148747  0  1.007729  0
H  H12  1  0.51186898  0.72498507  0.55303029  1  0  0.143812  0  0.945357  0  0  0.163142  0  1.003149  0  0  0.16512  0  1.003912  0  0  0.100415  0.161594  0  1.003014  0
H  H13  1  0.48814389  0.27501404  0.44696882  1  0  0.143789  0  0.945375  0  0  0.163116  0  1.003194  0  0  0.165094  0  1.003956  0  0  0.100416  0.161568  0  1.003058  0
H  H14  1  0.65812761  0.65815249  0.19211204  1  0  0.086006  0  0.954489  0  0  0.093765  0  1.019168  0  0  0.096783  0  1.01638  0  0  0.117098  0.091536  0  1.021433  0
H  H15  1  0.34187308  0.34184433  0.80788675  1  0  0.085991  0  0.954556  0  0  0.093743  0  1.019235  0  0  0.096765  0  1.016447  0  0  0.117082  0.091513  0  1.021503  0
H  H16  1  0.64709446  0.43353137  0.97706210  1  0  0.099551  0  0.974045  0  0  0.110486  0  1.035559  0  0  0.113118  0  1.03546  0  0  0.107124  0.108401  0  1.036251  0
H  H17  1  0.35290984  0.56646906  0.02293724  1  0  0.099623  0  0.973997  0  0  0.110582  0  1.035488  0  0  0.113214  0  1.035389  0  0  0.107159  0.108498  0  1.036181  0
H  H18  1  0.05219135  0.76675969  0.90311135  1  0  0.126876  0  0.975788  0  0  0.133856  0  1.037863  0  0  0.138268  0  1.035466  0  0  0.110152  0.130644  0  1.039727  0
H  H19  1  0.94780430  0.23325054  0.09689343  1  0  0.126847  0  0.975799  0  0  0.133851  0  1.037837  0  0  0.138268  0  1.035441  0  0  0.110138  0.130638  0  1.039706  0
H  H20  1  0.04590503  0.97320616  0.12381624  1  0  0.087615  0  0.943071  0  0  0.096196  0  1.006454  0  0  0.098888  0  1.004114  0  0  0.12025  0.094318  0  1.008132  0
H  H21  1  0.95409281  0.02680283  0.87618753  1  0  0.087639  0  0.943126  0  0  0.096228  0  1.006503  0  0  0.098916  0  1.004168  0  0  0.120286  0.094354  0  1.008179  0
H  H22  1  0.03846463  0.59553322  0.72288583  1  0  0.1248  0  0.98711  0  0  0.13046  0  1.052291  0  0  0.135139  0  1.049418  0  0  0.108173  0.12749  0  1.053699  0
H  H23  1  0.96153953  0.40446235  0.27711210  1  0  0.124779  0  0.987088  0  0  0.130427  0  1.052298  0  0  0.135109  0  1.049419  0  0  0.108165  0.127455  0  1.053708  0
H  H24  1  0.01748814  0.37266918  0.50561251  1  0  0.075559  0  0.959348  0  0  0.086858  0  1.020805  0  0  0.088365  0  1.020296  0  0  0.11745  0.085932  0  1.020896  0
H  H25  1  0.98252474  0.62732996  0.49438472  1  0  0.075504  0  0.959461  0  0  0.086818  0  1.020885  0  0  0.088322  0  1.020378  0  0  0.117444  0.085895  0  1.020974  0
H  H26  1  0.63808812  0.05636947  0.58382321  1  0  0.088672  0  0.945985  0  0  0.097792  0  1.008232  0  0  0.099958  0  1.006428  0  0  0.121307  0.096385  0  1.009214  0
H  H27  1  0.36191771  0.94362738  0.41616867  1  0  0.088693  0  0.945931  0  0  0.097811  0  1.008201  0  0  0.099979  0  1.006395  0  0  0.121319  0.096399  0  1.009185  0
H  H28  1  0.63910192  0.25730592  0.80027160  1  0  0.117594  0  0.965138  0  0  0.12545  0  1.029452  0  0  0.12949  0  1.026686  0  0  0.108951  0.122527  0  1.031771  0
H  H29  1  0.36089966  0.74269828  0.19972181  1  0  0.117533  0  0.965132  0  0  0.125401  0  1.029442  0  0  0.129442  0  1.026676  0  0  0.108957  0.122479  0  1.03176  0
C  C30  1  0.49540226  0.19360372  0.13010293  1  0  -0.448774  0  3.670961  0  0  -0.523025  0  3.90201  0  0  -0.530559  0  3.905951  0  0  -0.251136  -0.517694  0  3.899811  0
C  C31  1  0.50458693  0.80639317  0.86990102  1  0  -0.448678  0  3.671006  0  0  -0.522935  0  3.902015  0  0  -0.530468  0  3.905959  0  0  -0.251101  -0.517611  0  3.899832  0
C  C32  1  0.61131924  0.11881578  0.20708118  1  0  0.716226  0  3.884139  0  0  0.680374  0  4.17322  0  0  0.712961  0  4.167928  0  0  0.189862  0.658458  0  4.175972  0
C  C33  1  0.38867137  0.88118597  0.79292339  1  0  0.716193  0  3.884311  0  0  0.68039  0  4.17333  0  0  0.712974  0  4.168041  0  0  0.189887  0.658474  0  4.176083  0
C  C34  1  0.62799841  0.67860518  0.53550837  1  0  -0.460504  0  3.667317  0  0  -0.535883  0  3.900727  0  0  -0.543325  0  3.903621  0  0  -0.253061  -0.530796  0  3.898895  0
C  C35  1  0.37201118  0.32139149  0.46449342  1  0  -0.460425  0  3.667369  0  0  -0.535799  0  3.900755  0  0  -0.543238  0  3.903649  0  0  -0.253065  -0.530715  0  3.898923  0
C  C36  1  0.76621928  0.81044511  0.52539181  1  0  0.754964  0  3.852177  0  0  0.708318  0  4.15262  0  0  0.74357  0  4.142616  0  0  0.213056  0.684532  0  4.15861  0
C  C37  1  0.23378684  0.18955283  0.47460989  1  0  0.75484  0  3.852128  0  0  0.708183  0  4.152586  0  0  0.743433  0  4.142584  0  0  0.213005  0.684401  0  4.158575  0
C  C38  1  0.74120829  0.67578778  0.12324850  1  0  0.122974  0  3.714907  0  0  0.091906  0  3.967664  0  0  0.098431  0  3.986256  0  0  0.04484  0.087433  0  3.955326  0
C  C39  1  0.25879637  0.32421389  0.87674933  1  0  0.122968  0  3.715032  0  0  0.091922  0  3.967783  0  0  0.098446  0  3.986376  0  0  0.044863  0.08745  0  3.955446  0
C  C40  1  0.73669343  0.55136573  0.00257851  1  0  -0.164089  0  3.715785  0  0  -0.182142  0  3.963656  0  0  -0.190215  0  3.986255  0  0  -0.082858  -0.17677  0  3.948557  0
C  C41  1  0.26331288  0.44863715  0.99741799  1  0  -0.164208  0  3.715716  0  0  -0.182307  0  3.963595  0  0  -0.19038  0  3.98619  0  0  -0.082892  -0.176938  0  3.948499  0
C  C42  1  0.84631943  0.57884059  0.91681493  1  0  0.093929  0  3.750025  0  0  0.105602  0  3.97964  0  0  0.109438  0  4.001882  0  0  0.012992  0.103194  0  3.96399  0
C  C43  1  0.15368201  0.42115873  0.08317803  1  0  0.094024  0  3.749979  0  0  0.105707  0  3.979508  0  0  0.109546  0  4.00175  0  0  0.012986  0.103299  0  3.963859  0
C  C44  1  0.96062901  0.73451762  0.96195029  1  0  -0.160632  0  3.663655  0  0  -0.177885  0  3.910543  0  0  -0.185758  0  3.93053  0  0  -0.079469  -0.17213  0  3.896467  0
C  C45  1  0.03936926  0.26548406  0.03805240  1  0  -0.160634  0  3.66362  0  0  -0.177898  0  3.91047  0  0  -0.185777  0  3.930459  0  0  -0.079451  -0.172145  0  3.896399  0
C  C46  1  0.95774408  0.85201119  0.08496892  1  0  0.138417  0  3.685753  0  0  0.106624  0  3.938176  0  0  0.113675  0  3.956287  0  0  0.053795  0.10185  0  3.925506  0
C  C47  1  0.04226148  0.14798920  0.91503246  1  0  0.138389  0  3.685773  0  0  0.106588  0  3.938222  0  0  0.11364  0  3.956334  0  0  0.053777  0.101815  0  3.92555  0
C  C48  1  0.84038249  0.44971519  0.78539406  1  0  0.088036  0  3.746748  0  0  0.099652  0  3.977103  0  0  0.10318  0  3.999367  0  0  0.012298  0.097349  0  3.961594  0
C  C49  1  0.15960380  0.55028917  0.21460122  1  0  0.087866  0  3.74684  0  0  0.099588  0  3.977032  0  0  0.10311  0  3.999303  0  0  0.012306  0.097284  0  3.961521  0
C  C50  1  0.94701694  0.47813885  0.69768775  1  0  -0.164133  0  3.684748  0  0  -0.180546  0  3.931968  0  0  -0.18838  0  3.952325  0  0  -0.083528  -0.175137  0  3.917352  0
C  C51  1  0.05297993  0.52185800  0.30231245  1  0  -0.164102  0  3.684848  0  0  -0.180559  0  3.932054  0  0  -0.188393  0  3.95241  0  0  -0.083517  -0.175148  0  3.917439  0
C  C52  1  0.93681952  0.35360114  0.57544306  1  0  0.127009  0  3.715965  0  0  0.097054  0  3.964545  0  0  0.103185  0  3.984607  0  0  0.041894  0.093169  0  3.950792  0
C  C53  1  0.06318012  0.64639204  0.42455456  1  0  0.127221  0  3.716183  0  0  0.097277  0  3.964776  0  0  0.10341  0  3.98484  0  0  0.041968  0.093391  0  3.951022  0
C  C54  1  0.72618335  0.17659323  0.61754523  1  0  0.151902  0  3.676885  0  0  0.118902  0  3.932196  0  0  0.126421  0  3.949319  0  0  0.053805  0.113919  0  3.919915  0
C  C55  1  0.27381149  0.82340979  0.38245078  1  0  0.151829  0  3.676783  0  0  0.118821  0  3.932129  0  0  0.126337  0  3.949253  0  0  0.053753  0.113844  0  3.919846  0
C  C56  1  0.72764948  0.29401001  0.74168935  1  0  -0.144448  0  3.665968  0  0  -0.164696  0  3.91636  0  0  -0.171422  0  3.935784  0  0  -0.077019  -0.15997  0  3.903009  0
C  C57  1  0.27234793  0.70599302  0.25830415  1  0  -0.144294  0  3.665792  0  0  -0.164587  0  3.916168  0  0  -0.17131  0  3.935595  0  0  -0.07702  -0.15986  0  3.902813  0
N  N58  1  0.84880575  0.82500977  0.16429843  1  0  -0.304913  0  3.249572  0  0  -0.227444  0  3.513365  0  0  -0.245517  0  3.530399  0  0  -0.315283  -0.214756  0  3.501496  0
N  N59  1  0.15119975  0.17499916  0.83570347  1  0  -0.304887  0  3.24969  0  0  -0.227454  0  3.513529  0  0  -0.245524  0  3.530561  0  0  -0.315321  -0.214761  0  3.501643  0
N  N60  1  0.82978289  0.20411316  0.53511372  1  0  -0.326715  0  3.278037  0  0  -0.248791  0  3.544071  0  0  -0.267402  0  3.560777  0  0  -0.315141  -0.235733  0  3.531945  0
N  N61  1  0.17021972  0.79587267  0.46488314  1  0  -0.326811  0  3.278206  0  0  -0.248902  0  3.544236  0  0  -0.267513  0  3.560945  0  0  -0.3152  -0.235843  0  3.532107  0
O  O62  1  0.77961295  0.17129168  0.23133071  1  0  -0.667418  0  1.975661  0  0  -0.60046  0  2.21514  0  0  -0.629081  0  2.205347  0  0  -0.33534  -0.580956  0  2.221448  0
O  O63  1  0.22037846  0.82870401  0.76866940  1  0  -0.667395  0  1.975706  0  0  -0.60047  0  2.215169  0  0  -0.629085  0  2.205369  0  0  -0.335387  -0.580966  0  2.221481  0
O  O64  1  0.54328183  0.00782018  0.24609610  1  0  -0.650453  0  1.904922  0  0  -0.594627  0  2.136786  0  0  -0.620779  0  2.128223  0  0  -0.330838  -0.576354  0  2.14241  0
O  O65  1  0.45670311  0.99218404  0.75391128  1  0  -0.650464  0  1.905122  0  0  -0.59468  0  2.137001  0  0  -0.620832  0  2.128443  0  0  -0.330855  -0.576387  0  2.142591  0
O  O66  1  0.73847434  0.83612832  0.41288072  1  0  -0.660337  0  2.091524  0  0  -0.592758  0  2.370107  0  0  -0.621246  0  2.355992  0  0  -0.322653  -0.574163  0  2.379601  0
O  O67  1  0.26153187  0.16386111  0.58711763  1  0  -0.660189  0  2.091369  0  0  -0.592638  0  2.37  0  0  -0.621142  0  2.355924  0  0  -0.322627  -0.574047  0  2.379488  0
O  O68  1  0.89707797  0.88586568  0.62871245  1  0  -0.654206  0  2.074376  0  0  -0.588393  0  2.350109  0  0  -0.615655  0  2.334941  0  0  -0.322763  -0.570207  0  2.359344  0
O  O69  1  0.10292995  0.11413838  0.37128648  1  0  -0.654258  0  2.074331  0  0  -0.588407  0  2.350027  0  0  -0.615671  0  2.33487  0  0  -0.322757  -0.570186  0  2.359177  0
