# generated using pymatgen
data_H24Rh2C35(NO7)2
_symmetry_space_group_name_H-M   'P 1'
_cell_length_a   9.51512429
_cell_length_b   10.30029287
_cell_length_c   11.05406127
_cell_angle_alpha   70.21184721
_cell_angle_beta   66.20444178
_cell_angle_gamma   63.13344467
_symmetry_Int_Tables_number   1
_chemical_formula_structural   H24Rh2C35(NO7)2
_chemical_formula_sum   'H24 Rh2 C35 N2 O14'
_cell_volume   867.95079343
_cell_formula_units_Z   1
loop_
 _symmetry_equiv_pos_site_id
 _symmetry_equiv_pos_as_xyz
  1  'x, y, z'
loop_
 _atom_site_type_symbol
 _atom_site_label
 _atom_site_symmetry_multiplicity
 _atom_site_fract_x
 _atom_site_fract_y
 _atom_site_fract_z
 _atom_site_occupancy
 _atom_site_pbe_bader_spin_density
 _atom_site_pbe_cm5_charge
 _atom_site_pbe_ddec_charge
 _atom_site_pbe_ddec_spin_density
 _atom_site_pbe_ddec_sum_bond_order
 _atom_site_pbe_magmom
H  H0  1  0.00080508  0.09707166  0.37249858  1  0  0.10456  0.107479  0  1.013749  0
H  H1  1  0.99918898  0.90293112  0.62750082  1  0  0.104582  0.107494  0  1.013687  0
H  H2  1  0.16759714  0.84786467  0.30496312  1  0  0.10108  0.108742  0  1.013924  0
H  H3  1  0.83239876  0.15213921  0.69503800  1  0  0.10111  0.108759  0  1.013871  0
H  H4  1  0.02919958  0.71388470  0.27302619  1  0  0.09642  0.093904  0  1.038163  0
H  H5  1  0.97079723  0.28611697  0.72697621  1  0  0.096399  0.09386  0  1.038204  0
H  H6  1  0.72378327  0.81711164  0.32039886  1  0  0.102238  0.112038  0  1.019254  0
H  H7  1  0.27621398  0.18288891  0.67959921  1  0  0.102243  0.11205  0  1.019242  0
H  H8  1  0.55891742  0.06372347  0.39070129  1  0  0.102277  0.101191  0  1.031734  0
H  H9  1  0.44107824  0.93627819  0.60929699  1  0  0.102254  0.101178  0  1.031846  0
H  H10  1  0.74960935  0.78287696  0.09557873  1  0  0.100881  0.101776  0  1.027421  0
H  H11  1  0.25038606  0.21712249  0.90442215  1  0  0.100877  0.101783  0  1.027394  0
H  H12  1  0.78755308  0.91023450  0.85573107  1  0  0.098924  0.095525  0  1.036134  0
H  H13  1  0.21244623  0.08976385  0.14426970  1  0  0.09893  0.095548  0  1.036067  0
H  H14  1  0.61666781  0.91742116  0.73009986  1  0  0.101008  0.098224  0  0.995659  0
H  H15  1  0.38333150  0.08257719  0.26990001  1  0  0.101011  0.098248  0  0.995659  0
H  H16  1  0.40888600  0.79636497  0.84519255  1  0  0.095589  0.093365  0  1.029185  0
H  H17  1  0.59111515  0.20363449  0.15480633  1  0  0.095605  0.093391  0  1.029144  0
H  H18  1  0.37062588  0.67039917  0.08658705  1  0  0.101719  0.107884  0  1.022906  0
H  H19  1  0.62937342  0.32959917  0.91341011  1  0  0.101704  0.107837  0  1.023033  0
H  H20  1  0.26283593  0.37708368  0.34578861  1  0  0.124206  0.105991  0  0.992511  0
H  H21  1  0.73717761  0.62291357  0.65421027  1  0  0.124182  0.105935  0  0.992456  0
H  H22  1  0.99402289  0.39443867  0.33645294  1  0  0.125448  0.110549  0  0.991239  0
H  H23  1  0.00599133  0.60555414  0.66355163  1  0  0.125428  0.110531  0  0.991281  0
Rh  Rh24  1  0.37537932  0.49219110  0.50325621  1  0  0.65039  0.540914  0  3.789179  0
Rh  Rh25  1  0.62462828  0.50780946  0.49674279  1  0  0.650349  0.540868  0  3.789202  0
C  C26  1  0.67240545  0.24316530  0.42245359  1  0  0.211926  0.532635  0  4.130658  0
C  C27  1  0.32759595  0.75683637  0.57754721  1  0  0.211934  0.532621  0  4.130558  0
C  C28  1  0.77087599  0.09547133  0.38322627  1  0  -0.024291  -0.04353  0  3.995855  0
C  C29  1  0.22911621  0.90453034  0.61677231  1  0  -0.02431  -0.043506  0  3.995812  0
C  C30  1  0.94243776  0.03484780  0.35972286  1  0  -0.084748  -0.092887  0  3.97012  0
C  C31  1  0.05756249  0.96515387  0.64027653  1  0  -0.084785  -0.09294  0  3.970312  0
C  C32  1  0.03464314  0.89730379  0.32119357  1  0  -0.097763  -0.094485  0  3.997613  0
C  C33  1  0.96535252  0.10269788  0.67880652  1  0  -0.097783  -0.094522  0  3.997538  0
C  C34  1  0.95629054  0.82055145  0.30471940  1  0  -0.090725  -0.080202  0  4.003154  0
C  C35  1  0.04370810  0.17945133  0.69528021  1  0  -0.090695  -0.080097  0  4.003263  0
C  C36  1  0.78497476  0.87927415  0.32979412  1  0  -0.09655  -0.095616  0  3.998222  0
C  C37  1  0.21502134  0.12072641  0.67020707  1  0  -0.09661  -0.095724  0  3.998385  0
C  C38  1  0.69254383  0.01620345  0.36946922  1  0  -0.089697  -0.105261  0  3.986063  0
C  C39  1  0.30745572  0.98379711  0.63052987  1  0  -0.089599  -0.105151  0  3.985956  0
C  C40  1  0.53678328  0.64160145  0.24844638  1  0  0.210977  0.528341  0  4.138125  0
C  C41  1  0.46321857  0.35839911  0.75155372  1  0  0.210906  0.528186  0  4.138365  0
C  C42  1  0.55758904  0.71953677  0.10546042  1  0  -0.027017  -0.051968  0  4.011689  0
C  C43  1  0.44240477  0.28046378  0.89453795  1  0  -0.027028  -0.051916  0  4.011668  0
C  C44  1  0.67542024  0.78681351  0.03993165  1  0  -0.087032  -0.100681  0  3.982839  0
C  C45  1  0.32457907  0.21318483  0.96006912  1  0  -0.087035  -0.100728  0  3.98309  0
C  C46  1  0.69596843  0.85808328  0.90556321  1  0  -0.093351  -0.081744  0  4.003058  0
C  C47  1  0.30402973  0.14191506  0.09443525  1  0  -0.093353  -0.081725  0  4.002984  0
C  C48  1  0.59994575  0.86178078  0.83553708  1  0  -0.085626  -0.068062  0  3.983216  0
C  C49  1  0.40005585  0.13821756  0.16446109  1  0  -0.08566  -0.068169  0  3.983328  0
C  C50  1  0.48279720  0.79435474  0.90027553  1  0  -0.096238  -0.089575  0  4.015225  0
C  C51  1  0.51719982  0.20564360  0.09972424  1  0  -0.096215  -0.089543  0  4.015337  0
C  C52  1  0.46074340  0.72407223  0.03501291  1  0  -0.087153  -0.097658  0  3.965496  0
C  C53  1  0.53926005  0.27592722  0.96498607  1  0  -0.087136  -0.097613  0  3.965464  0
C  C54  1  0.14489543  0.43175790  0.41489877  1  0  0.05001  0.031669  0  3.92476  0
C  C55  1  0.85512063  0.56823602  0.58510300  1  0  0.050037  0.031741  0  3.924577  0
C  C56  1  0.99724490  0.44190113  0.40927010  1  0  0.050472  0.030707  0  3.917303  0
C  C57  1  0.00276496  0.55809389  0.59073348  1  0  0.050445  0.030698  0  3.917605  0
C  C58  1  0.13174116  0.57609114  0.99300770  1  0  0.363596  0.713555  0  4.135889  0
C  C59  1  0.86825428  0.42391385  0.00698599  1  0  0.363742  0.713795  0  4.135724  0
C  C60  1  0.99999727  0.00000679  0.00000048  1  0  0.370927  0.71458  0  4.132018  0
N  N61  1  0.14851758  0.48970184  0.50566376  1  0  -0.325895  -0.144186  0  3.576165  0
N  N62  1  0.85148999  0.51029318  0.49433881  1  0  -0.326048  -0.144333  0  3.575903  0
O  O63  1  0.75074553  0.30851176  0.43599197  1  0  -0.293239  -0.441678  0  2.473601  0
O  O64  1  0.24925239  0.69148436  0.56400909  1  0  -0.293267  -0.441707  0  2.473389  0
O  O65  1  0.51630498  0.29420475  0.43997088  1  0  -0.300211  -0.448352  0  2.437126  0
O  O66  1  0.48369182  0.70579692  0.56002700  1  0  -0.300194  -0.448338  0  2.437311  0
O  O67  1  0.64447601  0.62020429  0.30193698  1  0  -0.295239  -0.443722  0  2.453809  0
O  O68  1  0.35552170  0.37979515  0.69806310  1  0  -0.295184  -0.443637  0  2.453723  0
O  O69  1  0.41211129  0.60091542  0.30754091  1  0  -0.298211  -0.441063  0  2.447419  0
O  O70  1  0.58788507  0.39908735  0.69245949  1  0  -0.298211  -0.441019  0  2.447641  0
O  O71  1  0.09754353  0.60200018  0.89420896  1  0  -0.168806  -0.341552  0  2.220787  0
O  O72  1  0.90245902  0.39800149  0.10578964  1  0  -0.168848  -0.341655  0  2.220419  0
O  O73  1  0.16584623  0.55093050  0.09178902  1  0  -0.168753  -0.356021  0  2.237867  0
O  O74  1  0.83415308  0.44906784  0.90821356  1  0  -0.168847  -0.356157  0  2.238156  0
O  O75  1  0.02061678  0.88856413  0.97658665  1  0  -0.166477  -0.353399  0  2.252891  0
O  O76  1  0.97938027  0.11143976  0.02341497  1  0  -0.166558  -0.353472  0  2.253079  0
