# generated using pymatgen
data_CuH3C3S3BrN3
_symmetry_space_group_name_H-M   'P 1'
_cell_length_a   11.77491049
_cell_length_b   11.77494238
_cell_length_c   11.77493829
_cell_angle_alpha   89.99995513
_cell_angle_beta   90.00001757
_cell_angle_gamma   90.00003026
_symmetry_Int_Tables_number   1
_chemical_formula_structural   CuH3C3S3BrN3
_chemical_formula_sum   'Cu8 H24 C24 S24 Br8 N24'
_cell_volume   1632.58215319
_cell_formula_units_Z   8
loop_
 _symmetry_equiv_pos_site_id
 _symmetry_equiv_pos_as_xyz
  1  'x, y, z'
loop_
 _atom_site_type_symbol
 _atom_site_label
 _atom_site_symmetry_multiplicity
 _atom_site_fract_x
 _atom_site_fract_y
 _atom_site_fract_z
 _atom_site_occupancy
 _atom_site_hle17_bader_spin_density
 _atom_site_hle17_ddec_charge
 _atom_site_hle17_ddec_spin_density
 _atom_site_hle17_ddec_sum_bond_order
 _atom_site_hle17_magmom
 _atom_site_hse06_10hf_bader_spin_density
 _atom_site_hse06_10hf_ddec_charge
 _atom_site_hse06_10hf_ddec_spin_density
 _atom_site_hse06_10hf_ddec_sum_bond_order
 _atom_site_hse06_10hf_magmom
 _atom_site_hse06_bader_spin_density
 _atom_site_hse06_ddec_charge
 _atom_site_hse06_ddec_spin_density
 _atom_site_hse06_ddec_sum_bond_order
 _atom_site_hse06_magmom
 _atom_site_pbe_bader_spin_density
 _atom_site_pbe_cm5_charge
 _atom_site_pbe_ddec_charge
 _atom_site_pbe_ddec_spin_density
 _atom_site_pbe_ddec_sum_bond_order
 _atom_site_pbe_magmom
Cu  Cu0  1  0.88949913  0.61050158  0.38949833  1  0  0.279639  0  2.351957  0  0  0.224618  0  2.840926  0  0  0.218899  0  2.804112  0  0  0.318226  0.231341  0  2.863021  0
Cu  Cu1  1  0.38950053  0.88950061  0.61049888  1  0  0.279705  0  2.352054  0  0  0.224748  0  2.841027  0  0  0.219023  0  2.804201  0  0  0.318278  0.231491  0  2.86313  0
Cu  Cu2  1  0.61050254  0.38949811  0.88950014  1  0  0.279657  0  2.35195  0  0  0.224656  0  2.840923  0  0  0.218942  0  2.804103  0  0  0.31825  0.231392  0  2.863039  0
Cu  Cu3  1  0.11049770  0.11049819  0.11049737  1  0  0.279753  0  2.351885  0  0  0.224781  0  2.840865  0  0  0.219067  0  2.804033  0  0  0.318278  0.231526  0  2.862936  0
Cu  Cu4  1  0.11050040  0.38949809  0.61050073  1  0  0.279725  0  2.351993  0  0  0.224745  0  2.840956  0  0  0.218988  0  2.804109  0  0  0.318269  0.231493  0  2.863065  0
Cu  Cu5  1  0.61049815  0.11049821  0.38950188  1  0  0.279722  0  2.352002  0  0  0.224758  0  2.840973  0  0  0.219036  0  2.804161  0  0  0.318308  0.231489  0  2.863078  0
Cu  Cu6  1  0.38950038  0.61050156  0.11049976  1  0  0.279673  0  2.351978  0  0  0.224658  0  2.840957  0  0  0.218936  0  2.804147  0  0  0.318224  0.231373  0  2.863028  0
Cu  Cu7  1  0.88949843  0.88950063  0.88950084  1  0  0.279678  0  2.352038  0  0  0.224729  0  2.84101  0  0  0.219012  0  2.804194  0  0  0.31824  0.231463  0  2.863077  0
H  H8  1  0.16582662  0.83542641  0.58205795  1  0  0.302668  0  0.930105  0  0  0.277749  0  1.006973  0  0  0.28871  0  0.997345  0  0  0.277143  0.269999  0  1.013753  0
H  H9  1  0.58206235  0.16582909  0.83542606  1  0  0.302554  0  0.93011  0  0  0.27769  0  1.006891  0  0  0.288655  0  0.99726  0  0  0.277092  0.269942  0  1.013663  0
H  H10  1  0.83542394  0.58206245  0.16582582  1  0  0.302587  0  0.930093  0  0  0.277665  0  1.006969  0  0  0.288626  0  0.997344  0  0  0.277116  0.269917  0  1.013744  0
H  H11  1  0.33417160  0.16457411  0.08205902  1  0  0.302562  0  0.930176  0  0  0.277678  0  1.007033  0  0  0.288639  0  0.997404  0  0  0.277137  0.269928  0  1.013807  0
H  H12  1  0.83417387  0.33542486  0.91794111  1  0  0.302541  0  0.930306  0  0  0.277648  0  1.007169  0  0  0.288608  0  0.997544  0  0  0.277137  0.269903  0  1.01394  0
H  H13  1  0.66582611  0.66457397  0.41794174  1  0  0.302627  0  0.930147  0  0  0.277732  0  1.007007  0  0  0.288693  0  0.997381  0  0  0.277134  0.269985  0  1.013783  0
H  H14  1  0.08205679  0.33417569  0.16457229  1  0  0.30258  0  0.930237  0  0  0.277685  0  1.007082  0  0  0.288644  0  0.997453  0  0  0.27715  0.269939  0  1.013852  0
H  H15  1  0.91794186  0.83417489  0.33542408  1  0  0.302542  0  0.930416  0  0  0.277641  0  1.007257  0  0  0.288601  0  0.997629  0  0  0.277169  0.269899  0  1.014022  0
H  H16  1  0.41794061  0.66582646  0.66457823  1  0  0.302518  0  0.930225  0  0  0.277628  0  1.007086  0  0  0.288588  0  0.997458  0  0  0.277122  0.269881  0  1.013856  0
H  H17  1  0.16457287  0.08205891  0.33417075  1  0  0.302528  0  0.930222  0  0  0.277668  0  1.007054  0  0  0.288627  0  0.997427  0  0  0.277128  0.269919  0  1.013826  0
H  H18  1  0.33542543  0.91794141  0.83417307  1  0  0.302661  0  0.930057  0  0  0.277781  0  1.006916  0  0  0.288743  0  0.997286  0  0  0.277154  0.270028  0  1.013698  0
H  H19  1  0.66457342  0.41794421  0.66582848  1  0  0.302522  0  0.930259  0  0  0.277658  0  1.00709  0  0  0.288617  0  0.997464  0  0  0.277157  0.269915  0  1.013856  0
H  H20  1  0.83417290  0.16457241  0.41794281  1  0  0.302554  0  0.930212  0  0  0.277678  0  1.007071  0  0  0.288639  0  0.997442  0  0  0.277148  0.269933  0  1.013841  0
H  H21  1  0.41794397  0.83417313  0.16457640  1  0  0.302518  0  0.930346  0  0  0.277639  0  1.007169  0  0  0.288599  0  0.997542  0  0  0.277153  0.269896  0  1.013931  0
H  H22  1  0.16457389  0.41794401  0.83417154  1  0  0.302538  0  0.930196  0  0  0.277663  0  1.00704  0  0  0.288621  0  0.997415  0  0  0.277162  0.269917  0  1.013809  0
H  H23  1  0.66583132  0.83542641  0.91793919  1  0  0.302584  0  0.930052  0  0  0.27768  0  1.006897  0  0  0.288643  0  0.99727  0  0  0.277111  0.269928  0  1.013676  0
H  H24  1  0.16582735  0.66457481  0.08205794  1  0  0.302616  0  0.930125  0  0  0.277706  0  1.006951  0  0  0.288671  0  0.997322  0  0  0.277149  0.26996  0  1.013719  0
H  H25  1  0.33417427  0.33542401  0.58205902  1  0  0.302512  0  0.930314  0  0  0.277616  0  1.007166  0  0  0.288576  0  0.997538  0  0  0.277146  0.269873  0  1.013931  0
H  H26  1  0.91794104  0.66582993  0.83542422  1  0  0.302526  0  0.930194  0  0  0.277651  0  1.007062  0  0  0.288611  0  0.997437  0  0  0.277119  0.269905  0  1.013835  0
H  H27  1  0.08206107  0.16582732  0.66457583  1  0  0.30263  0  0.930041  0  0  0.277722  0  1.006904  0  0  0.288685  0  0.997274  0  0  0.277134  0.26997  0  1.013681  0
H  H28  1  0.58205807  0.33417406  0.33542592  1  0  0.302556  0  0.93031  0  0  0.277666  0  1.007141  0  0  0.288626  0  0.997515  0  0  0.277147  0.269923  0  1.013911  0
H  H29  1  0.83542410  0.91794076  0.66582576  1  0  0.302556  0  0.930245  0  0  0.277672  0  1.007097  0  0  0.288634  0  0.997469  0  0  0.277168  0.269927  0  1.013866  0
H  H30  1  0.66457410  0.08205911  0.16582939  1  0  0.302584  0  0.930151  0  0  0.277708  0  1.006996  0  0  0.28867  0  0.997368  0  0  0.277134  0.269961  0  1.013769  0
H  H31  1  0.33542696  0.58205886  0.33417397  1  0  0.302531  0  0.930227  0  0  0.277666  0  1.007014  0  0  0.288629  0  0.997383  0  0  0.277127  0.269921  0  1.013776  0
C  C32  1  0.03315213  0.82126754  0.46730829  1  0  0.451555  0  3.744191  0  0  0.404306  0  4.044172  0  0  0.433375  0  4.050312  0  0  0.234398  0.384991  0  4.039519  0
C  C33  1  0.46730560  0.03315495  0.82127825  1  0  0.451695  0  3.744231  0  0  0.404543  0  4.044198  0  0  0.433597  0  4.050359  0  0  0.234575  0.385236  0  4.039538  0
C  C34  1  0.82126412  0.46731374  0.03315001  1  0  0.4515  0  3.744209  0  0  0.404227  0  4.044263  0  0  0.433291  0  4.050405  0  0  0.2344  0.384911  0  4.03961  0
C  C35  1  0.46684281  0.17873438  0.96731463  1  0  0.451365  0  3.744114  0  0  0.404182  0  4.04412  0  0  0.433245  0  4.050261  0  0  0.23437  0.384866  0  4.039474  0
C  C36  1  0.96684651  0.32126466  0.03268554  1  0  0.451632  0  3.743713  0  0  0.40435  0  4.043841  0  0  0.433417  0  4.049979  0  0  0.234445  0.385034  0  4.039182  0
C  C37  1  0.53314996  0.67873107  0.53269390  1  0  0.451569  0  3.744178  0  0  0.404457  0  4.044063  0  0  0.433526  0  4.0502  0  0  0.234452  0.385137  0  4.039421  0
C  C38  1  0.96730941  0.46684748  0.17873211  1  0  0.451563  0  3.744319  0  0  0.404345  0  4.044253  0  0  0.433414  0  4.050393  0  0  0.234397  0.385027  0  4.039603  0
C  C39  1  0.03268845  0.96684623  0.32126161  1  0  0.451784  0  3.743398  0  0  0.404492  0  4.043549  0  0  0.433576  0  4.049665  0  0  0.234543  0.385162  0  4.038911  0
C  C40  1  0.53268710  0.53315662  0.67873719  1  0  0.451605  0  3.743618  0  0  0.404368  0  4.043738  0  0  0.433441  0  4.049868  0  0  0.23445  0.385049  0  4.039093  0
C  C41  1  0.17872950  0.96731330  0.46684031  1  0  0.451771  0  3.744192  0  0  0.40454  0  4.044235  0  0  0.433597  0  4.050391  0  0  0.234549  0.38522  0  4.039593  0
C  C42  1  0.32127394  0.03268861  0.96683992  1  0  0.451625  0  3.743682  0  0  0.404499  0  4.043664  0  0  0.433555  0  4.049827  0  0  0.234591  0.385187  0  4.038997  0
C  C43  1  0.67873319  0.53268623  0.53315683  1  0  0.451521  0  3.744276  0  0  0.404342  0  4.044317  0  0  0.433401  0  4.050467  0  0  0.234438  0.385025  0  4.039671  0
C  C44  1  0.96684315  0.17872873  0.53268992  1  0  0.451606  0  3.744395  0  0  0.40446  0  4.04433  0  0  0.43352  0  4.050472  0  0  0.234514  0.385142  0  4.03968  0
C  C45  1  0.53268968  0.96684557  0.17873695  1  0  0.451649  0  3.743535  0  0  0.404385  0  4.04365  0  0  0.433466  0  4.049767  0  0  0.234509  0.385058  0  4.039014  0
C  C46  1  0.17873456  0.53269102  0.96684225  1  0  0.451628  0  3.743867  0  0  0.404371  0  4.043893  0  0  0.433445  0  4.050031  0  0  0.234504  0.38505  0  4.039238  0
C  C47  1  0.53315587  0.82126954  0.03268868  1  0  0.451498  0  3.744141  0  0  0.404279  0  4.044131  0  0  0.433341  0  4.050278  0  0  0.234458  0.384963  0  4.039468  0
C  C48  1  0.03315472  0.67873331  0.96731012  1  0  0.451517  0  3.744147  0  0  0.404308  0  4.044143  0  0  0.433382  0  4.050279  0  0  0.234433  0.384992  0  4.039482  0
C  C49  1  0.46684362  0.32126521  0.46731280  1  0  0.451628  0  3.743668  0  0  0.404334  0  4.043761  0  0  0.433403  0  4.049896  0  0  0.234458  0.385022  0  4.039109  0
C  C50  1  0.03269181  0.53315644  0.82126779  1  0  0.451546  0  3.744  0  0  0.404351  0  4.044075  0  0  0.433416  0  4.050214  0  0  0.234477  0.385033  0  4.039428  0
C  C51  1  0.96730428  0.03315174  0.67872216  1  0  0.451665  0  3.743873  0  0  0.404479  0  4.04384  0  0  0.433536  0  4.049995  0  0  0.234571  0.38516  0  4.039184  0
C  C52  1  0.46731668  0.46684390  0.32126442  1  0  0.451409  0  3.744162  0  0  0.404177  0  4.044209  0  0  0.433236  0  4.050358  0  0  0.234354  0.384859  0  4.039555  0
C  C53  1  0.82126408  0.03268382  0.53316214  1  0  0.451666  0  3.743468  0  0  0.404462  0  4.04357  0  0  0.433532  0  4.0497  0  0  0.23453  0.385144  0  4.038925  0
C  C54  1  0.67873069  0.96731021  0.03315659  1  0  0.45167  0  3.744237  0  0  0.40445  0  4.044255  0  0  0.433519  0  4.05039  0  0  0.234521  0.385132  0  4.039598  0
C  C55  1  0.32127397  0.46730920  0.46684478  1  0  0.451565  0  3.744293  0  0  0.404458  0  4.044147  0  0  0.433512  0  4.050299  0  0  0.234549  0.385142  0  4.039497  0
S  S56  1  0.97508199  0.70940310  0.53084257  1  0  -0.266465  0  2.352375  0  0  -0.261025  0  2.758455  0  0  -0.269515  0  2.7464  0  0  -0.156475  -0.256054  0  2.766665  0
S  S57  1  0.53084517  0.97507725  0.70939960  1  0  -0.266703  0  2.352006  0  0  -0.261302  0  2.758086  0  0  -0.269789  0  2.746033  0  0  -0.156653  -0.256332  0  2.766296  0
S  S58  1  0.70940356  0.53084402  0.97507847  1  0  -0.266452  0  2.352429  0  0  -0.261009  0  2.758543  0  0  -0.269496  0  2.746489  0  0  -0.156473  -0.256045  0  2.766766  0
S  S59  1  0.52491702  0.29059688  0.03084344  1  0  -0.266435  0  2.352402  0  0  -0.261005  0  2.758478  0  0  -0.269492  0  2.746425  0  0  -0.156486  -0.256049  0  2.766706  0
S  S60  1  0.02492014  0.20940362  0.96915490  1  0  -0.266478  0  2.352368  0  0  -0.261016  0  2.758493  0  0  -0.2695  0  2.746434  0  0  -0.156466  -0.256055  0  2.766694  0
S  S61  1  0.47507905  0.79059659  0.46915806  1  0  -0.266508  0  2.352384  0  0  -0.261108  0  2.758436  0  0  -0.269601  0  2.74638  0  0  -0.156506  -0.256141  0  2.76666  0
S  S62  1  0.03084203  0.52491796  0.29059495  1  0  -0.266465  0  2.352442  0  0  -0.261047  0  2.758516  0  0  -0.269537  0  2.746463  0  0  -0.156475  -0.256074  0  2.766724  0
S  S63  1  0.96915390  0.02492089  0.20939741  1  0  -0.266541  0  2.352348  0  0  -0.261065  0  2.758476  0  0  -0.26955  0  2.746406  0  0  -0.156511  -0.256102  0  2.766688  0
S  S64  1  0.46915625  0.47507985  0.79060106  1  0  -0.266506  0  2.352334  0  0  -0.261039  0  2.75844  0  0  -0.269526  0  2.746384  0  0  -0.1565  -0.256077  0  2.766663  0
S  S65  1  0.29059933  0.03084079  0.52491743  1  0  -0.266644  0  2.352331  0  0  -0.261216  0  2.75844  0  0  -0.269697  0  2.746386  0  0  -0.156593  -0.256244  0  2.766661  0
S  S66  1  0.20939718  0.96915128  0.02492208  1  0  -0.266666  0  2.35206  0  0  -0.261249  0  2.758116  0  0  -0.269731  0  2.746066  0  0  -0.156619  -0.256284  0  2.766312  0
S  S67  1  0.79059559  0.46916071  0.47508438  1  0  -0.266516  0  2.352532  0  0  -0.261079  0  2.75862  0  0  -0.269565  0  2.746571  0  0  -0.156521  -0.256106  0  2.766836  0
S  S68  1  0.02491754  0.29059657  0.46915904  1  0  -0.266595  0  2.352394  0  0  -0.261181  0  2.758453  0  0  -0.269655  0  2.74638  0  0  -0.15655  -0.256214  0  2.766674  0
S  S69  1  0.46915521  0.02491988  0.29059946  1  0  -0.266482  0  2.352359  0  0  -0.261024  0  2.758483  0  0  -0.269508  0  2.746419  0  0  -0.156493  -0.256051  0  2.766703  0
S  S70  1  0.29060021  0.46915650  0.02491974  1  0  -0.266524  0  2.352277  0  0  -0.261087  0  2.758383  0  0  -0.269573  0  2.746327  0  0  -0.156533  -0.256109  0  2.766573  0
S  S71  1  0.47508080  0.70940279  0.96915647  1  0  -0.26651  0  2.352327  0  0  -0.261087  0  2.758406  0  0  -0.269575  0  2.746357  0  0  -0.156514  -0.256112  0  2.766597  0
S  S72  1  0.97508194  0.79059859  0.03084162  1  0  -0.26648  0  2.352385  0  0  -0.261066  0  2.758486  0  0  -0.269555  0  2.746428  0  0  -0.156495  -0.256098  0  2.766683  0
S  S73  1  0.52492302  0.20940053  0.53084439  1  0  -0.266503  0  2.352307  0  0  -0.261059  0  2.758449  0  0  -0.269544  0  2.746395  0  0  -0.156497  -0.25609  0  2.766666  0
S  S74  1  0.96915665  0.47508256  0.70939901  1  0  -0.266559  0  2.352336  0  0  -0.261099  0  2.758403  0  0  -0.269571  0  2.746327  0  0  -0.156535  -0.25613  0  2.76662  0
S  S75  1  0.03084817  0.97507368  0.79060164  1  0  -0.266658  0  2.351919  0  0  -0.261243  0  2.757979  0  0  -0.269736  0  2.745936  0  0  -0.156604  -0.256258  0  2.766167  0
S  S76  1  0.53084327  0.52491728  0.20940310  1  0  -0.266425  0  2.352476  0  0  -0.260997  0  2.758583  0  0  -0.269474  0  2.746532  0  0  -0.156457  -0.256024  0  2.766783  0
S  S77  1  0.70939680  0.96915379  0.47507908  1  0  -0.266526  0  2.352244  0  0  -0.261084  0  2.758355  0  0  -0.269561  0  2.746293  0  0  -0.156514  -0.256117  0  2.766575  0
S  S78  1  0.79060065  0.03084414  0.97508293  1  0  -0.2666  0  2.352303  0  0  -0.261178  0  2.758388  0  0  -0.269671  0  2.746333  0  0  -0.156563  -0.256197  0  2.766575  0
S  S79  1  0.20940139  0.53084321  0.52492062  1  0  -0.266582  0  2.352168  0  0  -0.261202  0  2.758208  0  0  -0.269677  0  2.74614  0  0  -0.156582  -0.256235  0  2.766427  0
Br  Br80  1  0.76557293  0.73442662  0.26557235  1  0  -0.510736  0  1.121802  0  0  -0.461945  0  1.431074  0  0  -0.481687  0  1.411896  0  0  -0.262965  -0.446939  0  1.443343  0
Br  Br81  1  0.26557176  0.76557211  0.73442737  1  0  -0.510811  0  1.121841  0  0  -0.462045  0  1.431125  0  0  -0.481783  0  1.411945  0  0  -0.262994  -0.447043  0  1.443394  0
Br  Br82  1  0.73442870  0.26557402  0.76557260  1  0  -0.510709  0  1.121785  0  0  -0.46194  0  1.431033  0  0  -0.481676  0  1.41185  0  0  -0.262959  -0.446936  0  1.4433  0
Br  Br83  1  0.23443075  0.23443084  0.23442920  1  0  -0.510814  0  1.121725  0  0  -0.462049  0  1.430988  0  0  -0.4818  0  1.411835  0  0  -0.263008  -0.447052  0  1.44325  0
Br  Br84  1  0.23442829  0.26557390  0.73442756  1  0  -0.51074  0  1.121782  0  0  -0.461964  0  1.431045  0  0  -0.481691  0  1.411857  0  0  -0.262971  -0.446963  0  1.443314  0
Br  Br85  1  0.73443031  0.23443011  0.26557254  1  0  -0.510794  0  1.121717  0  0  -0.462026  0  1.430973  0  0  -0.481768  0  1.411801  0  0  -0.26299  -0.44702  0  1.443241  0
Br  Br86  1  0.26557337  0.73442735  0.23442731  1  0  -0.510698  0  1.121782  0  0  -0.461934  0  1.431031  0  0  -0.481677  0  1.411858  0  0  -0.262966  -0.446938  0  1.443287  0
Br  Br87  1  0.76557302  0.76557223  0.76557156  1  0  -0.510737  0  1.121809  0  0  -0.461965  0  1.431081  0  0  -0.481698  0  1.411888  0  0  -0.262957  -0.446961  0  1.443345  0
N  N88  1  0.98924772  0.87147359  0.37203743  1  0  -0.410739  0  3.370689  0  0  -0.34191  0  3.605954  0  0  -0.364974  0  3.610857  0  0  -0.373605  -0.32706  0  3.602562  0
N  N89  1  0.37204059  0.98925386  0.87147940  1  0  -0.410658  0  3.371047  0  0  -0.342042  0  3.606435  0  0  -0.365089  0  3.611347  0  0  -0.373551  -0.327199  0  3.603043  0
N  N90  1  0.87147694  0.37203903  0.98924933  1  0  -0.41063  0  3.370762  0  0  -0.34189  0  3.606125  0  0  -0.364947  0  3.611037  0  0  -0.373517  -0.32704  0  3.602731  0
N  N91  1  0.51074205  0.12851168  0.87203772  1  0  -0.410506  0  3.370641  0  0  -0.341752  0  3.605904  0  0  -0.364801  0  3.610816  0  0  -0.373404  -0.326907  0  3.602511  0
N  N92  1  0.01074839  0.37148203  0.12796486  1  0  -0.410685  0  3.370552  0  0  -0.341916  0  3.605854  0  0  -0.364973  0  3.610758  0  0  -0.373505  -0.327067  0  3.602458  0
N  N93  1  0.48925239  0.62852270  0.62796405  1  0  -0.410534  0  3.370711  0  0  -0.341813  0  3.606006  0  0  -0.36487  0  3.61091  0  0  -0.373479  -0.326961  0  3.602617  0
N  N94  1  0.87203906  0.51074323  0.12851611  1  0  -0.410612  0  3.370644  0  0  -0.341745  0  3.605817  0  0  -0.3648  0  3.610723  0  0  -0.373473  -0.326893  0  3.602423  0
N  N95  1  0.12796791  0.01074729  0.37148137  1  0  -0.410601  0  3.370572  0  0  -0.34196  0  3.60608  0  0  -0.365014  0  3.610975  0  0  -0.373554  -0.327105  0  3.602693  0
N  N96  1  0.62796933  0.48925327  0.62851955  1  0  -0.410538  0  3.370533  0  0  -0.341887  0  3.605986  0  0  -0.36494  0  3.610885  0  0  -0.373561  -0.327039  0  3.602599  0
N  N97  1  0.12851933  0.87204062  0.51074291  1  0  -0.410803  0  3.370694  0  0  -0.341945  0  3.605893  0  0  -0.365003  0  3.610806  0  0  -0.373502  -0.327093  0  3.602501  0
N  N98  1  0.37148226  0.12796590  0.01074656  1  0  -0.410436  0  3.370661  0  0  -0.341753  0  3.605985  0  0  -0.364807  0  3.610899  0  0  -0.373457  -0.326907  0  3.602588  0
N  N99  1  0.62851627  0.62796398  0.48925592  1  0  -0.410686  0  3.370513  0  0  -0.341975  0  3.605782  0  0  -0.36503  0  3.610692  0  0  -0.373495  -0.327121  0  3.602394  0
N  N100  1  0.01074246  0.12851673  0.62796078  1  0  -0.410652  0  3.370642  0  0  -0.341866  0  3.605867  0  0  -0.364914  0  3.610771  0  0  -0.373507  -0.327015  0  3.602471  0
N  N101  1  0.62796658  0.01074497  0.12851711  1  0  -0.410636  0  3.370617  0  0  -0.341954  0  3.606043  0  0  -0.365012  0  3.610939  0  0  -0.37352  -0.3271  0  3.602654  0
N  N102  1  0.12851834  0.62796319  0.01074208  1  0  -0.410733  0  3.370728  0  0  -0.341827  0  3.605875  0  0  -0.364898  0  3.610794  0  0  -0.37352  -0.326979  0  3.602473  0
N  N103  1  0.48925068  0.87147611  0.12796389  1  0  -0.410624  0  3.370543  0  0  -0.341872  0  3.605869  0  0  -0.36493  0  3.610774  0  0  -0.373606  -0.327019  0  3.60247  0
N  N104  1  0.98925368  0.62852189  0.87203505  1  0  -0.410488  0  3.370512  0  0  -0.341864  0  3.605939  0  0  -0.36492  0  3.610845  0  0  -0.37352  -0.327016  0  3.602545  0
N  N105  1  0.51074969  0.37148206  0.37203331  1  0  -0.410594  0  3.370658  0  0  -0.341801  0  3.605964  0  0  -0.364852  0  3.610865  0  0  -0.373503  -0.326955  0  3.602574  0
N  N106  1  0.12796472  0.48925389  0.87147701  1  0  -0.410524  0  3.370625  0  0  -0.341829  0  3.60601  0  0  -0.36488  0  3.610912  0  0  -0.373555  -0.326981  0  3.602619  0
N  N107  1  0.87204011  0.98924984  0.62852703  1  0  -0.410697  0  3.371095  0  0  -0.342  0  3.606461  0  0  -0.365052  0  3.611366  0  0  -0.373652  -0.327154  0  3.603071  0
N  N108  1  0.37203699  0.51074300  0.37148715  1  0  -0.41047  0  3.370716  0  0  -0.341761  0  3.605996  0  0  -0.364809  0  3.610908  0  0  -0.373451  -0.326911  0  3.602598  0
N  N109  1  0.87148104  0.12796754  0.48925360  1  0  -0.410507  0  3.370411  0  0  -0.341877  0  3.605842  0  0  -0.36493  0  3.610739  0  0  -0.373524  -0.327029  0  3.602454  0
N  N110  1  0.62851896  0.87204141  0.98926014  1  0  -0.410601  0  3.370753  0  0  -0.34176  0  3.605961  0  0  -0.364816  0  3.610872  0  0  -0.373459  -0.32691  0  3.60256  0
N  N111  1  0.37147731  0.37203484  0.51074993  1  0  -0.41056  0  3.370864  0  0  -0.341813  0  3.606131  0  0  -0.364864  0  3.61104  0  0  -0.373554  -0.326967  0  3.602738  0
