# generated using pymatgen
data_CaH6C2N10O3
_symmetry_space_group_name_H-M   'P 1'
_cell_length_a   6.37470835
_cell_length_b   8.27021017
_cell_length_c   9.20795451
_cell_angle_alpha   94.68151583
_cell_angle_beta   103.27628298
_cell_angle_gamma   91.86917533
_symmetry_Int_Tables_number   1
_chemical_formula_structural   CaH6C2N10O3
_chemical_formula_sum   'Ca2 H12 C4 N20 O6'
_cell_volume   470.23420513
_cell_formula_units_Z   2
loop_
 _symmetry_equiv_pos_site_id
 _symmetry_equiv_pos_as_xyz
  1  'x, y, z'
loop_
 _atom_site_type_symbol
 _atom_site_label
 _atom_site_symmetry_multiplicity
 _atom_site_fract_x
 _atom_site_fract_y
 _atom_site_fract_z
 _atom_site_occupancy
 _atom_site_hle17_bader_spin_density
 _atom_site_hle17_ddec_charge
 _atom_site_hle17_ddec_spin_density
 _atom_site_hle17_ddec_sum_bond_order
 _atom_site_hle17_magmom
 _atom_site_hse06_10hf_bader_spin_density
 _atom_site_hse06_10hf_ddec_charge
 _atom_site_hse06_10hf_ddec_spin_density
 _atom_site_hse06_10hf_ddec_sum_bond_order
 _atom_site_hse06_10hf_magmom
 _atom_site_hse06_bader_spin_density
 _atom_site_hse06_ddec_charge
 _atom_site_hse06_ddec_spin_density
 _atom_site_hse06_ddec_sum_bond_order
 _atom_site_hse06_magmom
 _atom_site_pbe_bader_spin_density
 _atom_site_pbe_cm5_charge
 _atom_site_pbe_ddec_charge
 _atom_site_pbe_ddec_spin_density
 _atom_site_pbe_ddec_sum_bond_order
 _atom_site_pbe_magmom
Ca  Ca0  1  0.20509826  0.96237596  0.87909274  1  0  1.458881  0  1.193887  0  0  1.311228  0  1.551109  0  0  1.353359  0  1.512081  0  0  0.899442  1.279314  0  1.578562  0
Ca  Ca1  1  0.79490307  0.03762078  0.12090337  1  0  1.458894  0  1.193867  0  0  1.311247  0  1.551074  0  0  1.353388  0  1.512034  0  0  0.899447  1.27933  0  1.578521  0
H  H2  1  0.21875644  0.56255662  0.83247279  1  0  0.290004  0  0.901379  0  0  0.279725  0  0.962826  0  0  0.284474  0  0.959004  0  0  0.313959  0.276224  0  0.965754  0
H  H3  1  0.78124689  0.43744624  0.16753167  1  0  0.29001  0  0.90147  0  0  0.279754  0  0.962844  0  0  0.284502  0  0.959024  0  0  0.313978  0.276252  0  0.965773  0
H  H4  1  0.46206115  0.63546950  0.92973826  1  0  0.296386  0  0.931254  0  0  0.272625  0  1.017613  0  0  0.279847  0  1.009943  0  0  0.310493  0.267338  0  1.023262  0
H  H5  1  0.53794300  0.36454551  0.07026716  1  0  0.296504  0  0.931144  0  0  0.272598  0  1.017677  0  0  0.279821  0  1.010003  0  0  0.310448  0.267309  0  1.023327  0
H  H6  1  0.80028204  0.07522259  0.46105016  1  0  0.285295  0  0.930548  0  0  0.264556  0  1.014478  0  0  0.269942  0  1.00945  0  0  0.31356  0.260428  0  1.018726  0
H  H7  1  0.19971614  0.92477537  0.53894771  1  0  0.285324  0  0.930488  0  0  0.264578  0  1.014426  0  0  0.269965  0  1.009397  0  0  0.313562  0.260458  0  1.018652  0
H  H8  1  0.80159690  0.27231548  0.44117591  1  0  0.314126  0  0.854995  0  0  0.306424  0  0.909237  0  0  0.31147  0  0.904902  0  0  0.328331  0.302599  0  0.912784  0
H  H9  1  0.19839762  0.72767644  0.55882638  1  0  0.314247  0  0.854886  0  0  0.306482  0  0.909186  0  0  0.311518  0  0.904877  0  0  0.328365  0.302658  0  0.912731  0
H  H10  1  0.17669411  0.27201069  0.74617823  1  0  0.3907  0  0.928336  0  0  0.352368  0  1.006884  0  0  0.363993  0  0.989707  0  0  0.286894  0.344165  0  1.018958  0
H  H11  1  0.82330106  0.72799097  0.25383026  1  0  0.390655  0  0.928407  0  0  0.352315  0  1.00697  0  0  0.363942  0  0.989791  0  0  0.286887  0.344111  0  1.019047  0
H  H12  1  0.38133254  0.21007694  0.69265070  1  0  0.402762  0  0.903703  0  0  0.366598  0  0.979578  0  0  0.376148  0  0.965593  0  0  0.297386  0.359912  0  0.98934  0
H  H13  1  0.61866069  0.78991985  0.30735497  1  0  0.40272  0  0.903662  0  0  0.366578  0  0.979581  0  0  0.376127  0  0.965596  0  0  0.29736  0.359892  0  0.989343  0
C  C14  1  0.09969392  0.71270574  0.10657115  1  0  0.559758  0  3.935879  0  0  0.488278  0  4.235573  0  0  0.514918  0  4.241046  0  0  0.323774  0.470263  0  4.231364  0
C  C15  1  0.90029730  0.28730797  0.89342016  1  0  0.559989  0  3.93573  0  0  0.488409  0  4.235533  0  0  0.515052  0  4.240998  0  0  0.323932  0.470395  0  4.231321  0
C  C16  1  0.36388284  0.10584693  0.24569243  1  0  0.583477  0  3.879306  0  0  0.511927  0  4.180664  0  0  0.539843  0  4.1835  0  0  0.340357  0.49283  0  4.178328  0
C  C17  1  0.63611518  0.89414860  0.75430524  1  0  0.583457  0  3.878949  0  0  0.511898  0  4.180439  0  0  0.539816  0  4.183281  0  0  0.340316  0.492801  0  4.178099  0
N  N18  1  0.23588743  0.61744930  0.04663949  1  0  0.050981  0  3.571367  0  0  0.144142  0  3.787431  0  0  0.134579  0  3.805716  0  0  -0.066076  0.150186  0  3.775116  0
N  N19  1  0.76411793  0.38255964  0.95336463  1  0  0.050973  0  3.571633  0  0  0.144157  0  3.787642  0  0  0.134596  0  3.805925  0  0  -0.066136  0.150199  0  3.775327  0
N  N20  1  0.28754440  0.48874138  0.12946840  1  0  -0.144567  0  2.922632  0  0  -0.145453  0  3.214384  0  0  -0.145552  0  3.222209  0  0  -0.082276  -0.145284  0  3.209369  0
N  N21  1  0.71246093  0.51126759  0.87054114  1  0  -0.144441  0  2.922653  0  0  -0.145339  0  3.214389  0  0  -0.145437  0  3.222217  0  0  -0.082178  -0.145172  0  3.209376  0
N  N22  1  0.18775715  0.50558389  0.23734560  1  0  -0.045946  0  2.980944  0  0  -0.06154  0  3.309142  0  0  -0.055469  0  3.316311  0  0  -0.099669  -0.065225  0  3.304213  0
N  N23  1  0.81224191  0.49442749  0.76266201  1  0  -0.045786  0  2.980774  0  0  -0.06137  0  3.308951  0  0  -0.055303  0  3.316125  0  0  -0.099557  -0.065055  0  3.304021  0
N  N24  1  0.06905067  0.64070536  0.22784417  1  0  -0.457324  0  2.975588  0  0  -0.41747  0  3.274637  0  0  -0.435642  0  3.280957  0  0  -0.249311  -0.405284  0  3.270433  0
N  N25  1  0.93095816  0.35930723  0.77216184  1  0  -0.457651  0  2.975709  0  0  -0.417793  0  3.274819  0  0  -0.435966  0  3.281137  0  0  -0.249487  -0.405605  0  3.270615  0
N  N26  1  0.29839734  0.64729672  0.91643412  1  0  -0.54955  0  3.024078  0  0  -0.548987  0  3.265815  0  0  -0.559154  0  3.264635  0  0  -0.502304  -0.541306  0  3.266706  0
N  N27  1  0.70160482  0.35271218  0.08356513  1  0  -0.549765  0  3.024138  0  0  -0.549112  0  3.265987  0  0  -0.559281  0  3.26481  0  0  -0.502296  -0.541428  0  3.266873  0
N  N28  1  0.51250448  0.15678519  0.37728741  1  0  0.059511  0  3.539577  0  0  0.148981  0  3.762867  0  0  0.13958  0  3.78064  0  0  -0.058694  0.15511  0  3.750725  0
N  N29  1  0.48749932  0.84320064  0.62271270  1  0  0.059839  0  3.538811  0  0  0.149093  0  3.762371  0  0  0.13969  0  3.780141  0  0  -0.058591  0.155222  0  3.75023  0
N  N30  1  0.41001637  0.18323124  0.49071355  1  0  -0.167898  0  2.953965  0  0  -0.17595  0  3.245234  0  0  -0.176755  0  3.253304  0  0  -0.09523  -0.175416  0  3.239777  0
N  N31  1  0.58998773  0.81675817  0.50927381  1  0  -0.168086  0  2.953786  0  0  -0.176064  0  3.245125  0  0  -0.176868  0  3.253193  0  0  -0.095237  -0.175534  0  3.239672  0
N  N32  1  0.20571495  0.15314462  0.43022262  1  0  -0.062518  0  3.083637  0  0  -0.055123  0  3.39862  0  0  -0.050177  0  3.407039  0  0  -0.085496  -0.057715  0  3.392894  0
N  N33  1  0.79429086  0.84684596  0.56975751  1  0  -0.062165  0  3.083677  0  0  -0.054774  0  3.398619  0  0  -0.049823  0  3.40704  0  0  -0.085373  -0.057369  0  3.392894  0
N  N34  1  0.16904084  0.10642946  0.28189384  1  0  -0.459035  0  3.016094  0  0  -0.423114  0  3.323287  0  0  -0.442658  0  3.334183  0  0  -0.280129  -0.409653  0  3.315993  0
N  N35  1  0.83095633  0.89355263  0.71808756  1  0  -0.459341  0  3.016036  0  0  -0.423389  0  3.323269  0  0  -0.442924  0  3.334137  0  0  -0.280171  -0.409927  0  3.315971  0
N  N36  1  0.73418644  0.16137654  0.39224863  1  0  -0.548992  0  3.033492  0  0  -0.55154  0  3.278399  0  0  -0.561415  0  3.278444  0  0  -0.496271  -0.544568  0  3.279496  0
N  N37  1  0.26580187  0.83861903  0.60775617  1  0  -0.549221  0  3.032941  0  0  -0.551642  0  3.277978  0  0  -0.561524  0  3.278021  0  0  -0.496343  -0.544667  0  3.279079  0
O  O38  1  0.02381508  0.84022751  0.05172890  1  0  -0.709783  0  2.108748  0  0  -0.643064  0  2.373179  0  0  -0.670371  0  2.367206  0  0  -0.398479  -0.623144  0  2.37635  0
O  O39  1  0.97618048  0.15977892  0.94826369  1  0  -0.709892  0  2.108446  0  0  -0.643082  0  2.372849  0  0  -0.670388  0  2.366877  0  0  -0.398538  -0.623162  0  2.376019  0
O  O40  1  0.41446169  0.06619389  0.12269978  1  0  -0.696204  0  2.053111  0  0  -0.62866  0  2.310679  0  0  -0.655925  0  2.303852  0  0  -0.380894  -0.608649  0  2.313966  0
O  O41  1  0.58553764  0.93379809  0.87731306  1  0  -0.696275  0  2.052874  0  0  -0.628697  0  2.310426  0  0  -0.655964  0  2.303591  0  0  -0.380964  -0.608686  0  2.313716  0
O  O42  1  0.30581844  0.20630402  0.77431420  1  0  -0.850048  0  1.863645  0  0  -0.795912  0  2.05322  0  0  -0.814999  0  2.023349  0  0  -0.619406  -0.782094  0  2.073561  0
O  O43  1  0.69417980  0.79369520  0.22569028  1  0  -0.850004  0  1.863669  0  0  -0.795886  0  2.053324  0  0  -0.814974  0  2.023451  0  0  -0.619385  -0.78205  0  2.073626  0
