# generated using pymatgen
data_Mo2H10C10N2O7
_symmetry_space_group_name_H-M   'P 1'
_cell_length_a   3.74335508
_cell_length_b   17.17526119
_cell_length_c   19.93192536
_cell_angle_alpha   90.00023827
_cell_angle_beta   89.99956249
_cell_angle_gamma   96.41962286
_symmetry_Int_Tables_number   1
_chemical_formula_structural   Mo2H10C10N2O7
_chemical_formula_sum   'Mo8 H40 C40 N8 O28'
_cell_volume   1273.44997815
_cell_formula_units_Z   4
loop_
 _symmetry_equiv_pos_site_id
 _symmetry_equiv_pos_as_xyz
  1  'x, y, z'
loop_
 _atom_site_type_symbol
 _atom_site_label
 _atom_site_symmetry_multiplicity
 _atom_site_fract_x
 _atom_site_fract_y
 _atom_site_fract_z
 _atom_site_occupancy
 _atom_site_hle17_bader_spin_density
 _atom_site_hle17_ddec_charge
 _atom_site_hle17_ddec_spin_density
 _atom_site_hle17_ddec_sum_bond_order
 _atom_site_hle17_magmom
 _atom_site_hse06_10hf_bader_spin_density
 _atom_site_hse06_10hf_ddec_charge
 _atom_site_hse06_10hf_ddec_spin_density
 _atom_site_hse06_10hf_ddec_sum_bond_order
 _atom_site_hse06_10hf_magmom
 _atom_site_hse06_bader_spin_density
 _atom_site_hse06_ddec_charge
 _atom_site_hse06_ddec_spin_density
 _atom_site_hse06_ddec_sum_bond_order
 _atom_site_hse06_magmom
 _atom_site_pbe_bader_spin_density
 _atom_site_pbe_cm5_charge
 _atom_site_pbe_ddec_charge
 _atom_site_pbe_ddec_spin_density
 _atom_site_pbe_ddec_sum_bond_order
 _atom_site_pbe_magmom
Mo  Mo0  1  0.30651715  0.54134495  0.70305977  1  0  2.116119  0  4.23926  0  0  2.104857  0  4.782779  0  0  2.205376  0  4.7552  0  0  1.568857  2.028758  0  4.812724  0
Mo  Mo1  1  0.19350852  0.95865241  0.20305972  1  0  2.115912  0  4.239962  0  0  2.104907  0  4.782986  0  0  2.205481  0  4.755302  0  0  1.56884  2.028788  0  4.812967  0
Mo  Mo2  1  0.69343930  0.45866217  0.29694203  1  0  2.11588  0  4.23924  0  0  2.104592  0  4.782793  0  0  2.205106  0  4.755236  0  0  1.568816  2.028537  0  4.812645  0
Mo  Mo3  1  0.80654542  0.04134081  0.79693907  1  0  2.115931  0  4.239446  0  0  2.104612  0  4.783018  0  0  2.205152  0  4.755416  0  0  1.568777  2.028523  0  4.812937  0
Mo  Mo4  1  0.79400895  0.58140762  0.97598195  1  0  2.230237  0  3.999541  0  0  2.228863  0  4.534558  0  0  2.325248  0  4.503836  0  0  1.530522  2.158108  0  4.561807  0
Mo  Mo5  1  0.70599807  0.91859313  0.47598124  1  0  2.2303  0  3.99944  0  0  2.22891  0  4.534459  0  0  2.325309  0  4.503726  0  0  1.530536  2.15814  0  4.561717  0
Mo  Mo6  1  0.20598014  0.41858960  0.02402036  1  0  2.230439  0  3.999344  0  0  2.229059  0  4.534372  0  0  2.32543  0  4.503655  0  0  1.530605  2.158288  0  4.561636  0
Mo  Mo7  1  0.29401607  0.08141174  0.52401705  1  0  2.230324  0  3.99962  0  0  2.228948  0  4.534645  0  0  2.325341  0  4.503921  0  0  1.530521  2.158178  0  4.56191  0
H  H8  1  0.33476034  0.51643371  0.54398676  1  0  0.07412  0  0.967981  0  0  0.081393  0  1.038168  0  0  0.083588  0  1.036398  0  0  0.115143  0.0798  0  1.039466  0
H  H9  1  0.16528760  0.98356305  0.04398484  1  0  0.074162  0  0.968135  0  0  0.081412  0  1.038316  0  0  0.08361  0  1.036541  0  0  0.115165  0.079818  0  1.039614  0
H  H10  1  0.66516051  0.48357160  0.45601705  1  0  0.074182  0  0.968021  0  0  0.081478  0  1.038197  0  0  0.083676  0  1.036421  0  0  0.115185  0.079887  0  1.039499  0
H  H11  1  0.83482446  0.01643436  0.95601446  1  0  0.074166  0  0.968016  0  0  0.081423  0  1.038217  0  0  0.083616  0  1.036454  0  0  0.11517  0.079828  0  1.039519  0
H  H12  1  0.19617841  0.58424514  0.43603404  1  0  0.120988  0  0.950112  0  0  0.132347  0  1.007074  0  0  0.136264  0  1.004957  0  0  0.110878  0.129391  0  1.008988  0
H  H13  1  0.30388061  0.91575261  0.93603191  1  0  0.121049  0  0.95006  0  0  0.132408  0  1.007025  0  0  0.136325  0  1.004908  0  0  0.11093  0.129448  0  1.008945  0
H  H14  1  0.80376523  0.41576313  0.56396977  1  0  0.12104  0  0.949962  0  0  0.132357  0  1.006953  0  0  0.136309  0  1.004788  0  0  0.110843  0.129363  0  1.00891  0
H  H15  1  0.69623145  0.08424480  0.06396739  1  0  0.12103  0  0.950034  0  0  0.132352  0  1.007026  0  0  0.136297  0  1.004868  0  0  0.110826  0.12936  0  1.008984  0
H  H16  1  0.01894690  0.72232213  0.44488303  1  0  0.101471  0  0.955024  0  0  0.114558  0  1.010306  0  0  0.117291  0  1.008042  0  0  0.111187  0.112548  0  1.012039  0
H  H17  1  0.48110348  0.77767505  0.94488417  1  0  0.101445  0  0.954993  0  0  0.114518  0  1.010299  0  0  0.117249  0  1.008037  0  0  0.111191  0.112507  0  1.01203  0
H  H18  1  0.98104628  0.27768915  0.55511677  1  0  0.101476  0  0.954943  0  0  0.114554  0  1.010219  0  0  0.117286  0  1.007955  0  0  0.111178  0.112548  0  1.011949  0
H  H19  1  0.51895877  0.22231877  0.05511462  1  0  0.101463  0  0.954935  0  0  0.114587  0  1.01017  0  0  0.117321  0  1.007902  0  0  0.111179  0.112574  0  1.011905  0
H  H20  1  0.03653777  0.78690396  0.55520363  1  0  0.115241  0  0.997624  0  0  0.121186  0  1.066104  0  0  0.124958  0  1.06393  0  0  0.110317  0.118535  0  1.067696  0
H  H21  1  0.46348187  0.71309046  0.05520233  1  0  0.115348  0  0.997758  0  0  0.121195  0  1.066297  0  0  0.124967  0  1.064119  0  0  0.110363  0.118548  0  1.067873  0
H  H22  1  0.96345695  0.21310498  0.44479767  1  0  0.115062  0  0.997732  0  0  0.121073  0  1.066155  0  0  0.124851  0  1.063987  0  0  0.110253  0.118411  0  1.067764  0
H  H23  1  0.53655406  0.28689863  0.94479396  1  0  0.115148  0  0.997734  0  0  0.121183  0  1.066089  0  0  0.124961  0  1.063923  0  0  0.110297  0.118537  0  1.067652  0
H  H24  1  0.14475813  0.84094201  0.64351424  1  0  0.131795  0  0.949285  0  0  0.142736  0  1.005414  0  0  0.146654  0  1.002879  0  0  0.115336  0.139855  0  1.007539  0
H  H25  1  0.35522865  0.65905271  0.14351039  1  0  0.131692  0  0.949361  0  0  0.142646  0  1.005508  0  0  0.146566  0  1.002969  0  0  0.115308  0.139765  0  1.007638  0
H  H26  1  0.85518763  0.15906510  0.35649208  1  0  0.131796  0  0.949102  0  0  0.142707  0  1.005296  0  0  0.146628  0  1.002753  0  0  0.115312  0.139824  0  1.007425  0
H  H27  1  0.64479772  0.34093871  0.85648690  1  0  0.131672  0  0.949295  0  0  0.142581  0  1.005472  0  0  0.146497  0  1.002941  0  0  0.115286  0.139701  0  1.007603  0
H  H28  1  0.21753469  0.89411212  0.75947247  1  0  0.095872  0  0.961829  0  0  0.100142  0  1.033806  0  0  0.103361  0  1.030947  0  0  0.110078  0.097834  0  1.035729  0
H  H29  1  0.28240954  0.60588182  0.25946854  1  0  0.095973  0  0.961765  0  0  0.100241  0  1.033706  0  0  0.103464  0  1.03084  0  0  0.110105  0.09793  0  1.035647  0
H  H30  1  0.78237138  0.10589024  0.24053586  1  0  0.095926  0  0.961776  0  0  0.100273  0  1.033696  0  0  0.103494  0  1.030827  0  0  0.110083  0.097958  0  1.035636  0
H  H31  1  0.71756898  0.39411012  0.74052775  1  0  0.095912  0  0.961888  0  0  0.100262  0  1.033755  0  0  0.103488  0  1.030888  0  0  0.110104  0.097949  0  1.035695  0
H  H32  1  0.37444142  0.80641598  0.85186920  1  0  0.106675  0  0.963913  0  0  0.120655  0  1.016553  0  0  0.123322  0  1.015987  0  0  0.110602  0.118766  0  1.017128  0
H  H33  1  0.12551341  0.69358010  0.35186630  1  0  0.106718  0  0.963823  0  0  0.120663  0  1.016512  0  0  0.12333  0  1.015947  0  0  0.110596  0.118769  0  1.017086  0
H  H34  1  0.62546057  0.19358345  0.14813762  1  0  0.106659  0  0.963892  0  0  0.120583  0  1.016606  0  0  0.123249  0  1.016041  0  0  0.110586  0.118685  0  1.017181  0
H  H35  1  0.87448144  0.30641244  0.64812949  1  0  0.106694  0  0.963874  0  0  0.120665  0  1.016533  0  0  0.123334  0  1.015961  0  0  0.110639  0.118769  0  1.017108  0
H  H36  1  0.43118882  0.66524380  0.82636711  1  0  0.09125  0  0.94364  0  0  0.098437  0  1.010194  0  0  0.101584  0  1.006758  0  0  0.118911  0.096101  0  1.01275  0
H  H37  1  0.06882962  0.83475462  0.32636529  1  0  0.091305  0  0.94365  0  0  0.098444  0  1.010241  0  0  0.101588  0  1.00681  0  0  0.118925  0.09612  0  1.012779  0
H  H38  1  0.56877340  0.33475865  0.17363420  1  0  0.09137  0  0.943491  0  0  0.09846  0  1.010137  0  0  0.101607  0  1.006703  0  0  0.118924  0.096131  0  1.012674  0
H  H39  1  0.93121096  0.16523858  0.67362849  1  0  0.091432  0  0.943529  0  0  0.098528  0  1.010205  0  0  0.101675  0  1.006771  0  0  0.118939  0.096199  0  1.012751  0
H  H40  1  0.54324462  0.50482788  0.85249618  1  0  0.437033  0  0.860805  0  0  0.413986  0  0.912181  0  0  0.425742  0  0.895013  0  0  0.294384  0.405613  0  0.924411  0
H  H41  1  0.95676878  0.99517004  0.35249489  1  0  0.437003  0  0.86082  0  0  0.413975  0  0.912163  0  0  0.425731  0  0.894993  0  0  0.294384  0.405601  0  0.924393  0
H  H42  1  0.45671914  0.49517223  0.14750663  1  0  0.437018  0  0.860786  0  0  0.413962  0  0.912181  0  0  0.425722  0  0.895008  0  0  0.294409  0.405588  0  0.924409  0
H  H43  1  0.04325731  0.00483192  0.64750391  1  0  0.437099  0  0.860716  0  0  0.414033  0  0.912121  0  0  0.425795  0  0.894947  0  0  0.294407  0.405659  0  0.924349  0
H  H44  1  0.96045072  0.50471825  0.85189785  1  0  0.440018  0  0.856708  0  0  0.416993  0  0.907616  0  0  0.428982  0  0.89012  0  0  0.294044  0.408419  0  0.92014  0
H  H45  1  0.53956270  0.99527968  0.35189765  1  0  0.44  0  0.856711  0  0  0.416972  0  0.90763  0  0  0.428963  0  0.890129  0  0  0.294049  0.408398  0  0.920156  0
H  H46  1  0.03951571  0.49528187  0.14810195  1  0  0.439899  0  0.856851  0  0  0.416905  0  0.907702  0  0  0.428891  0  0.890213  0  0  0.294059  0.408339  0  0.920213  0
H  H47  1  0.46046072  0.00472228  0.64809964  1  0  0.440027  0  0.85669  0  0  0.417023  0  0.907552  0  0  0.429009  0  0.890062  0  0  0.294075  0.408452  0  0.920074  0
C  C48  1  0.27710919  0.57716853  0.54312197  1  0  0.131293  0  3.708274  0  0  0.100716  0  3.96724  0  0  0.108412  0  3.985113  0  0  0.045868  0.095689  0  3.954659  0
C  C49  1  0.22294203  0.92282940  0.04312025  1  0  0.131316  0  3.708107  0  0  0.100829  0  3.96704  0  0  0.108523  0  3.984914  0  0  0.045882  0.095803  0  3.95446  0
C  C50  1  0.72283150  0.42283916  0.45688184  1  0  0.131146  0  3.70825  0  0  0.10056  0  3.96719  0  0  0.108254  0  3.985075  0  0  0.045693  0.095527  0  3.954615  0
C  C51  1  0.77715878  0.07716682  0.95687805  1  0  0.131154  0  3.708531  0  0  0.100586  0  3.967485  0  0  0.108277  0  3.985371  0  0  0.045705  0.095559  0  3.954898  0
C  C52  1  0.19550510  0.61465423  0.48404150  1  0  -0.12536  0  3.711733  0  0  -0.13743  0  3.961289  0  0  -0.144692  0  3.981618  0  0  -0.082103  -0.132755  0  3.947818  0
C  C53  1  0.30453248  0.88534191  0.98403976  1  0  -0.125478  0  3.711724  0  0  -0.137573  0  3.961266  0  0  -0.144838  0  3.981595  0  0  -0.082107  -0.132888  0  3.947791  0
C  C54  1  0.80444065  0.38535287  0.51596131  1  0  -0.125262  0  3.711305  0  0  -0.137349  0  3.960886  0  0  -0.144641  0  3.981197  0  0  -0.081871  -0.13264  0  3.947427  0
C  C55  1  0.69554370  0.11465310  0.01595803  1  0  -0.125313  0  3.711668  0  0  -0.137391  0  3.96123  0  0  -0.14467  0  3.981543  0  0  -0.08197  -0.132686  0  3.947774  0
C  C56  1  0.10175507  0.69084682  0.48854603  1  0  0.014089  0  3.698344  0  0  -0.004311  0  3.944775  0  0  -1.7e-05  0  3.962226  0  0  -0.058394  -0.006812  0  3.932744  0
C  C57  1  0.39827995  0.80914992  0.98854640  1  0  0.014156  0  3.698329  0  0  -0.004266  0  3.944726  0  0  3.4e-05  0  3.962159  0  0  -0.058468  -0.006772  0  3.932702  0
C  C58  1  0.89821798  0.30916150  0.51145377  1  0  0.014014  0  3.697656  0  0  -0.004337  0  3.944091  0  0  -4.5e-05  0  3.961557  0  0  -0.058409  -0.006839  0  3.932047  0
C  C59  1  0.60178315  0.19084565  0.01145089  1  0  0.013954  0  3.6981  0  0  -0.004464  0  3.944535  0  0  -0.000171  0  3.961997  0  0  -0.058465  -0.006964  0  3.932487  0
C  C60  1  0.11076094  0.72781971  0.55058325  1  0  -0.121003  0  3.665966  0  0  -0.140425  0  3.913494  0  0  -0.147048  0  3.9331  0  0  -0.070913  -0.136248  0  3.900446  0
C  C61  1  0.38927872  0.77217706  0.05058226  1  0  -0.121224  0  3.666113  0  0  -0.140485  0  3.913606  0  0  -0.1471  0  3.933205  0  0  -0.071041  -0.13631  0  3.900558  0
C  C62  1  0.88921718  0.27218803  0.44941805  1  0  -0.120837  0  3.66579  0  0  -0.140244  0  3.913318  0  0  -0.146878  0  3.93293  0  0  -0.070914  -0.136064  0  3.90026  0
C  C63  1  0.61079127  0.22781619  0.94941352  1  0  -0.120709  0  3.666049  0  0  -0.140171  0  3.913458  0  0  -0.146824  0  3.933086  0  0  -0.070809  -0.135983  0  3.900398  0
C  C64  1  0.20889914  0.68763104  0.60735384  1  0  0.196265  0  3.731283  0  0  0.19174  0  3.975598  0  0  0.200128  0  3.992607  0  0  0.122982  0.186077  0  3.963943  0
C  C65  1  0.29113267  0.81236536  0.10735163  1  0  0.196376  0  3.731259  0  0  0.191754  0  3.975626  0  0  0.200144  0  3.992622  0  0  0.123193  0.186095  0  3.963972  0
C  C66  1  0.79106589  0.31237727  0.39264796  1  0  0.196174  0  3.731356  0  0  0.191367  0  3.975949  0  0  0.199762  0  3.992926  0  0  0.122945  0.18572  0  3.964279  0
C  C67  1  0.70892874  0.18762670  0.89264365  1  0  0.196076  0  3.731573  0  0  0.191471  0  3.975864  0  0  0.199881  0  3.992836  0  0  0.122914  0.185806  0  3.964209  0
C  C68  1  0.24080519  0.72390537  0.67423653  1  0  0.183198  0  3.739157  0  0  0.179251  0  3.984901  0  0  0.186373  0  4.003249  0  0  0.121071  0.174473  0  3.972326  0
C  C69  1  0.25921007  0.77609010  0.17423374  1  0  0.183175  0  3.739199  0  0  0.179343  0  3.984882  0  0  0.18646  0  4.003231  0  0  0.121034  0.174568  0  3.972304  0
C  C70  1  0.75914507  0.27609998  0.32576628  1  0  0.183121  0  3.739042  0  0  0.179425  0  3.984613  0  0  0.186563  0  4.002907  0  0  0.121002  0.174633  0  3.972037  0
C  C71  1  0.74083853  0.22390312  0.82576205  1  0  0.18311  0  3.739279  0  0  0.179346  0  3.984751  0  0  0.186475  0  4.003066  0  0  0.121001  0.174567  0  3.972176  0
C  C72  1  0.20255963  0.80298956  0.68490802  1  0  -0.120176  0  3.641474  0  0  -0.136735  0  3.880052  0  0  -0.143242  0  3.899636  0  0  -0.068821  -0.132643  0  3.867093  0
C  C73  1  0.29742524  0.69700474  0.18490489  1  0  -0.120001  0  3.641473  0  0  -0.136632  0  3.880033  0  0  -0.143134  0  3.899614  0  0  -0.068739  -0.132542  0  3.86708  0
C  C74  1  0.79738204  0.19701462  0.31509579  1  0  -0.120087  0  3.64124  0  0  -0.136646  0  3.879778  0  0  -0.143155  0  3.899352  0  0  -0.068724  -0.132553  0  3.86682  0
C  C75  1  0.70259606  0.30298726  0.81509139  1  0  -0.119994  0  3.64149  0  0  -0.136547  0  3.879972  0  0  -0.143058  0  3.899557  0  0  -0.068706  -0.132456  0  3.867019  0
C  C76  1  0.24657519  0.83293425  0.74956863  1  0  0.019306  0  3.697009  0  0  0.001598  0  3.943428  0  0  0.005572  0  3.961682  0  0  -0.056442  -0.000712  0  3.930978  0
C  C77  1  0.25339969  0.66706146  0.24956646  1  0  0.019059  0  3.69709  0  0  0.001395  0  3.943488  0  0  0.005367  0  3.961748  0  0  -0.056605  -0.000914  0  3.931039  0
C  C78  1  0.75335283  0.16706932  0.25043568  1  0  0.019087  0  3.697373  0  0  0.001236  0  3.943825  0  0  0.005206  0  3.962096  0  0  -0.05659  -0.001073  0  3.93137  0
C  C79  1  0.74661683  0.33293171  0.75043083  1  0  0.019218  0  3.697414  0  0  0.001427  0  3.943817  0  0  0.005388  0  3.96209  0  0  -0.056567  -0.000884  0  3.931372  0
C  C80  1  0.33232457  0.78390430  0.80129705  1  0  -0.098506  0  3.6969  0  0  -0.10949  0  3.939  0  0  -0.116386  0  3.960099  0  0  -0.07181  -0.105149  0  3.924951  0
C  C81  1  0.16764828  0.71609161  0.30129468  1  0  -0.098523  0  3.696781  0  0  -0.109476  0  3.938829  0  0  -0.116376  0  3.959929  0  0  -0.071744  -0.105127  0  3.924774  0
C  C82  1  0.66758924  0.21609748  0.19870826  1  0  -0.09827  0  3.696995  0  0  -0.109174  0  3.939044  0  0  -0.116077  0  3.960143  0  0  -0.071677  -0.104824  0  3.92498  0
C  C83  1  0.83235754  0.28390154  0.69870161  1  0  -0.098481  0  3.697063  0  0  -0.109434  0  3.939155  0  0  -0.11634  0  3.960273  0  0  -0.071767  -0.10508  0  3.925087  0
C  C84  1  0.36543143  0.70562195  0.78728319  1  0  0.146704  0  3.670193  0  0  0.11615  0  3.928945  0  0  0.124437  0  3.944428  0  0  0.054209  0.110734  0  3.918108  0
C  C85  1  0.13458024  0.79437572  0.28728064  1  0  0.146785  0  3.670144  0  0  0.116267  0  3.928911  0  0  0.124558  0  3.944393  0  0  0.054295  0.110842  0  3.918063  0
C  C86  1  0.63452361  0.29438224  0.21272062  1  0  0.146438  0  3.67023  0  0  0.115975  0  3.929003  0  0  0.124265  0  3.944488  0  0  0.054204  0.110552  0  3.918149  0
C  C87  1  0.86546597  0.20561808  0.71271515  1  0  0.146561  0  3.670039  0  0  0.116017  0  3.928903  0  0  0.124306  0  3.944384  0  0  0.054142  0.110596  0  3.918058  0
N  N88  1  0.28060217  0.61232801  0.60329283  1  0  -0.364594  0  3.273025  0  0  -0.316975  0  3.531538  0  0  -0.335595  0  3.552892  0  0  -0.336404  -0.303582  0  3.516817  0
N  N89  1  0.21943008  0.88766896  0.10329099  1  0  -0.364569  0  3.272754  0  0  -0.317097  0  3.531419  0  0  -0.335721  0  3.55277  0  0  -0.336488  -0.303703  0  3.516705  0
N  N90  1  0.71934358  0.38767910  0.39670997  1  0  -0.364536  0  3.272888  0  0  -0.316834  0  3.531426  0  0  -0.335454  0  3.552776  0  0  -0.336366  -0.303452  0  3.516713  0
N  N91  1  0.78064526  0.11232429  0.89670479  1  0  -0.364473  0  3.273043  0  0  -0.316823  0  3.531478  0  0  -0.33545  0  3.552823  0  0  -0.336295  -0.303436  0  3.516764  0
N  N92  1  0.31841666  0.67632312  0.72511457  1  0  -0.361954  0  3.26274  0  0  -0.317844  0  3.526991  0  0  -0.336054  0  3.547737  0  0  -0.335618  -0.304754  0  3.512685  0
N  N93  1  0.18160815  0.82367432  0.22511255  1  0  -0.36196  0  3.262697  0  0  -0.317915  0  3.526916  0  0  -0.336135  0  3.547675  0  0  -0.335653  -0.304822  0  3.512607  0
N  N94  1  0.68153923  0.32368283  0.27488774  1  0  -0.36175  0  3.262576  0  0  -0.31774  0  3.526782  0  0  -0.335958  0  3.547535  0  0  -0.335586  -0.304646  0  3.512452  0
N  N95  1  0.81844876  0.17631949  0.77488323  1  0  -0.361873  0  3.262574  0  0  -0.317812  0  3.526767  0  0  -0.336024  0  3.547505  0  0  -0.335514  -0.304726  0  3.512462  0
O  O96  1  0.78952028  0.56387852  0.69757982  1  0  -0.903953  0  1.931295  0  0  -0.91295  0  2.249965  0  0  -0.958097  0  2.252085  0  0  -0.596898  -0.878439  0  2.249438  0
O  O97  1  0.71051791  0.93611883  0.19757716  1  0  -0.90393  0  1.931442  0  0  -0.912977  0  2.249952  0  0  -0.958141  0  2.252051  0  0  -0.596961  -0.87846  0  2.249435  0
O  O98  1  0.21043378  0.43612918  0.30242450  1  0  -0.903852  0  1.93134  0  0  -0.912845  0  2.250016  0  0  -0.95799  0  2.252142  0  0  -0.596764  -0.878342  0  2.249463  0
O  O99  1  0.28954293  0.06387206  0.80242264  1  0  -0.903878  0  1.931424  0  0  -0.912849  0  2.250087  0  0  -0.958004  0  2.252204  0  0  -0.596764  -0.878339  0  2.249554  0
O  O100  1  0.23491068  0.45694885  0.65565030  1  0  -0.689381  0  1.436627  0  0  -0.686724  0  1.685377  0  0  -0.712978  0  1.67793  0  0  -0.520556  -0.667172  0  1.692005  0
O  O101  1  0.26513425  0.04304841  0.15565118  1  0  -0.689348  0  1.436836  0  0  -0.686696  0  1.685457  0  0  -0.712964  0  1.677995  0  0  -0.520524  -0.667142  0  1.69209  0
O  O102  1  0.76504872  0.54305887  0.34434849  1  0  -0.689362  0  1.436682  0  0  -0.686666  0  1.685402  0  0  -0.71292  0  1.677953  0  0  -0.520619  -0.667145  0  1.692059  0
O  O103  1  0.73492364  0.95694189  0.84434360  1  0  -0.68938  0  1.436665  0  0  -0.686667  0  1.685372  0  0  -0.712927  0  1.67792  0  0  -0.520613  -0.667127  0  1.692017  0
O  O104  1  0.25708149  0.51340040  0.78833350  1  0  -0.793263  0  1.575068  0  0  -0.772353  0  1.819465  0  0  -0.804601  0  1.80771  0  0  -0.533131  -0.748524  0  1.828819  0
O  O105  1  0.24294534  0.98659554  0.28833499  1  0  -0.793226  0  1.575147  0  0  -0.772375  0  1.81948  0  0  -0.804636  0  1.807712  0  0  -0.533093  -0.748539  0  1.828835  0
O  O106  1  0.74288101  0.48660264  0.21166730  1  0  -0.793162  0  1.575055  0  0  -0.772251  0  1.819443  0  0  -0.8045  0  1.80769  0  0  -0.533181  -0.748427  0  1.828773  0
O  O107  1  0.75709989  0.01340176  0.71166330  1  0  -0.793181  0  1.575055  0  0  -0.772268  0  1.819472  0  0  -0.804526  0  1.807715  0  0  -0.533154  -0.748446  0  1.828822  0
O  O108  1  0.27432608  0.54594248  0.97374865  1  0  -1.007681  0  1.850682  0  0  -1.001137  0  2.163441  0  0  -1.046971  0  2.159051  0  0  -0.607629  -0.965861  0  2.164921  0
O  O109  1  0.22568152  0.95405709  0.47374854  1  0  -1.00761  0  1.850494  0  0  -1.00107  0  2.163262  0  0  -1.046975  0  2.159039  0  0  -0.607641  -0.965791  0  2.164744  0
O  O110  1  0.72566273  0.45405415  0.02625315  1  0  -1.007711  0  1.850657  0  0  -1.00115  0  2.16339  0  0  -1.046925  0  2.158884  0  0  -0.607582  -0.965864  0  2.164854  0
O  O111  1  0.77433289  0.04594836  0.52625025  1  0  -1.007686  0  1.850631  0  0  -1.001122  0  2.16336  0  0  -1.046879  0  2.158831  0  0  -0.607573  -0.965838  0  2.164843  0
O  O112  1  0.81307174  0.62181713  0.05464804  1  0  -0.648214  0  1.456739  0  0  -0.646672  0  1.706191  0  0  -0.672012  0  1.699199  0  0  -0.497374  -0.629044  0  1.712114  0
O  O113  1  0.68693012  0.87818135  0.55464544  1  0  -0.648309  0  1.456754  0  0  -0.646759  0  1.706209  0  0  -0.672089  0  1.699201  0  0  -0.497381  -0.629126  0  1.71214  0
O  O114  1  0.18691622  0.37817775  0.94535578  1  0  -0.648231  0  1.456609  0  0  -0.646727  0  1.706101  0  0  -0.67203  0  1.69907  0  0  -0.497397  -0.629102  0  1.712048  0
O  O115  1  0.31307867  0.12182351  0.44535286  1  0  -0.648287  0  1.456883  0  0  -0.646766  0  1.706339  0  0  -0.67211  0  1.699344  0  0  -0.497362  -0.629122  0  1.712271  0
O  O116  1  0.83072410  0.66202020  0.92495589  1  0  -0.679148  0  1.413314  0  0  -0.681105  0  1.658565  0  0  -0.708125  0  1.651587  0  0  -0.506716  -0.662144  0  1.664334  0
O  O117  1  0.66929265  0.83797977  0.42495444  1  0  -0.679151  0  1.413163  0  0  -0.681119  0  1.658441  0  0  -0.708127  0  1.65144  0  0  -0.506694  -0.662153  0  1.66421  0
O  O118  1  0.16926794  0.33797761  0.07504742  1  0  -0.679232  0  1.413312  0  0  -0.681203  0  1.658589  0  0  -0.708228  0  1.651616  0  0  -0.506745  -0.662234  0  1.664353  0
O  O119  1  0.33072416  0.16202510  0.57504335  1  0  -0.679155  0  1.413297  0  0  -0.681114  0  1.658528  0  0  -0.708139  0  1.651557  0  0  -0.506737  -0.66215  0  1.664311  0
O  O120  1  0.75104796  0.50126645  0.88311675  1  0  -0.838483  0  1.90618  0  0  -0.801491  0  2.089943  0  0  -0.821539  0  2.057627  0  0  -0.591616  -0.786889  0  2.112787  0
O  O121  1  0.74896805  0.99873394  0.38311677  1  0  -0.83847  0  1.906144  0  0  -0.801486  0  2.089892  0  0  -0.821515  0  2.057574  0  0  -0.59167  -0.786886  0  2.112719  0
O  O122  1  0.24892354  0.49873308  0.11688505  1  0  -0.838367  0  1.906238  0  0  -0.801371  0  2.089987  0  0  -0.821428  0  2.057665  0  0  -0.591646  -0.786776  0  2.112819  0
O  O123  1  0.25105679  0.00127095  0.61688102  1  0  -0.838565  0  1.906037  0  0  -0.801567  0  2.089845  0  0  -0.821615  0  2.057502  0  0  -0.591665  -0.786968  0  2.112681  0
