# generated using pymatgen
data_ZnH6C8(N2O)2
_symmetry_space_group_name_H-M   'P 1'
_cell_length_a   11.44388713
_cell_length_b   12.73125113
_cell_length_c   12.73170000
_cell_angle_alpha   111.45079137
_cell_angle_beta   107.38909717
_cell_angle_gamma   107.45849525
_symmetry_Int_Tables_number   1
_chemical_formula_structural   ZnH6C8(N2O)2
_chemical_formula_sum   'Zn6 H36 C48 N24 O12'
_cell_volume   1462.18273448
_cell_formula_units_Z   6
loop_
 _symmetry_equiv_pos_site_id
 _symmetry_equiv_pos_as_xyz
  1  'x, y, z'
loop_
 _atom_site_type_symbol
 _atom_site_label
 _atom_site_symmetry_multiplicity
 _atom_site_fract_x
 _atom_site_fract_y
 _atom_site_fract_z
 _atom_site_occupancy
 _atom_site_hle17_bader_spin_density
 _atom_site_hle17_ddec_charge
 _atom_site_hle17_ddec_spin_density
 _atom_site_hle17_ddec_sum_bond_order
 _atom_site_hle17_magmom
 _atom_site_hse06_10hf_bader_spin_density
 _atom_site_hse06_10hf_ddec_charge
 _atom_site_hse06_10hf_ddec_spin_density
 _atom_site_hse06_10hf_ddec_sum_bond_order
 _atom_site_hse06_10hf_magmom
 _atom_site_hse06_bader_spin_density
 _atom_site_hse06_ddec_charge
 _atom_site_hse06_ddec_spin_density
 _atom_site_hse06_ddec_sum_bond_order
 _atom_site_hse06_magmom
 _atom_site_pbe_bader_charge
 _atom_site_pbe_bader_spin_density
 _atom_site_pbe_cm5_charge
 _atom_site_pbe_ddec_charge
 _atom_site_pbe_ddec_spin_density
 _atom_site_pbe_ddec_sum_bond_order
 _atom_site_pbe_magmom
Zn  Zn0  1  0.12459020  0.00483160  0.36083536  1  0  0.927826  0  1.940972  0  0  0.720377  0  2.424911  0  0  0.764759  0  2.377363  0  1.220245  0  0.710847  0.688861  0  2.457974  0
Zn  Zn1  1  0.61983627  0.99521875  0.35608773  1  0  0.927948  0  1.938642  0  0  0.72026  0  2.422473  0  0  0.764628  0  2.375036  0  1.216136  0  0.710492  0.688925  0  2.455191  0
Zn  Zn2  1  0.11994319  0.35608080  0.99523282  1  0  0.927757  0  1.93894  0  0  0.72012  0  2.422816  0  0  0.764533  0  2.375273  0  1.216034  0  0.710401  0.688788  0  2.455549  0
Zn  Zn3  1  0.76403401  0.63920546  0.64378771  1  0  0.928292  0  1.938381  0  0  0.720829  0  2.42243  0  0  0.765256  0  2.374832  0  1.216627  0  0.710837  0.689388  0  2.455342  0
Zn  Zn4  1  0.62460780  0.36082872  0.00467889  1  0  0.927617  0  1.941672  0  0  0.720162  0  2.425734  0  0  0.764525  0  2.378183  0  1.221122  0  0.710727  0.68866  0  2.458797  0
Zn  Zn5  1  0.26410531  0.64391630  0.63921262  1  0  0.928163  0  1.938592  0  0  0.720861  0  2.422527  0  0  0.765331  0  2.374893  0  1.216312  0  0.711001  0.689426  0  2.45548  0
H  H6  1  0.90134117  0.24234274  0.20042389  1  0  0.135202  0  0.939047  0  0  0.145703  0  0.994238  0  0  0.148991  0  0.994874  0  0.094953  0  0.111308  0.14334  0  0.994078  0
H  H7  1  0.15913198  0.75763154  0.95815824  1  0  0.135057  0  0.939908  0  0  0.145919  0  0.994623  0  0  0.149194  0  0.995246  0  0.117703  0  0.111382  0.143637  0  0.994314  0
H  H8  1  0.65898071  0.95808549  0.75759512  1  0  0.135308  0  0.939736  0  0  0.146087  0  0.994525  0  0  0.149359  0  0.995156  0  0.11769  0  0.111464  0.143803  0  0.994212  0
H  H9  1  0.70076154  0.79926928  0.04184872  1  0  0.134742  0  0.939391  0  0  0.14551  0  0.994211  0  0  0.148798  0  0.994827  0  0.109412  0  0.11129  0.143159  0  0.994046  0
H  H10  1  0.40108336  0.20041117  0.24232685  1  0  0.135192  0  0.939378  0  0  0.145844  0  0.994301  0  0  0.149133  0  0.99493  0  0.094742  0  0.11141  0.143482  0  0.994144  0
H  H11  1  0.20097324  0.04194298  0.79931516  1  0  0.134955  0  0.939305  0  0  0.145581  0  0.994243  0  0  0.148867  0  0.994858  0  0.108814  0  0.111391  0.143243  0  0.994064  0
H  H12  1  0.84733724  0.93999528  0.35355442  1  0  0.063413  0  0.940565  0  0  0.071971  0  1.005347  0  0  0.073926  0  1.002453  0  0.104048  0  0.128073  0.070421  0  1.007429  0
H  H13  1  0.40719823  0.06012354  0.41360611  1  0  0.06307  0  0.940922  0  0  0.071743  0  1.005681  0  0  0.073698  0  1.00278  0  0.074889  0  0.127896  0.070192  0  1.007774  0
H  H14  1  0.90733525  0.41364733  0.06013688  1  0  0.063182  0  0.940846  0  0  0.071502  0  1.005906  0  0  0.073451  0  1.003011  0  0.074652  0  0.127885  0.069955  0  1.007997  0
H  H15  1  0.49411830  0.64654272  0.58648739  1  0  0.062567  0  0.941607  0  0  0.071588  0  1.005924  0  0  0.073428  0  1.003149  0  0.141368  0  0.127926  0.070048  0  1.008  0
H  H16  1  0.34749651  0.35356278  0.94004884  1  0  0.06319  0  0.94057  0  0  0.071688  0  1.005482  0  0  0.07364  0  1.002587  0  0.103978  0  0.127898  0.070137  0  1.007566  0
H  H17  1  0.99409154  0.58645056  0.64655040  1  0  0.062541  0  0.94154  0  0  0.071352  0  1.006065  0  0  0.073318  0  1.003151  0  0.1407  0  0.127839  0.069798  0  1.008158  0
H  H18  1  0.69748502  0.15896931  0.23487692  1  0  0.103271  0  0.968418  0  0  0.109266  0  1.03447  0  0  0.112989  0  1.029834  0  0.18985  0  0.118568  0.106547  0  1.037832  0
H  H19  1  0.03846454  0.84098119  0.07581000  1  0  0.102273  0  0.969177  0  0  0.109179  0  1.034392  0  0  0.112789  0  1.029907  0  0.177899  0  0.118398  0.106478  0  1.037713  0
H  H20  1  0.53842880  0.07583837  0.84090246  1  0  0.102281  0  0.969575  0  0  0.108962  0  1.034997  0  0  0.11268  0  1.03037  0  0.176822  0  0.118257  0.106267  0  1.038333  0
H  H21  1  0.46265680  0.76501445  0.92414332  1  0  0.103366  0  0.96847  0  0  0.10959  0  1.034329  0  0  0.113324  0  1.029711  0  0.180233  0  0.118321  0.106815  0  1.037795  0
H  H22  1  0.19742212  0.23491894  0.15903937  1  0  0.102919  0  0.968752  0  0  0.108847  0  1.034913  0  0  0.112565  0  1.030289  0  0.187962  0  0.118308  0.106134  0  1.038264  0
H  H23  1  0.96274586  0.92412925  0.76497320  1  0  0.103454  0  0.968904  0  0  0.109567  0  1.034918  0  0  0.113281  0  1.030288  0  0.180959  0  0.118463  0.106794  0  1.038378  0
H  H24  1  0.49145356  0.46898777  0.69179604  1  0  0.124989  0  0.975248  0  0  0.134065  0  1.034849  0  0  0.136906  0  1.036191  0  0.100685  0  0.104612  0.132114  0  1.034041  0
H  H25  1  0.52262117  0.53107970  0.22279716  1  0  0.124761  0  0.974168  0  0  0.134043  0  1.033646  0  0  0.136885  0  1.034972  0  0.082063  0  0.104292  0.132058  0  1.032901  0
H  H26  1  0.02255343  0.22275388  0.53115001  1  0  0.124854  0  0.973934  0  0  0.13413  0  1.03347  0  0  0.136982  0  1.034783  0  0.064194  0  0.104367  0.132136  0  1.032731  0
H  H27  1  0.79936845  0.30841996  0.77717462  1  0  0.125271  0  0.973995  0  0  0.134463  0  1.033424  0  0  0.13732  0  1.034723  0  0.088683  0  0.104582  0.132469  0  1.03269  0
H  H28  1  0.99132804  0.69167223  0.46884626  1  0  0.124879  0  0.974705  0  0  0.134032  0  1.034178  0  0  0.13688  0  1.035504  0  0.1008  0  0.104525  0.132076  0  1.033379  0
H  H29  1  0.29935831  0.77723086  0.30841084  1  0  0.125166  0  0.974209  0  0  0.134301  0  1.033705  0  0  0.13716  0  1.034998  0  0.088557  0  0.104582  0.132307  0  1.032974  0
H  H30  1  0.27989313  0.03687460  0.61403881  1  0  0.075156  0  0.952391  0  0  0.080555  0  1.021482  0  0  0.083445  0  1.017065  0  0.143957  0  0.12489  0.078326  0  1.02468  0
H  H31  1  0.74326516  0.96314532  0.57725156  1  0  0.07521  0  0.951884  0  0  0.080538  0  1.021047  0  0  0.083441  0  1.016599  0  0.144446  0  0.124559  0.078366  0  1.024173  0
H  H32  1  0.24334917  0.57731607  0.96312077  1  0  0.075229  0  0.951788  0  0  0.080564  0  1.020964  0  0  0.08347  0  1.016515  0  0.14545  0  0.124553  0.078388  0  1.024094  0
H  H33  1  0.66597207  0.38568946  0.42258287  1  0  0.075464  0  0.952428  0  0  0.080167  0  1.022171  0  0  0.083052  0  1.017767  0  0.176152  0  0.12487  0.078004  0  1.025245  0
H  H34  1  0.78003223  0.61421255  0.03698914  1  0  0.075713  0  0.951968  0  0  0.080909  0  1.021242  0  0  0.083808  0  1.016831  0  0.1441  0  0.124942  0.078669  0  1.02443  0
H  H35  1  0.16601348  0.42256977  0.38576887  1  0  0.075396  0  0.952582  0  0  0.080045  0  1.022392  0  0  0.082944  0  1.017954  0  0.177403  0  0.124771  0.077884  0  1.025454  0
H  H36  1  0.30550945  0.28676476  0.47398762  1  0  0.090497  0  0.937646  0  0  0.102342  0  0.995474  0  0  0.105285  0  0.991976  0  0.123762  0  0.119462  0.100147  0  0.997994  0
H  H37  1  0.51908059  0.71333979  0.18726659  1  0  0.090746  0  0.938187  0  0  0.102709  0  0.995774  0  0  0.105598  0  0.992336  0  0.1556  0  0.119886  0.100528  0  0.998269  0
H  H38  1  0.01913847  0.18714875  0.71336908  1  0  0.090803  0  0.938626  0  0  0.102821  0  0.996096  0  0  0.105711  0  0.992653  0  0.15495  0  0.119952  0.100644  0  0.998585  0
H  H39  1  0.83161556  0.52630135  0.81261768  1  0  0.090592  0  0.938232  0  0  0.102585  0  0.995867  0  0  0.105478  0  0.992423  0  0.130368  0  0.119827  0.100461  0  0.998237  0
H  H40  1  0.80539112  0.47378418  0.28653615  1  0  0.090743  0  0.938416  0  0  0.102781  0  0.995971  0  0  0.105737  0  0.992446  0  0.120887  0  0.119579  0.100536  0  0.998544  0
H  H41  1  0.33169943  0.81273139  0.52623683  1  0  0.090385  0  0.938206  0  0  0.102615  0  0.995639  0  0  0.105513  0  0.992181  0  0.129492  0  0.119649  0.100471  0  0.998007  0
C  C42  1  0.89047165  0.17591843  0.23589471  1  0  -0.277151  0  3.662556  0  0  -0.289174  0  3.910321  0  0  -0.305654  0  3.930194  0  -0.014187  0  -0.097666  -0.278582  0  3.897002  0
C  C43  1  0.21460652  0.82410814  0.06002553  1  0  -0.278178  0  3.657084  0  0  -0.290289  0  3.905668  0  0  -0.30673  0  3.925444  0  -0.020183  0  -0.097927  -0.279724  0  3.892335  0
C  C44  1  0.71453880  0.05998185  0.82409090  1  0  -0.278485  0  3.657763  0  0  -0.290628  0  3.906203  0  0  -0.30708  0  3.925995  0  -0.018964  0  -0.097983  -0.280054  0  3.892878  0
C  C45  1  0.65454604  0.76386574  0.93998679  1  0  -0.277397  0  3.658647  0  0  -0.289367  0  3.90679  0  0  -0.305829  0  3.926673  0  -0.025545  0  -0.098229  -0.278794  0  3.893482  0
C  C46  1  0.39035565  0.23589173  0.17592896  1  0  -0.277091  0  3.662079  0  0  -0.289252  0  3.90981  0  0  -0.305721  0  3.929688  0  -0.013665  0  -0.097766  -0.278659  0  3.896494  0
C  C47  1  0.15467245  0.94003521  0.76386847  1  0  -0.277547  0  3.659474  0  0  -0.289423  0  3.907524  0  0  -0.305887  0  3.927402  0  -0.025421  0  -0.098293  -0.27886  0  3.894211  0
C  C48  1  0.99983027  0.14221703  0.27031589  1  0  0.563912  0  3.892268  0  0  0.529412  0  4.165644  0  0  0.558634  0  4.168075  0  1.258487  0  0.212275  0.510002  0  4.16322  0
C  C49  1  0.35768881  0.85787991  0.12825942  1  0  0.568658  0  3.883869  0  0  0.532973  0  4.15886  0  0  0.562208  0  4.161215  0  1.245568  0  0.21347  0.513559  0  4.15647  0
C  C50  1  0.85767704  0.12820624  0.85790656  1  0  0.568416  0  3.884809  0  0  0.533138  0  4.159182  0  0  0.562368  0  4.16153  0  1.246123  0  0.213405  0.513724  0  4.156801  0
C  C51  1  0.72959762  0.72958333  0.87182945  1  0  0.56758  0  3.88586  0  0  0.532371  0  4.160511  0  0  0.561615  0  4.162896  0  1.267872  0  0.213165  0.512919  0  4.158171  0
C  C52  1  0.49977285  0.27024546  0.14218049  1  0  0.564486  0  3.891064  0  0  0.530031  0  4.164368  0  0  0.559218  0  4.166835  0  1.258787  0  0.21247  0.51062  0  4.161942  0
C  C53  1  0.22967720  0.87186598  0.72957527  1  0  0.567505  0  3.886622  0  0  0.532435  0  4.160941  0  0  0.561656  0  4.163334  0  1.268127  0  0.213475  0.513007  0  4.158603  0
C  C54  1  0.86034893  0.00890723  0.32081808  1  0  0.314746  0  3.779407  0  0  0.255434  0  4.045851  0  0  0.2765  0  4.055568  0  1.113221  0  0.174278  0.241492  0  4.038898  0
C  C55  1  0.35137671  0.99118401  0.31196427  1  0  0.316426  0  3.780146  0  0  0.257099  0  4.046202  0  0  0.278192  0  4.055922  0  1.147722  0  0.175247  0.243166  0  4.039216  0
C  C56  1  0.85145746  0.31198685  0.99119058  1  0  0.316819  0  3.780097  0  0  0.257785  0  4.046138  0  0  0.278869  0  4.055847  0  1.149609  0  0.175313  0.243849  0  4.039171  0
C  C57  1  0.53984642  0.67926658  0.68812758  1  0  0.317087  0  3.775911  0  0  0.257417  0  4.042619  0  0  0.278626  0  4.052348  0  1.08959  0  0.175253  0.243415  0  4.03564  0
C  C58  1  0.36045507  0.32078757  0.00892129  1  0  0.315519  0  3.778585  0  0  0.256245  0  4.044966  0  0  0.277307  0  4.054691  0  1.113784  0  0.174759  0.242303  0  4.038014  0
C  C59  1  0.03983576  0.68810059  0.67925899  1  0  0.317418  0  3.775776  0  0  0.25789  0  4.042343  0  0  0.278976  0  4.052031  0  1.091263  0  0.175733  0.243916  0  4.035382  0
C  C60  1  0.77824331  0.12971059  0.25387975  1  0  0.173235  0  3.691952  0  0  0.135345  0  3.945309  0  0  0.1477  0  3.96123  0  0.387878  0  0.043648  0.127456  0  3.934325  0
C  C61  1  0.14849291  0.87027034  0.12414644  1  0  0.173957  0  3.688511  0  0  0.135512  0  3.942008  0  0  0.14793  0  3.957988  0  0.389537  0  0.043743  0.127627  0  3.931046  0
C  C62  1  0.64847349  0.12415820  0.87021392  1  0  0.174019  0  3.689307  0  0  0.135788  0  3.942776  0  0  0.148135  0  3.958673  0  0.390279  0  0.043772  0.127885  0  3.931856  0
C  C63  1  0.52445005  0.74598092  0.87586639  1  0  0.172091  0  3.692612  0  0  0.133967  0  3.945995  0  0  0.14632  0  3.961986  0  0.403994  0  0.043706  0.126119  0  3.935  0
C  C64  1  0.27822259  0.25391538  0.12976684  1  0  0.173226  0  3.691034  0  0  0.135396  0  3.94449  0  0  0.147747  0  3.960416  0  0.38799  0  0.043593  0.127507  0  3.933509  0
C  C65  1  0.02451030  0.87586172  0.74593915  1  0  0.172055  0  3.693736  0  0  0.133963  0  3.947063  0  0  0.146326  0  3.963012  0  0.405129  0  0.043638  0.126109  0  3.936079  0
C  C66  1  0.44364987  0.37254400  0.67398451  1  0  -0.281571  0  3.686758  0  0  -0.2936  0  3.93547  0  0  -0.309643  0  3.956475  0  -0.009267  0  -0.107093  -0.283478  0  3.922029  0
C  C67  1  0.57131299  0.62751966  0.30146936  1  0  -0.281104  0  3.686188  0  0  -0.293354  0  3.934894  0  0  -0.30938  0  3.95588  0  0.016801  0  -0.107033  -0.283318  0  3.921558  0
C  C68  1  0.07127204  0.30142693  0.62758038  1  0  -0.281087  0  3.687123  0  0  -0.293238  0  3.935842  0  0  -0.309277  0  3.95682  0  0.034604  0  -0.106953  -0.283191  0  3.922506  0
C  C69  1  0.76946275  0.32614408  0.69850091  1  0  -0.281442  0  3.686481  0  0  -0.293438  0  3.935065  0  0  -0.30946  0  3.956027  0  0.005289  0  -0.107044  -0.283485  0  3.921823  0
C  C70  1  0.94357475  0.67390532  0.37245839  1  0  -0.281366  0  3.686443  0  0  -0.293369  0  3.934985  0  0  -0.309413  0  3.955977  0  -0.00731  0  -0.106892  -0.283244  0  3.921545  0
C  C71  1  0.26946595  0.69852833  0.32614438  1  0  -0.281448  0  3.686921  0  0  -0.293443  0  3.935527  0  0  -0.309456  0  3.956501  0  0.004927  0  -0.107102  -0.283497  0  3.922266  0
C  C72  1  0.48456761  0.34556463  0.77436006  1  0  0.54483  0  3.91085  0  0  0.514594  0  4.177804  0  0  0.541821  0  4.183156  0  1.21096  0  0.204286  0.496273  0  4.173935  0
C  C73  1  0.63907169  0.65440585  0.42878780  1  0  0.544385  0  3.910849  0  0  0.514212  0  4.177815  0  0  0.541396  0  4.183216  0  1.200807  0  0.204207  0.495961  0  4.173919  0
C  C74  1  0.13902764  0.42879827  0.65442775  1  0  0.544877  0  3.910463  0  0  0.514539  0  4.177729  0  0  0.541739  0  4.18308  0  1.202018  0  0.204288  0.496284  0  4.173845  0
C  C75  1  0.71003740  0.22560758  0.57115235  1  0  0.545623  0  3.908677  0  0  0.515504  0  4.175622  0  0  0.54269  0  4.180979  0  1.18918  0  0.204518  0.497281  0  4.171753  0
C  C76  1  0.98451428  0.77441044  0.34558718  1  0  0.545191  0  3.911187  0  0  0.515102  0  4.177935  0  0  0.542333  0  4.183274  0  1.210294  0  0.204411  0.496775  0  4.174079  0
C  C77  1  0.21008331  0.57115699  0.22564356  1  0  0.545525  0  3.909284  0  0  0.515595  0  4.175951  0  0  0.542745  0  4.18135  0  1.188581  0  0.204551  0.497398  0  4.172052  0
C  C78  1  0.32777164  0.13414376  0.63258149  1  0  0.320477  0  3.733985  0  0  0.271144  0  3.998753  0  0  0.289938  0  4.008478  0  1.077229  0  0.171852  0.25896  0  3.991743  0
C  C79  1  0.69387263  0.86587901  0.49851230  1  0  0.320902  0  3.735291  0  0  0.271632  0  3.999993  0  0  0.290438  0  4.009716  0  1.075124  0  0.17284  0.259429  0  3.992913  0
C  C80  1  0.19390304  0.49851940  0.86588582  1  0  0.32099  0  3.73432  0  0  0.27172  0  3.998994  0  0  0.290514  0  4.008716  0  1.074502  0  0.173008  0.259521  0  3.991919  0
C  C81  1  0.69532929  0.36727498  0.50136575  1  0  0.319823  0  3.73606  0  0  0.270951  0  4.000897  0  0  0.289752  0  4.010625  0  1.058998  0  0.17203  0.258738  0  3.993863  0
C  C82  1  0.82782977  0.63268693  0.13420607  1  0  0.319369  0  3.734465  0  0  0.270194  0  3.999279  0  0  0.288973  0  4.009029  0  1.076221  0  0.17178  0.258034  0  3.992233  0
C  C83  1  0.19536941  0.50137880  0.36734894  1  0  0.320172  0  3.736217  0  0  0.271449  0  4.001041  0  0  0.290253  0  4.010762  0  1.061939  0  0.172299  0.259234  0  3.99402  0
C  C84  1  0.34340270  0.27386084  0.55562798  1  0  0.166759  0  3.729224  0  0  0.130067  0  3.982787  0  0  0.142128  0  3.999462  0  0.417941  0  0.041684  0.122464  0  3.971326  0
C  C85  1  0.56981341  0.72623706  0.28182894  1  0  0.165839  0  3.732063  0  0  0.129134  0  3.985678  0  0  0.141254  0  4.002327  0  0.372894  0  0.041518  0.121505  0  3.974299  0
C  C86  1  0.06986408  0.28176485  0.72629547  1  0  0.165669  0  3.732733  0  0  0.128869  0  3.986298  0  0  0.140979  0  4.002956  0  0.373664  0  0.041407  0.121241  0  3.974926  0
C  C87  1  0.78778867  0.44452641  0.71809423  1  0  0.165857  0  3.730667  0  0  0.12904  0  3.984358  0  0  0.141123  0  4.001017  0  0.413126  0  0.041252  0.121422  0  3.972941  0
C  C88  1  0.84334371  0.55552204  0.27373587  1  0  0.166521  0  3.729985  0  0  0.12961  0  3.983507  0  0  0.14167  0  4.000191  0  0.419413  0  0.041621  0.12204  0  3.97206  0
C  C89  1  0.28783485  0.71815713  0.44452153  1  0  0.165855  0  3.730759  0  0  0.128878  0  3.984529  0  0  0.140961  0  4.001187  0  0.414628  0  0.041335  0.121289  0  3.973083  0
N  N90  1  0.97345835  0.05031009  0.30781212  1  0  -0.508699  0  3.244733  0  0  -0.417556  0  3.534592  0  0  -0.445335  0  3.539482  0  -1.258722  0  -0.362033  -0.398601  0  3.530815  0
N  N91  1  0.42313116  0.94975262  0.25764867  1  0  -0.511586  0  3.245831  0  0  -0.419908  0  3.536075  0  0  -0.447751  0  3.540946  0  -1.250004  0  -0.36268  -0.40095  0  3.532239  0
N  N92  1  0.92319149  0.25762586  0.94980978  1  0  -0.511782  0  3.246316  0  0  -0.420202  0  3.536366  0  0  -0.448048  0  3.541245  0  -1.251316  0  -0.36261  -0.401228  0  3.532499  0
N  N93  1  0.66587635  0.69221330  0.74248044  1  0  -0.510807  0  3.240703  0  0  -0.419757  0  3.531272  0  0  -0.447666  0  3.536305  0  -1.287149  0  -0.362134  -0.400743  0  3.527463  0
N  N94  1  0.47348584  0.30774576  0.05028554  1  0  -0.509193  0  3.24404  0  0  -0.417863  0  3.533687  0  0  -0.445634  0  3.538597  0  -1.259755  0  -0.362015  -0.398907  0  3.529919  0
N  N95  1  0.16592591  0.74249676  0.69225430  1  0  -0.510543  0  3.241711  0  0  -0.419617  0  3.532261  0  0  -0.447507  0  3.537328  0  -1.287594  0  -0.362633  -0.400657  0  3.528493  0
N  N96  1  0.76283234  0.04623922  0.29928084  1  0  -0.417534  0  3.312032  0  0  -0.329741  0  3.608553  0  0  -0.354902  0  3.618724  0  -1.291633  0  -0.359964  -0.312526  0  3.601264  0
N  N97  1  0.21651916  0.95381398  0.25300774  1  0  -0.417281  0  3.311322  0  0  -0.330023  0  3.608888  0  0  -0.355182  0  3.618995  0  -1.292936  0  -0.360149  -0.312788  0  3.601635  0
N  N98  1  0.71655687  0.25305861  0.95375366  1  0  -0.417404  0  3.312258  0  0  -0.330207  0  3.609844  0  0  -0.355355  0  3.619946  0  -1.293924  0  -0.360239  -0.312982  0  3.602619  0
N  N99  1  0.46379958  0.70073731  0.74702668  1  0  -0.417791  0  3.312733  0  0  -0.329881  0  3.609596  0  0  -0.35508  0  3.619723  0  -1.29373  0  -0.360136  -0.312664  0  3.602364  0
N  N100  1  0.26289110  0.29928737  0.04629170  1  0  -0.417566  0  3.310593  0  0  -0.329898  0  3.607197  0  0  -0.355058  0  3.617378  0  -1.290847  0  -0.359898  -0.312686  0  3.599912  0
N  N101  1  0.96378003  0.74697082  0.70065854  1  0  -0.418235  0  3.313191  0  0  -0.330188  0  3.609886  0  0  -0.355328  0  3.619978  0  -1.294717  0  -0.360616  -0.31297  0  3.602656  0
N  N102  1  0.42361522  0.22326547  0.74960220  1  0  -0.49643  0  3.040053  0  0  -0.448612  0  3.312345  0  0  -0.471026  0  3.321889  0  -1.233464  0  -0.339651  -0.43354  0  3.305571  0
N  N103  1  0.70053541  0.77672592  0.52636989  1  0  -0.496952  0  3.041327  0  0  -0.449027  0  3.313468  0  0  -0.471436  0  3.323058  0  -1.22974  0  -0.340123  -0.433992  0  3.306782  0
N  N104  1  0.20047466  0.52638788  0.77671210  1  0  -0.497396  0  3.040778  0  0  -0.449387  0  3.31296  0  0  -0.471807  0  3.322555  0  -1.230864  0  -0.34017  -0.434346  0  3.30627  0
N  N105  1  0.67397572  0.25020301  0.47353754  1  0  -0.496732  0  3.040865  0  0  -0.448695  0  3.312691  0  0  -0.471103  0  3.322267  0  -1.238405  0  -0.339784  -0.433662  0  3.305944  0
N  N106  1  0.92366299  0.74974654  0.22337024  1  0  -0.496353  0  3.039881  0  0  -0.448514  0  3.311977  0  0  -0.47094  0  3.321531  0  -1.233858  0  -0.339769  -0.433452  0  3.305219  0
N  N107  1  0.17398814  0.47353885  0.25029429  1  0  -0.496857  0  3.041445  0  0  -0.448969  0  3.313233  0  0  -0.471369  0  3.322834  0  -1.237146  0  -0.33995  -0.433956  0  3.306492  0
N  N108  1  0.28333443  0.15257536  0.53301305  1  0  -0.430232  0  3.28722  0  0  -0.342423  0  3.573007  0  0  -0.367471  0  3.585553  0  -1.29062  0  -0.360655  -0.32559  0  3.564013  0
N  N109  1  0.63100425  0.84749496  0.38051940  1  0  -0.429945  0  3.290379  0  0  -0.341982  0  3.575663  0  0  -0.367035  0  3.588224  0  -1.283629  0  -0.360823  -0.325213  0  3.566619  0
N  N110  1  0.13109304  0.38045847  0.84753788  1  0  -0.429855  0  3.289888  0  0  -0.341892  0  3.575366  0  0  -0.366917  0  3.58787  0  -1.284607  0  -0.361128  -0.325135  0  3.566351  0
N  N111  1  0.75051710  0.46700796  0.61937353  1  0  -0.42972  0  3.288272  0  0  -0.341829  0  3.573736  0  0  -0.366865  0  3.586284  0  -1.293998  0  -0.360959  -0.325053  0  3.564745  0
N  N112  1  0.78334338  0.53299770  0.15254329  1  0  -0.430112  0  3.287964  0  0  -0.342324  0  3.57376  0  0  -0.367377  0  3.586334  0  -1.290256  0  -0.360844  -0.325482  0  3.564727  0
N  N113  1  0.25061299  0.61943022  0.46706683  1  0  -0.429304  0  3.288709  0  0  -0.341653  0  3.574523  0  0  -0.366684  0  3.587051  0  -1.299503  0  -0.360918  -0.324877  0  3.565534  0
O  O114  1  0.11379284  0.18842297  0.27184210  1  0  -0.578818  0  1.910411  0  0  -0.536502  0  2.127117  0  0  -0.558655  0  2.118728  0  -1.163229  0  -0.310659  -0.521038  0  2.132393  0
O  O115  1  0.42556619  0.81172722  0.08370123  1  0  -0.581334  0  1.906826  0  0  -0.538698  0  2.124145  0  0  -0.560847  0  2.115683  0  -1.171913  0  -0.311555  -0.523213  0  2.129477  0
O  O116  1  0.92555109  0.08362732  0.81176852  1  0  -0.581391  0  1.906941  0  0  -0.538873  0  2.124022  0  0  -0.561023  0  2.115545  0  -1.171913  0  -0.311745  -0.523391  0  2.129359  0
O  O117  1  0.84202944  0.72809325  0.91645285  1  0  -0.580518  0  1.9077  0  0  -0.538183  0  2.124815  0  0  -0.560306  0  2.11639  0  -1.16743  0  -0.311333  -0.522715  0  2.130064  0
O  O118  1  0.61366459  0.27171177  0.18829211  1  0  -0.579222  0  1.909454  0  0  -0.537083  0  2.126193  0  0  -0.559227  0  2.117815  0  -1.162812  0  -0.310908  -0.521614  0  2.131463  0
O  O119  1  0.34213420  0.91650386  0.72804228  1  0  -0.580485  0  1.908298  0  0  -0.538171  0  2.125441  0  0  -0.560311  0  2.117017  0  -1.168755  0  -0.311286  -0.522704  0  2.130681  0
O  O120  1  0.57740753  0.43190776  0.88857600  1  0  -0.61366  0  2.033729  0  0  -0.542309  0  2.293703  0  0  -0.569904  0  2.282787  0  -1.180802  0  -0.327688  -0.522724  0  2.300502  0
O  O121  1  0.64537958  0.56801516  0.45664050  1  0  -0.613031  0  2.032297  0  0  -0.541887  0  2.292078  0  0  -0.569582  0  2.281443  0  -1.169956  0  -0.327688  -0.522247  0  2.298422  0
O  O122  1  0.14534247  0.45666960  0.56804746  1  0  -0.613143  0  2.032004  0  0  -0.541935  0  2.291739  0  0  -0.569685  0  2.281197  0  -1.169643  0  -0.327815  -0.522301  0  2.298091  0
O  O123  1  0.68848745  0.11135317  0.54335293  1  0  -0.613797  0  2.032341  0  0  -0.542772  0  2.292238  0  0  -0.570422  0  2.281497  0  -1.164972  0  -0.327943  -0.523232  0  2.298634  0
O  O124  1  0.07729587  0.88867436  0.43197135  1  0  -0.613852  0  2.034286  0  0  -0.542641  0  2.294108  0  0  -0.570243  0  2.28321  0  -1.179976  0  -0.327684  -0.523041  0  2.300875  0
O  O125  1  0.18863265  0.54335222  0.11142956  1  0  -0.613835  0  2.032279  0  0  -0.542832  0  2.292119  0  0  -0.570495  0  2.281422  0  -1.164447  0  -0.327945  -0.523299  0  2.298502  0
