# generated using pymatgen
data_ZnH8C15(N2Cl)2
_symmetry_space_group_name_H-M   'P 1'
_cell_length_a   17.58362635
_cell_length_b   19.40201870
_cell_length_c   20.61595048
_cell_angle_alpha   101.18672338
_cell_angle_beta   89.98299700
_cell_angle_gamma   89.99726631
_symmetry_Int_Tables_number   1
_chemical_formula_structural   ZnH8C15(N2Cl)2
_chemical_formula_sum   'Zn8 H64 C120 N32 Cl16'
_cell_volume   6899.66133380
_cell_formula_units_Z   8
loop_
 _symmetry_equiv_pos_site_id
 _symmetry_equiv_pos_as_xyz
  1  'x, y, z'
loop_
 _atom_site_type_symbol
 _atom_site_label
 _atom_site_symmetry_multiplicity
 _atom_site_fract_x
 _atom_site_fract_y
 _atom_site_fract_z
 _atom_site_occupancy
 _atom_site_pbe_bader_charge
 _atom_site_pbe_bader_spin_density
 _atom_site_pbe_cm5_charge
 _atom_site_pbe_ddec_charge
 _atom_site_pbe_ddec_spin_density
 _atom_site_pbe_ddec_sum_bond_order
 _atom_site_pbe_magmom
Zn  Zn0  1  0.03024968  0.05198625  0.43936682  1  1.175399  0  0.752519  0.609612  0  2.552067  0
Zn  Zn1  1  0.96970924  0.94805308  0.56060877  1  1.174127  0  0.752238  0.609238  0  2.552087  0
Zn  Zn2  1  0.46969004  0.55208512  0.93962037  1  1.174604  0  0.752477  0.610048  0  2.551341  0
Zn  Zn3  1  0.53036405  0.44786520  0.06033697  1  1.174147  0  0.752499  0.609949  0  2.551912  0
Zn  Zn4  1  0.86553892  0.05991708  0.54266055  1  1.186113  0  0.738199  0.653677  0  2.28417  0
Zn  Zn5  1  0.13445856  0.94010501  0.45735108  1  1.18581  0  0.738207  0.654318  0  2.283322  0
Zn  Zn6  1  0.36595090  0.43950574  0.95684205  1  1.187595  0  0.738163  0.653671  0  2.283896  0
Zn  Zn7  1  0.63409748  0.56044094  0.04312876  1  1.186915  0  0.738246  0.653696  0  2.284104  0
H  H8  1  0.98220958  0.91243795  0.32678172  1  0.18523  0  0.12082  0.11358  0  1.043355  0
H  H9  1  0.05304068  0.65947263  0.76900294  1  0.119968  0  0.094766  0.100657  0  1.030271  0
H  H10  1  0.79559085  0.87919058  0.90639595  1  0.051162  0  0.095274  0.101028  0  1.030705  0
H  H11  1  0.20451643  0.12069436  0.09354670  1  0.052026  0  0.095226  0.100898  0  1.030613  0
H  H12  1  0.29724622  0.62195331  0.59373219  1  0.078303  0  0.094872  0.100593  0  1.03009  0
H  H13  1  0.70269185  0.37815523  0.40636673  1  0.078925  0  0.094865  0.100748  0  1.030263  0
H  H14  1  0.44725211  0.16125465  0.27021734  1  0.081829  0  0.094378  0.100923  0  1.030513  0
H  H15  1  0.55278500  0.83872734  0.72979998  1  0.081619  0  0.094451  0.100869  0  1.030832  0
H  H16  1  0.98519091  0.79935649  0.58991740  1  0.138012  0  0.112037  0.104543  0  1.030934  0
H  H17  1  0.01476019  0.20072608  0.41011249  1  0.136496  0  0.11212  0.104601  0  1.030653  0
H  H18  1  0.11234862  0.11432028  0.31831006  1  0.103233  0  0.113225  0.105054  0  1.013301  0
H  H19  1  0.01764741  0.08769277  0.67316094  1  0.181596  0  0.1212  0.114515  0  1.043198  0
H  H20  1  0.88761167  0.88563417  0.68162986  1  0.096935  0  0.113064  0.104788  0  1.013363  0
H  H21  1  0.61205963  0.38582973  0.18170379  1  0.096362  0  0.112937  0.105018  0  1.013996  0
H  H22  1  0.38795035  0.61419685  0.81834846  1  0.097485  0  0.112973  0.104995  0  1.014188  0
H  H23  1  0.48437032  0.70087201  0.91061707  1  0.129323  0  0.111972  0.10461  0  1.029224  0
H  H24  1  0.51568380  0.29909212  0.08937625  1  0.127396  0  0.11197  0.10442  0  1.029845  0
H  H25  1  0.70407093  0.00950302  0.62318674  1  0.089604  0  0.122668  0.112022  0  0.983869  0
H  H26  1  0.29589471  0.99051871  0.37681597  1  0.090659  0  0.12264  0.112025  0  0.983913  0
H  H27  1  0.78058479  0.17694878  0.46672937  1  0.088572  0  0.121802  0.108466  0  0.993412  0
H  H28  1  0.21939398  0.82311496  0.53341603  1  0.088602  0  0.12192  0.108564  0  0.993559  0
H  H29  1  0.28138110  0.32203906  0.03275088  1  0.10403  0  0.121869  0.108045  0  0.993655  0
H  H30  1  0.85976755  0.11758690  0.78372848  1  0.079781  0  0.104424  0.093682  0  1.009268  0
H  H31  1  0.71869794  0.67788519  0.96716225  1  0.102726  0  0.121885  0.108216  0  0.993306  0
H  H32  1  0.20473188  0.48927124  0.87576856  1  0.098949  0  0.122446  0.111992  0  0.98355  0
H  H33  1  0.79528931  0.51070754  0.12422748  1  0.098214  0  0.122498  0.112103  0  0.983423  0
H  H34  1  0.21083642  0.79795683  0.38640673  1  0.052377  0  0.099805  0.08632  0  1.034313  0
H  H35  1  0.78914600  0.20202140  0.61370252  1  0.048523  0  0.099843  0.086248  0  1.034281  0
H  H36  1  0.18395797  0.10069258  0.52020414  1  0.094216  0  0.119936  0.113228  0  1.020657  0
H  H37  1  0.81595116  0.89940627  0.47976937  1  0.094481  0  0.119765  0.112933  0  1.020856  0
H  H38  1  0.68460985  0.39997802  0.97985553  1  0.123539  0  0.119914  0.11331  0  1.01981  0
H  H39  1  0.31541168  0.59994190  0.02011727  1  0.123626  0  0.11965  0.113136  0  1.019719  0
H  H40  1  0.71037880  0.70220746  0.11409947  1  0.061687  0  0.099877  0.086443  0  1.035047  0
H  H41  1  0.14025103  0.88218274  0.21625454  1  0.034813  0  0.104402  0.09356  0  1.00904  0
H  H42  1  0.28954209  0.29783253  0.88580314  1  0.065201  0  0.099686  0.08591  0  1.035863  0
H  H43  1  0.69378212  0.16475398  0.83338752  1  0.081898  0  0.103261  0.107295  0  0.978491  0
H  H44  1  0.30565465  0.83496392  0.16636183  1  0.081728  0  0.103531  0.107795  0  0.978349  0
H  H45  1  0.78330198  0.89228169  0.26493538  1  0.065665  0  0.101668  0.104484  0  0.98154  0
H  H46  1  0.21691645  0.10773805  0.73475255  1  0.067963  0  0.101937  0.104897  0  0.981248  0
H  H47  1  0.28088134  0.60687388  0.23402629  1  0.091119  0  0.101946  0.104901  0  0.981381  0
H  H48  1  0.71968925  0.39305344  0.76632100  1  0.096515  0  0.10194  0.10471  0  0.981288  0
H  H49  1  0.19620552  0.33513818  0.66513274  1  0.073794  0  0.103078  0.106966  0  0.978112  0
H  H50  1  0.80336118  0.66512609  0.33508802  1  0.085189  0  0.10322  0.106869  0  0.977715  0
H  H51  1  0.33598321  0.73275192  0.31532231  1  0.082555  0  0.099194  0.10015  0  0.984299  0
H  H52  1  0.36045388  0.38211991  0.71574223  1  0.073442  0  0.104248  0.093531  0  1.009327  0
H  H53  1  0.66444623  0.26745429  0.68463515  1  0.084353  0  0.099152  0.099655  0  0.984432  0
H  H54  1  0.25048973  0.20898949  0.58511853  1  0.087355  0  0.099966  0.10164  0  0.984215  0
H  H55  1  0.74911119  0.79148542  0.41477814  1  0.084652  0  0.099848  0.101319  0  0.984086  0
H  H56  1  0.74930924  0.28947273  0.91485720  1  0.041853  0  0.098886  0.100266  0  0.984625  0
H  H57  1  0.25022381  0.70997792  0.08529172  1  0.043549  0  0.099307  0.100532  0  0.984898  0
H  H58  1  0.83718844  0.76507152  0.18502627  1  0.081007  0  0.099091  0.100023  0  0.984498  0
H  H59  1  0.16299868  0.23475036  0.81498304  1  0.080627  0  0.099288  0.099996  0  0.984661  0
H  H60  1  0.76862589  0.29680427  0.46464460  1  0.065939  0  0.102619  0.103046  0  0.996968  0
H  H61  1  0.23129062  0.70332182  0.53548825  1  0.067281  0  0.102501  0.103065  0  0.996473  0
H  H62  1  0.62973415  0.90115697  0.66000770  1  0.065539  0  0.104731  0.108504  0  0.99037  0
H  H63  1  0.63958609  0.61798531  0.28422964  1  0.07462  0  0.104395  0.093373  0  1.008571  0
H  H64  1  0.37026329  0.09885548  0.34000461  1  0.065751  0  0.104746  0.108519  0  0.99015  0
H  H65  1  0.12989750  0.59680825  0.83863036  1  0.081587  0  0.104711  0.108817  0  0.989611  0
H  H66  1  0.87010206  0.40318180  0.16144938  1  0.082075  0  0.104734  0.108902  0  0.989376  0
H  H67  1  0.27028159  0.20200248  0.03503010  1  0.054666  0  0.103241  0.104148  0  0.996326  0
H  H68  1  0.72982283  0.79787657  0.96489329  1  0.05453  0  0.102994  0.103724  0  0.996587  0
H  H69  1  0.48172768  0.58710343  0.17302250  1  0.194345  0  0.120712  0.113814  0  1.044519  0
H  H70  1  0.51832623  0.41280486  0.82693363  1  0.194766  0  0.120619  0.113779  0  1.044942  0
H  H71  1  0.94692718  0.34056459  0.23113899  1  0.121026  0  0.094822  0.100768  0  1.030123  0
C  C72  1  0.94539439  0.91927575  0.37007654  1  0.418234  0  0.030185  0.004778  0  3.885675  0
C  C73  1  0.63420880  0.25835555  0.79434055  1  0.134926  0  0.019563  0.126286  0  3.705626  0
C  C74  1  0.76903606  0.78571425  0.36372134  1  -0.06958  0  -0.084625  -0.124775  0  3.663089  0
C  C75  1  0.73011334  0.28472092  0.86370037  1  -0.021722  0  -0.083989  -0.123816  0  3.66441  0
C  C76  1  0.26964865  0.71491983  0.13638788  1  -0.02079  0  -0.08389  -0.123286  0  3.664704  0
C  C77  1  0.81667638  0.77139288  0.23591921  1  -0.049853  0  -0.083013  -0.119329  0  3.653128  0
C  C78  1  0.18338515  0.22857320  0.76406464  1  -0.050737  0  -0.083023  -0.118709  0  3.653424  0
C  C79  1  0.70032960  0.21560758  0.81863411  1  -0.047756  0  -0.078726  -0.117031  0  3.63308  0
C  C80  1  0.29937745  0.78417017  0.18125206  1  -0.044801  0  -0.079698  -0.118871  0  3.634114  0
C  C81  1  0.78745435  0.84132378  0.27978110  1  -0.032095  0  -0.081671  -0.12116  0  3.651451  0
C  C82  1  0.21261072  0.15876061  0.72001243  1  -0.031443  0  -0.081758  -0.121774  0  3.651214  0
C  C83  1  0.28611434  0.65803571  0.21969603  1  -0.059574  0  -0.081304  -0.120607  0  3.650355  0
C  C84  1  0.27944113  0.19964053  0.69511826  1  0.1246  0  0.016597  0.127552  0  3.705243  0
C  C85  1  0.71420087  0.34185323  0.78049568  1  -0.06865  0  -0.081708  -0.120931  0  3.650131  0
C  C86  1  0.20154959  0.28446759  0.68045679  1  -0.036363  0  -0.079127  -0.117068  0  3.634302  0
C  C87  1  0.79813412  0.71573755  0.31963894  1  -0.050218  0  -0.07977  -0.117009  0  3.634602  0
C  C88  1  0.75084990  0.22926007  0.75897188  1  0.031281  0  -0.000604  0.066784  0  3.704664  0
C  C89  1  0.24913979  0.77055647  0.24110411  1  0.034984  0  -0.000966  0.067335  0  3.702405  0
C  C90  1  0.83655358  0.82782668  0.34028108  1  0.024313  0  -0.001513  0.057146  0  3.702903  0
C  C91  1  0.16329331  0.17233348  0.65965706  1  0.029259  0  -0.00191  0.05768  0  3.702386  0
C  C92  1  0.33619274  0.67162188  0.15973334  1  0.023233  0  -0.001464  0.055141  0  3.704699  0
C  C93  1  0.66380743  0.32823576  0.84027835  1  0.024979  0  -0.001753  0.054921  0  3.706044  0
C  C94  1  0.25101823  0.27085655  0.74069367  1  0.03513  0  -0.001189  0.065425  0  3.705455  0
C  C95  1  0.72047562  0.80059428  0.30464275  1  0.130795  0  0.016313  0.126892  0  3.706147  0
C  C96  1  0.74888990  0.72926624  0.25925805  1  0.03743  0  -0.000726  0.065653  0  3.706056  0
C  C97  1  0.77993077  0.29970349  0.80537900  1  0.134409  0  0.016541  0.126486  0  3.706664  0
C  C98  1  0.22011665  0.69996315  0.19490129  1  0.127393  0  0.016151  0.126717  0  3.705114  0
C  C99  1  0.86551285  0.75702268  0.29536013  1  0.139938  0  0.020022  0.124056  0  3.707371  0
C  C100  1  0.13433791  0.24302528  0.70477269  1  0.137116  0  0.01996  0.123985  0  3.708094  0
C  C101  1  0.86180813  0.27359745  0.39530112  1  0.058001  0  -0.013735  0.024969  0  4.038587  0
C  C102  1  0.13814073  0.72652076  0.60485670  1  0.015992  0  -0.01411  0.024065  0  4.039702  0
C  C103  1  0.72771035  0.91570876  0.72439366  1  0.073987  0  -0.010487  0.030475  0  4.036008  0
C  C104  1  0.05448192  0.08085450  0.62987803  1  0.424129  0  0.029862  0.003492  0  3.885743  0
C  C105  1  0.27229788  0.08429563  0.27560142  1  0.072814  0  -0.010486  0.030362  0  4.036359  0
C  C106  1  0.22844364  0.58351816  0.77489252  1  0.021592  0  -0.010024  0.032433  0  4.037566  0
C  C107  1  0.77153735  0.41651452  0.22517254  1  0.069752  0  -0.009809  0.032833  0  4.037446  0
C  C108  1  0.36290811  0.22612902  0.10474056  1  0.023008  0  -0.013123  0.025825  0  4.039169  0
C  C109  1  0.63714762  0.77380938  0.89522792  1  0.024576  0  -0.013243  0.025702  0  4.038121  0
C  C110  1  0.24370901  0.64576977  0.61292042  1  0.052548  0  -0.099979  -0.131744  0  4.031774  0
C  C111  1  0.75623308  0.35435026  0.38719516  1  0.052089  0  -0.100448  -0.132215  0  4.031656  0
C  C112  1  0.39059584  0.14270667  0.25426419  1  0.010249  0  -0.099781  -0.133144  0  4.025976  0
C  C113  1  0.60943277  0.85728001  0.74574411  1  0.011416  0  -0.099825  -0.132788  0  4.026565  0
C  C114  1  0.89002718  0.35860892  0.24683271  1  -0.062241  0  -0.100085  -0.131211  0  4.025071  0
C  C115  1  0.85091622  0.12994217  0.73504561  1  0.4511  0  -0.007387  -0.059611  0  4.051827  0
C  C116  1  0.10994191  0.64144697  0.75329149  1  -0.093784  0  -0.099753  -0.130888  0  4.024139  0
C  C117  1  0.74234754  0.85491596  0.88707881  1  -0.037461  0  -0.100356  -0.131536  0  4.031617  0
C  C118  1  0.25774283  0.14500769  0.11288199  1  -0.037196  0  -0.100307  -0.131249  0  4.032294  0
C  C119  1  0.20693565  0.69178231  0.58083823  1  -0.115169  0  -0.090524  -0.113186  0  4.007284  0
C  C120  1  0.79299391  0.30833875  0.41929770  1  -0.116188  0  -0.09055  -0.113671  0  4.007554  0
C  C121  1  0.34770064  0.10724048  0.29287925  1  -0.07326  0  -0.088852  -0.112646  0  4.002346  0
C  C122  1  0.65229618  0.89275945  0.70712782  1  -0.072856  0  -0.088862  -0.112812  0  4.002722  0
C  C123  1  0.84724535  0.39421493  0.20828835  1  -0.092009  0  -0.088918  -0.114341  0  4.001791  0
C  C124  1  0.15274474  0.60582476  0.79180785  1  -0.013883  0  -0.089305  -0.114688  0  4.002295  0
C  C125  1  0.70564597  0.80900159  0.91933130  1  -0.012662  0  -0.091545  -0.115379  0  4.007301  0
C  C126  1  0.14909125  0.86989455  0.26496944  1  0.495664  0  -0.007246  -0.058773  0  4.050495  0
C  C127  1  0.29444264  0.19090494  0.08060847  1  -0.013746  0  -0.091894  -0.116061  0  4.00834  0
C  C128  1  0.10498193  0.70625662  0.65978273  1  0.070144  0  0.014594  0.05043  0  3.950784  0
C  C129  1  0.89497720  0.29387005  0.34038534  1  0.032211  0  0.014651  0.050445  0  3.950286  0
C  C130  1  0.24585384  0.09229378  0.21371425  1  0.035595  0  0.015361  0.052749  0  3.959055  0
C  C131  1  0.75419633  0.90767238  0.78626067  1  0.03315  0  0.015044  0.052168  0  3.958908  0
C  C132  1  0.74465599  0.40785317  0.28675553  1  0.028404  0  0.015225  0.051445  0  3.958438  0
C  C133  1  0.25530757  0.59222728  0.71331758  1  0.030048  0  0.015788  0.052062  0  3.958688  0
C  C134  1  0.60417814  0.79340668  0.83992296  1  0.025614  0  0.015663  0.05135  0  3.94924  0
C  C135  1  0.39588055  0.20656204  0.16005886  1  0.025109  0  0.015517  0.050967  0  3.949859  0
C  C136  1  0.14094049  0.65873601  0.69494455  1  0.015982  0  -0.012031  0.031345  0  3.996499  0
C  C137  1  0.35158398  0.36975576  0.76443693  1  0.458978  0  -0.006431  -0.058403  0  4.050839  0
C  C138  1  0.85902372  0.34137730  0.30520093  1  0.015929  0  -0.011441  0.031551  0  3.998066  0
C  C139  1  0.28710965  0.13058231  0.17292244  1  0.101563  0  -0.013335  0.027173  0  4.003506  0
C  C140  1  0.71296033  0.86936495  0.82705580  1  0.103085  0  -0.013413  0.027114  0  4.003543  0
C  C141  1  0.78588750  0.36948468  0.32750288  1  0.039098  0  -0.013253  0.027956  0  4.001984  0
C  C142  1  0.21406871  0.63061241  0.67260270  1  0.041486  0  -0.01302  0.028201  0  4.002696  0
C  C143  1  0.64013634  0.84070245  0.80449788  1  -0.00885  0  -0.011482  0.032754  0  3.995957  0
C  C144  1  0.35992976  0.15927047  0.19549578  1  -0.006977  0  -0.011528  0.032926  0  3.995655  0
C  C145  1  0.03951358  0.81462773  0.57234745  1  0.389354  0  0.008161  -0.047342  0  3.980178  0
C  C146  1  0.96043802  0.18544336  0.42770003  1  0.38792  0  0.008021  -0.04787  0  3.981269  0
C  C147  1  0.14972122  0.08159077  0.34131407  1  0.461069  0  0.010733  -0.041383  0  3.997482  0
C  C148  1  0.64841442  0.63033592  0.23552229  1  0.46282  0  -0.006688  -0.058333  0  4.050863  0
C  C149  1  0.85024031  0.91839014  0.65864026  1  0.468028  0  0.010767  -0.04135  0  3.997532  0
C  C150  1  0.64939895  0.41881102  0.15893666  1  0.482999  0  0.010978  -0.041666  0  3.997796  0
C  C151  1  0.35061326  0.58119953  0.84109256  1  0.481472  0  0.010854  -0.041484  0  3.997109  0
C  C152  1  0.53875966  0.68578132  0.92821768  1  0.389911  0  0.008307  -0.047114  0  3.980887  0
C  C153  1  0.46129959  0.31418455  0.07176519  1  0.393526  0  0.00842  -0.046731  0  3.981595  0
C  C154  1  0.75618137  0.98087447  0.62808211  1  0.429211  0  0.017804  -0.029637  0  3.954343  0
C  C155  1  0.24379110  0.01914469  0.37190477  1  0.427645  0  0.017907  -0.029361  0  3.954443  0
C  C156  1  0.84139902  0.17325645  0.45746293  1  0.408259  0  0.016673  -0.04071  0  3.956404  0
C  C157  1  0.15857585  0.82682074  0.54266435  1  0.410198  0  0.016545  -0.040653  0  3.957119  0
C  C158  1  0.34218531  0.32593158  0.04200423  1  0.396738  0  0.016876  -0.038681  0  3.95494  0
C  C159  1  0.44490277  0.58015254  0.12975895  1  0.405688  0  0.030318  0.004999  0  3.88563  0
C  C160  1  0.65789308  0.67397801  0.95792159  1  0.410442  0  0.016739  -0.039082  0  3.954811  0
C  C161  1  0.25667420  0.51822713  0.87114194  1  0.412775  0  0.018282  -0.028172  0  3.953864  0
C  C162  1  0.74334473  0.48175792  0.12887037  1  0.41404  0  0.018472  -0.028214  0  3.953605  0
C  C163  1  0.18577928  0.82655042  0.35126096  1  0.312732  0  -0.02573  -0.094305  0  4.057574  0
C  C164  1  0.81420580  0.17337728  0.64880950  1  0.318425  0  -0.025254  -0.093772  0  4.056667  0
C  C165  1  0.13793309  0.08823847  0.55099790  1  0.346274  0  0.005054  -0.047913  0  3.961099  0
C  C166  1  0.86196021  0.91187612  0.44896292  1  0.416348  0  0.005358  -0.048474  0  3.962329  0
C  C167  1  0.63860280  0.41240611  0.94906014  1  0.374336  0  0.005837  -0.048292  0  3.961842  0
C  C168  1  0.36141872  0.58751309  0.05091863  1  0.371785  0  0.006397  -0.04793  0  3.9613  0
C  C169  1  0.68520665  0.67366570  0.14923515  1  0.315826  0  -0.025875  -0.095171  0  4.057965  0
C  C170  1  0.55514941  0.41975145  0.87020321  1  0.408625  0  0.02981  0.004126  0  3.886116  0
C  C171  1  0.31475977  0.32639035  0.85069594  1  0.3155  0  -0.025579  -0.094542  0  4.059344  0
C  C172  1  0.88013978  0.88222445  0.38386795  1  -0.003426  0  -0.02928  -0.018927  0  4.043723  0
C  C173  1  0.11969973  0.11794163  0.61607803  1  0.066377  0  -0.02898  -0.019415  0  4.042782  0
C  C174  1  0.80005349  0.17917580  0.71638604  1  0.036288  0  -0.057602  -0.061704  0  4.129199  0
C  C175  1  0.19994605  0.82067624  0.28367837  1  0.029807  0  -0.057207  -0.06205  0  4.128031  0
C  C176  1  0.30053872  0.32069409  0.78315197  1  0.012594  0  -0.05737  -0.061329  0  4.1307  0
C  C177  1  0.69942221  0.67940540  0.21678874  1  0.008501  0  -0.057543  -0.061421  0  4.131561  0
C  C178  1  0.37957190  0.61712055  0.11603349  1  0.002933  0  -0.030104  -0.019128  0  4.044773  0
C  C179  1  0.62042202  0.38273609  0.88396680  1  0.001491  0  -0.029408  -0.01842  0  4.044417  0
C  C180  1  0.11169368  0.78410216  0.57417162  1  0.044925  0  -0.033888  -0.026891  0  4.068169  0
C  C181  1  0.36573312  0.74166412  0.20547257  1  0.136018  0  0.019299  0.126394  0  3.706265  0
C  C182  1  0.88826935  0.21599894  0.42596317  1  0.047574  0  -0.034259  -0.026957  0  4.068217  0
C  C183  1  0.22465964  0.06014481  0.32491874  1  -0.011827  0  -0.035592  -0.030543  0  4.074573  0
C  C184  1  0.77532705  0.93987220  0.67506568  1  -0.012881  0  -0.035733  -0.03058  0  4.074713  0
C  C185  1  0.72413111  0.44059458  0.17570049  1  -0.010619  0  -0.036813  -0.032846  0  4.077315  0
C  C186  1  0.27588051  0.55941307  0.82432729  1  -0.009071  0  -0.036843  -0.033121  0  4.077723  0
C  C187  1  0.61084116  0.71642109  0.92624067  1  0.023446  0  -0.034633  -0.028491  0  4.069173  0
C  C188  1  0.38922763  0.28350709  0.07370566  1  0.034742  0  -0.034745  -0.028608  0  4.069368  0
C  C189  1  0.31594375  0.72722991  0.26434776  1  -0.043249  0  -0.083116  -0.121495  0  3.65511  0
C  C190  1  0.68429153  0.27280827  0.73565457  1  -0.044947  0  -0.083656  -0.120734  0  3.654873  0
C  C191  1  0.23067276  0.21460127  0.63619264  1  -0.070631  0  -0.085164  -0.125981  0  3.662737  0
N  N192  1  0.96425423  0.96720877  0.42376139  1  -0.833111  0  -0.286639  -0.187613  0  3.582392  0
N  N193  1  0.95618278  0.12918122  0.45686797  1  -0.80251  0  -0.285937  -0.167966  0  3.581956  0
N  N194  1  0.12701137  0.05592452  0.39397589  1  -0.818179  0  -0.293562  -0.183229  0  3.665262  0
N  N195  1  0.87294340  0.94407175  0.60598014  1  -0.8169  0  -0.293444  -0.183096  0  3.665125  0
N  N196  1  0.62689451  0.44439753  0.10617422  1  -0.820037  0  -0.293368  -0.182449  0  3.663949  0
N  N197  1  0.37314194  0.55555997  0.89382370  1  -0.821603  0  -0.293332  -0.182487  0  3.663054  0
N  N198  1  0.54323238  0.62966268  0.95758220  1  -0.808316  0  -0.286008  -0.168357  0  3.583163  0
N  N199  1  0.45682906  0.37027735  0.04237532  1  -0.80798  0  -0.285989  -0.168278  0  3.583674  0
N  N200  1  0.81502409  0.98311465  0.58673394  1  -0.784306  0  -0.273072  -0.196092  0  3.528438  0
N  N201  1  0.18492963  0.01690418  0.41324202  1  -0.782587  0  -0.273211  -0.19658  0  3.529144  0
N  N202  1  0.88209355  0.12099382  0.47477330  1  -0.793251  0  -0.270244  -0.167109  0  3.546069  0
N  N203  1  0.03567867  0.03286144  0.57621810  1  -0.834222  0  -0.286614  -0.186996  0  3.582275  0
N  N204  1  0.11788293  0.87904277  0.52526339  1  -0.792479  0  -0.270474  -0.167713  0  3.546659  0
N  N205  1  0.38269672  0.37819249  0.02448455  1  -0.790283  0  -0.270429  -0.168466  0  3.547102  0
N  N206  1  0.61736471  0.62174464  0.97547154  1  -0.790259  0  -0.270279  -0.168135  0  3.547481  0
N  N207  1  0.31529416  0.51620606  0.91274211  1  -0.783878  0  -0.273049  -0.196942  0  3.528662  0
N  N208  1  0.68474001  0.48374617  0.08724847  1  -0.784619  0  -0.273518  -0.197302  0  3.529042  0
N  N209  1  0.13071583  0.87578138  0.37005478  1  -0.817615  0  -0.302622  -0.220861  0  3.65982  0
N  N210  1  0.86931211  0.12418751  0.62997967  1  -0.816606  0  -0.302607  -0.220853  0  3.658868  0
N  N211  1  0.08738537  0.03632066  0.52633452  1  -0.855868  0  -0.305216  -0.246893  0  3.616268  0
N  N212  1  0.91255711  0.96373285  0.47364875  1  -0.855817  0  -0.30499  -0.245635  0  3.61613  0
N  N213  1  0.58795172  0.46424183  0.97376806  1  -0.848912  0  -0.306036  -0.24567  0  3.615178  0
N  N214  1  0.89140098  0.09669580  0.68332645  1  -0.730141  0  -0.262627  -0.222565  0  3.322624  0
N  N215  1  0.41210461  0.53570127  0.02619388  1  -0.848942  0  -0.306128  -0.245796  0  3.615387  0
N  N216  1  0.62992824  0.62464842  0.13047891  1  -0.81834  0  -0.301251  -0.2192  0  3.656925  0
N  N217  1  0.37009695  0.37532305  0.86946663  1  -0.818278  0  -0.301656  -0.21941  0  3.657561  0
N  N218  1  0.10862505  0.90321995  0.31667820  1  -0.726606  0  -0.262765  -0.223029  0  3.321361  0
N  N219  1  0.39226034  0.40280131  0.81612570  1  -0.723225  0  -0.263437  -0.223827  0  3.322115  0
N  N220  1  0.60779679  0.59719650  0.18384565  1  -0.722833  0  -0.263444  -0.223636  0  3.322072  0
N  N221  1  0.46379899  0.53225375  0.07605584  1  -0.828154  0  -0.286943  -0.189168  0  3.583193  0
N  N222  1  0.53625785  0.46767280  0.92389449  1  -0.830693  0  -0.28633  -0.188411  0  3.582108  0
N  N223  1  0.04378921  0.87086670  0.54315263  1  -0.803637  0  -0.285812  -0.167986  0  3.58217  0
Cl  Cl224  1  0.46103767  0.76720511  0.21165009  1  -0.232412  0  -0.054005  -0.13276  0  1.433857  0
Cl  Cl225  1  0.01962215  0.74340159  0.69199688  1  -0.228974  0  -0.001714  -0.08463  0  1.546667  0
Cl  Cl226  1  0.84182279  0.94270634  0.81457398  1  -0.223245  0  -0.003628  -0.083172  0  1.523782  0
Cl  Cl227  1  0.15826530  0.05721150  0.18536111  1  -0.222933  0  -0.003794  -0.083467  0  1.523718  0
Cl  Cl228  1  0.34331412  0.55788768  0.68524068  1  -0.225725  0  -0.004095  -0.083566  0  1.524049  0
Cl  Cl229  1  0.65661804  0.44215432  0.31478501  1  -0.224926  0  -0.003924  -0.083378  0  1.523777  0
Cl  Cl230  1  0.48086932  0.24439023  0.19241352  1  -0.229  0  -0.002411  -0.085339  0  1.546392  0
Cl  Cl231  1  0.51918263  0.75559752  0.80757937  1  -0.228569  0  -0.002407  -0.085388  0  1.546489  0
Cl  Cl232  1  0.53884899  0.23298950  0.78787339  1  -0.234026  0  -0.054172  -0.132948  0  1.433669  0
Cl  Cl233  1  0.37407531  0.17219127  0.68882540  1  -0.249472  0  -0.071368  -0.156793  0  1.415357  0
Cl  Cl234  1  0.62586697  0.82810454  0.31068825  1  -0.24875  0  -0.071438  -0.156815  0  1.415749  0
Cl  Cl235  1  0.87496066  0.32585468  0.81257047  1  -0.25318  0  -0.071463  -0.156785  0  1.415857  0
Cl  Cl236  1  0.12516602  0.67353500  0.18801375  1  -0.25186  0  -0.071354  -0.157046  0  1.414553  0
Cl  Cl237  1  0.96043557  0.73022887  0.29011943  1  -0.232052  0  -0.054964  -0.133273  0  1.429421  0
Cl  Cl238  1  0.03936887  0.26967508  0.71021018  1  -0.232685  0  -0.055016  -0.133441  0  1.43062  0
Cl  Cl239  1  0.98032667  0.25670413  0.30814676  1  -0.229067  0  -0.00192  -0.084796  0  1.54652  0
