# generated using pymatgen
data_Zn3H38C60(N3O7)2
_symmetry_space_group_name_H-M   'P 1'
_cell_length_a   14.61400890
_cell_length_b   16.21045345
_cell_length_c   16.59347142
_cell_angle_alpha   116.47382985
_cell_angle_beta   90.00520106
_cell_angle_gamma   116.77797998
_symmetry_Int_Tables_number   1
_chemical_formula_structural   Zn3H38C60(N3O7)2
_chemical_formula_sum   'Zn6 H76 C120 N12 O28'
_cell_volume   3040.49805195
_cell_formula_units_Z   2
loop_
 _symmetry_equiv_pos_site_id
 _symmetry_equiv_pos_as_xyz
  1  'x, y, z'
loop_
 _atom_site_type_symbol
 _atom_site_label
 _atom_site_symmetry_multiplicity
 _atom_site_fract_x
 _atom_site_fract_y
 _atom_site_fract_z
 _atom_site_occupancy
 _atom_site_pbe_bader_charge
 _atom_site_pbe_bader_spin_density
 _atom_site_pbe_cm5_charge
 _atom_site_pbe_ddec_charge
 _atom_site_pbe_ddec_spin_density
 _atom_site_pbe_ddec_sum_bond_order
 _atom_site_pbe_magmom
Zn  Zn0  1  0.44292245  0.27841475  0.31496696  1  1.243632  0  0.705707  0.751561  0  2.414838  0
Zn  Zn1  1  0.16458601  0.72184043  0.18497903  1  1.241402  0  0.705448  0.751629  0  2.412277  0
Zn  Zn2  1  0.55707827  0.72158518  0.68503338  1  1.24364  0  0.70571  0.751584  0  2.414856  0
Zn  Zn3  1  0.83541756  0.27816109  0.81502079  1  1.241373  0  0.705516  0.751696  0  2.412258  0
Zn  Zn4  1  0.21945898  0.00013080  0.74998963  1  1.256637  0  0.686869  0.767719  0  2.329108  0
Zn  Zn5  1  0.78054248  0.99987470  0.25001011  1  1.25684  0  0.686866  0.767726  0  2.329156  0
H  H6  1  0.49124785  0.29767589  0.80116532  1  0.075506  0  0.105147  0.111521  0  0.997463  0
H  H7  1  0.19371464  0.70246487  0.69867874  1  0.07611  0  0.104931  0.111136  0  0.997433  0
H  H8  1  0.50876170  0.70232802  0.19883554  1  0.075498  0  0.105166  0.11154  0  0.997337  0
H  H9  1  0.80626220  0.29752150  0.30131392  1  0.075865  0  0.105014  0.111206  0  0.997438  0
H  H10  1  0.61678182  0.44958644  0.77794334  1  0.075791  0  0.099342  0.104626  0  1.059038  0
H  H11  1  0.16718145  0.55047193  0.72191413  1  0.075885  0  0.099509  0.105101  0  1.058994  0
H  H12  1  0.38322437  0.55041348  0.22205398  1  0.075974  0  0.09934  0.104605  0  1.059067  0
H  H13  1  0.83279984  0.44951924  0.27808483  1  0.075658  0  0.099491  0.105025  0  1.059072  0
H  H14  1  0.35449347  0.10095619  0.50723166  1  0.080476  0  0.103682  0.113732  0  1.00457  0
H  H15  1  0.25323977  0.89906697  0.99257713  1  0.093504  0  0.103559  0.113397  0  1.005102  0
H  H16  1  0.64550499  0.89904057  0.49277152  1  0.080618  0  0.103672  0.113741  0  1.004624  0
H  H17  1  0.74676163  0.10093294  0.00741838  1  0.093403  0  0.103585  0.113461  0  1.005011  0
H  H18  1  0.77806527  0.39804561  0.61861841  1  0.083191  0  0.108268  0.125276  0  0.992193  0
H  H19  1  0.38004253  0.60198285  0.88116366  1  0.090703  0  0.107983  0.124578  0  0.99286  0
H  H20  1  0.22192873  0.60194634  0.38137667  1  0.083332  0  0.108235  0.12527  0  0.992208  0
H  H21  1  0.61995347  0.39802269  0.11884333  1  0.090778  0  0.108008  0.124553  0  0.992849  0
H  H22  1  0.96013206  0.52601507  0.72439839  1  0.10276  0  0.097086  0.105941  0  1.027702  0
H  H23  1  0.43399241  0.47394492  0.77524879  1  0.089296  0  0.097171  0.106297  0  1.02829  0
H  H24  1  0.03986309  0.47397370  0.27559832  1  0.102559  0  0.097089  0.105852  0  1.027823  0
H  H25  1  0.56601276  0.52606937  0.22475777  1  0.089341  0  0.097189  0.106253  0  1.02839  0
H  H26  1  0.00863192  0.71321633  0.83929262  1  0.062895  0  0.098356  0.102485  0  1.017875  0
H  H27  1  0.29527587  0.28682497  0.66030178  1  0.081254  0  0.098628  0.102874  0  1.018654  0
H  H28  1  0.99136783  0.28677482  0.16070332  1  0.062875  0  0.098362  0.102466  0  1.017878  0
H  H29  1  0.70473612  0.71318929  0.33969934  1  0.080993  0  0.098649  0.102909  0  1.018668  0
H  H30  1  0.87389744  0.76922081  0.85037952  1  0.065546  0  0.104121  0.10598  0  0.986337  0
H  H31  1  0.10459957  0.23078935  0.64964430  1  0.069605  0  0.104179  0.106142  0  0.986587  0
H  H32  1  0.12610431  0.23077434  0.14961814  1  0.065395  0  0.104125  0.10597  0  0.986368  0
H  H33  1  0.89541056  0.76921297  0.35035587  1  0.069488  0  0.104202  0.10617  0  0.986671  0
H  H34  1  0.66436276  0.33676217  0.34805029  1  0.151663  0  0.121192  0.092251  0  1.013557  0
H  H35  1  0.32779354  0.66319961  0.15200192  1  0.14647  0  0.121067  0.092362  0  1.013436  0
H  H36  1  0.33563791  0.66324175  0.65195178  1  0.151588  0  0.121192  0.092227  0  1.013582  0
H  H37  1  0.67221294  0.33679952  0.84799808  1  0.146637  0  0.121054  0.092303  0  1.013523  0
H  H38  1  0.84059570  0.50022282  0.44103798  1  0.071055  0  0.117392  0.126033  0  0.976503  0
H  H39  1  0.34016652  0.49945954  0.05890124  1  0.066178  0  0.117389  0.126274  0  0.975861  0
H  H40  1  0.15940479  0.49978349  0.55896391  1  0.07106  0  0.117347  0.12601  0  0.976478  0
H  H41  1  0.65983642  0.50053799  0.94109505  1  0.066092  0  0.117371  0.126237  0  0.975823  0
H  H42  1  0.67981643  0.68253747  0.51641490  1  0.147112  0  0.112524  0.133485  0  1.029126  0
H  H43  1  0.99714559  0.31778525  0.98425921  1  0.160499  0  0.111988  0.133017  0  1.028133  0
H  H44  1  0.32017989  0.31746325  0.48358277  1  0.147388  0  0.112507  0.133421  0  1.029097  0
H  H45  1  0.00285496  0.68221709  0.01574337  1  0.160238  0  0.111983  0.13303  0  1.028109  0
H  H46  1  0.51236051  0.51301843  0.41772167  1  0.114274  0  0.118652  0.087105  0  1.017406  0
H  H47  1  0.99959719  0.48758970  0.08294238  1  0.122594  0  0.118529  0.087167  0  1.018067  0
H  H48  1  0.48763474  0.48698150  0.58227807  1  0.114292  0  0.118685  0.087131  0  1.017506  0
H  H49  1  0.00041055  0.51241743  0.91706589  1  0.122483  0  0.118514  0.087133  0  1.017999  0
H  H50  1  0.96916076  0.67314528  0.44179568  1  0.125101  0  0.106607  0.121612  0  1.035241  0
H  H51  1  0.29556014  0.32663192  0.05830120  1  0.12594  0  0.106317  0.121598  0  1.035948  0
H  H52  1  0.03083767  0.32686103  0.55820501  1  0.125257  0  0.106589  0.121575  0  1.035267  0
H  H53  1  0.70443512  0.67336802  0.94170156  1  0.125865  0  0.10627  0.121545  0  1.035998  0
H  H54  1  0.13680151  0.84257619  0.54825440  1  0.156045  0  0.12237  0.105472  0  0.995793  0
H  H55  1  0.29393033  0.15729502  0.95172452  1  0.144103  0  0.122138  0.105474  0  0.995823  0
H  H56  1  0.86319825  0.15742455  0.45174810  1  0.156038  0  0.122361  0.105494  0  0.995809  0
H  H57  1  0.70606413  0.84270333  0.04827876  1  0.144008  0  0.122119  0.105512  0  0.995753  0
H  H58  1  0.99071109  0.92075783  0.76118970  1  0.091486  0  0.119429  0.084043  0  0.992374  0
H  H59  1  0.06971945  0.07933818  0.73887150  1  0.087906  0  0.119578  0.084068  0  0.993015  0
H  H60  1  0.00928439  0.07924529  0.23881082  1  0.091585  0  0.119386  0.08398  0  0.992491  0
H  H61  1  0.93027587  0.92065777  0.26112953  1  0.08787  0  0.119576  0.084012  0  0.993062  0
H  H62  1  0.81376866  0.76060385  0.66212417  1  0.168332  0  0.109273  0.132432  0  1.044117  0
H  H63  1  0.05284542  0.23944899  0.83801438  1  0.163181  0  0.109165  0.132982  0  1.043705  0
H  H64  1  0.18622835  0.23939688  0.33787531  1  0.16848  0  0.109296  0.132474  0  1.044057  0
H  H65  1  0.94715393  0.76055094  0.16198415  1  0.163203  0  0.109185  0.133009  0  1.04368  0
H  H66  1  0.48231512  0.10120936  0.26662862  1  0.1342  0  0.11902  0.095467  0  1.028362  0
H  H67  1  0.38097781  0.89911511  0.23350025  1  0.140273  0  0.118762  0.095002  0  1.028135  0
H  H68  1  0.51768338  0.89879296  0.73337095  1  0.134597  0  0.11901  0.095441  0  1.028446  0
H  H69  1  0.61902919  0.10088643  0.76650440  1  0.140225  0  0.118737  0.094988  0  1.028083  0
H  H70  1  0.50547271  0.97107924  0.12809303  1  0.121939  0  0.118976  0.133385  0  0.992441  0
H  H71  1  0.53437665  0.02891907  0.37192684  1  0.127618  0  0.118961  0.133202  0  0.993029  0
H  H72  1  0.49453098  0.02892388  0.87190809  1  0.121797  0  0.119003  0.133485  0  0.992355  0
H  H73  1  0.46562420  0.97108249  0.62808083  1  0.12754  0  0.118972  0.133241  0  0.992883  0
H  H74  1  0.47555564  0.12786155  0.98359728  1  0.091377  0  0.118666  0.128885  0  0.996495  0
H  H75  1  0.34780551  0.87205596  0.51634237  1  0.128303  0  0.118451  0.129176  0  0.996473  0
H  H76  1  0.52444998  0.87213997  0.01640134  1  0.091437  0  0.118657  0.12891  0  0.996458  0
H  H77  1  0.65219403  0.12793202  0.48365521  1  0.128566  0  0.118468  0.12922  0  0.99647  0
H  H78  1  0.44523787  0.24525397  0.12679970  1  0.136309  0  0.119336  0.097106  0  1.021737  0
H  H79  1  0.20004439  0.75474887  0.37316748  1  0.148198  0  0.119413  0.097069  0  1.022352  0
H  H80  1  0.55476403  0.75474833  0.87319624  1  0.136372  0  0.119298  0.097055  0  1.021722  0
H  H81  1  0.79995759  0.24523989  0.62682682  1  0.148279  0  0.119371  0.096999  0  1.022498  0
C  C82  1  0.33997080  0.10052954  0.66829921  1  1.560241  0  0.185016  0.553669  0  4.255692  0
C  C83  1  0.23953356  0.89957342  0.83149843  1  1.555982  0  0.185738  0.556178  0  4.252301  0
C  C84  1  0.66003781  0.89947521  0.33170984  1  1.559238  0  0.184951  0.553513  0  4.256047  0
C  C85  1  0.76045804  0.10042332  0.16849993  1  1.555919  0  0.18576  0.556287  0  4.252087  0
C  C86  1  0.41686892  0.19005764  0.65530941  1  -0.015923  0  -0.029498  -0.051904  0  4.01945  0
C  C87  1  0.22675805  0.81000404  0.84452109  1  -0.026058  0  -0.030259  -0.054901  0  4.023309  0
C  C88  1  0.58313700  0.80994310  0.34469369  1  -0.015905  0  -0.029538  -0.051801  0  4.019379  0
C  C89  1  0.77323537  0.18998950  0.15547287  1  -0.026265  0  -0.030326  -0.054907  0  4.023298  0
C  C90  1  0.49111248  0.28814643  0.73185516  1  -0.121761  0  -0.08806  -0.081847  0  3.99794  0
C  C91  1  0.20299291  0.71193881  0.76798390  1  -0.035116  0  -0.08689  -0.07936  0  3.99751  0
C  C92  1  0.50889599  0.71185670  0.26814717  1  -0.12173  0  -0.088083  -0.081925  0  3.998019  0
C  C93  1  0.79699259  0.28805394  0.23201031  1  -0.034328  0  -0.087023  -0.079579  0  3.997729  0
C  C94  1  0.56091600  0.37176501  0.71914348  1  0.036035  0  -0.109068  -0.215611  0  4.045139  0
C  C95  1  0.18908254  0.62828641  0.78069518  1  8.3e-05  0  -0.109763  -0.217071  0  4.046733  0
C  C96  1  0.43908865  0.62823731  0.28085548  1  0.035878  0  -0.109058  -0.215514  0  4.045224  0
C  C97  1  0.81091003  0.37170953  0.21930102  1  0.000245  0  -0.109725  -0.216892  0  4.046855  0
C  C98  1  0.55867524  0.35700884  0.62937783  1  0.432149  0  0.089888  0.239047  0  4.012912  0
C  C99  1  0.20157826  0.64306257  0.87046748  1  0.396153  0  0.090309  0.23937  0  4.013273  0
C  C100  1  0.44132713  0.64299029  0.37061975  1  0.432163  0  0.089881  0.238961  0  4.013015  0
C  C101  1  0.79841813  0.35693417  0.12953027  1  0.396165  0  0.090297  0.239356  0  4.013436  0
C  C102  1  0.48536308  0.25915036  0.55164881  1  -0.022764  0  -0.024989  -0.126084  0  3.970652  0
C  C103  1  0.22600262  0.74089412  0.94819799  1  0.00046  0  -0.024613  -0.125197  0  3.970143  0
C  C104  1  0.51463627  0.74084957  0.44835093  1  -0.022846  0  -0.024996  -0.126082  0  3.970822  0
C  C105  1  0.77399838  0.25910500  0.05179778  1  0.000614  0  -0.024556  -0.125206  0  3.970094  0
C  C106  1  0.41355408  0.17726759  0.56599732  1  0.012324  0  -0.084544  -0.112789  0  3.973203  0
C  C107  1  0.23607704  0.82277968  0.93383802  1  -0.030862  0  -0.084476  -0.111707  0  3.973869  0
C  C108  1  0.58645086  0.82273394  0.43400552  1  0.012031  0  -0.084527  -0.112839  0  3.973196  0
C  C109  1  0.76392316  0.17721784  0.06615766  1  -0.031114  0  -0.084486  -0.111792  0  3.973777  0
C  C110  1  0.48742704  0.24073449  0.45458493  1  1.600053  0  0.205483  0.597661  0  4.218993  0
C  C111  1  0.24636928  0.75920200  0.04524551  1  1.609446  0  0.205291  0.597046  0  4.219802  0
C  C112  1  0.51257043  0.75926305  0.54541378  1  1.600315  0  0.205462  0.597614  0  4.219034  0
C  C113  1  0.75363584  0.24079713  0.95475328  1  1.609346  0  0.205187  0.597053  0  4.22008  0
C  C114  1  0.72581321  0.51204966  0.67683816  1  0.33881  0  0.077297  0.214935  0  4.030257  0
C  C115  1  0.21375353  0.48801289  0.82309714  1  0.392053  0  0.077958  0.21621  0  4.027736  0
C  C116  1  0.27418431  0.48794388  0.32315640  1  0.338976  0  0.07728  0.214863  0  4.030251  0
C  C117  1  0.78624703  0.51198945  0.17690726  1  0.392019  0  0.07793  0.21605  0  4.027706  0
C  C118  1  0.80059885  0.47968590  0.67011879  1  -0.044609  0  -0.098836  -0.189432  0  3.997738  0
C  C119  1  0.32087417  0.52034106  0.82970940  1  -0.044613  0  -0.098465  -0.18836  0  3.996535  0
C  C120  1  0.19939515  0.52030605  0.32987689  1  -0.044568  0  -0.098724  -0.189357  0  3.997678  0
C  C121  1  0.67912525  0.47966448  0.17029698  1  -0.044535  0  -0.098389  -0.188134  0  3.996353  0
C  C122  1  0.90231400  0.55192953  0.72894716  1  -0.071391  0  -0.093665  -0.06746  0  4.008656  0
C  C123  1  0.35027565  0.44805356  0.77078824  1  -0.039068  0  -0.093724  -0.068427  0  4.011053  0
C  C124  1  0.09768086  0.44806003  0.27104869  1  -0.071362  0  -0.093668  -0.067355  0  4.008757  0
C  C125  1  0.64972810  0.55195515  0.22921771  1  -0.039362  0  -0.093969  -0.068821  0  4.011426  0
C  C126  1  0.92896947  0.65641451  0.79362166  1  0.02964  0  -0.099139  -0.094473  0  4.022268  0
C  C127  1  0.27245272  0.34359300  0.70612651  1  -0.065123  0  -0.099052  -0.094003  0  4.022207  0
C  C128  1  0.07102755  0.34357665  0.20637427  1  0.029654  0  -0.099196  -0.094437  0  4.02234  0
C  C129  1  0.72755455  0.65641729  0.29387530  1  -0.064928  0  -0.098868  -0.093679  0  4.022349  0
C  C130  1  0.85359967  0.68790267  0.79980277  1  -0.041076  0  -0.092205  -0.103574  0  4.012162  0
C  C131  1  0.16562961  0.31210910  0.70016067  1  -0.012935  0  -0.092874  -0.104692  0  4.012747  0
C  C132  1  0.14639774  0.31208928  0.20019231  1  -0.040755  0  -0.092213  -0.103682  0  4.012257  0
C  C133  1  0.83437710  0.68789323  0.29984131  1  -0.012187  0  -0.092979  -0.104898  0  4.013121  0
C  C134  1  0.75062305  0.61566098  0.74191593  1  0.019433  0  -0.022945  -0.127449  0  3.98064  0
C  C135  1  0.13492895  0.38435612  0.75815968  1  0.003999  0  -0.023066  -0.12772  0  3.981551  0
C  C136  1  0.24937351  0.38433336  0.25807958  1  0.01911  0  -0.022988  -0.127421  0  3.980644  0
C  C137  1  0.86507423  0.61564462  0.24184161  1  0.00356  0  -0.023031  -0.127422  0  3.981456  0
C  C138  1  0.66866664  0.64912186  0.75041120  1  1.595179  0  0.209738  0.593581  0  4.224622  0
C  C139  1  0.01952885  0.35091440  0.74986022  1  1.588203  0  0.210266  0.593858  0  4.22659  0
C  C140  1  0.33133060  0.35087248  0.24958431  1  1.595712  0  0.209837  0.59368  0  4.224693  0
C  C141  1  0.98047371  0.64908235  0.25014055  1  1.588189  0  0.210165  0.593571  0  4.226897  0
C  C142  1  0.67241288  0.41541694  0.38487732  1  0.440265  0  0.05292  0.105709  0  3.937648  0
C  C143  1  0.25709492  0.58463579  0.11526304  1  0.46767  0  0.053732  0.106955  0  3.936864  0
C  C144  1  0.32758601  0.58458619  0.61512561  1  0.44075  0  0.052928  0.105761  0  3.937696  0
C  C145  1  0.74291167  0.41536494  0.88473644  1  0.467278  0  0.053708  0.106965  0  3.937004  0
C  C146  1  0.76986245  0.50661366  0.43676896  1  -0.013389  0  -0.073173  -0.159288  0  3.918211  0
C  C147  1  0.26315094  0.49329691  0.06334283  1  0.02067  0  -0.072778  -0.158957  0  3.916201  0
C  C148  1  0.23013764  0.49339186  0.56323259  1  -0.014199  0  -0.07314  -0.159399  0  3.918178  0
C  C149  1  0.73685183  0.50670300  0.93665329  1  0.020951  0  -0.072748  -0.158898  0  3.915965  0
C  C150  1  0.77530070  0.60545247  0.48597875  1  -0.01772  0  0.023076  0.119014  0  3.957756  0
C  C151  1  0.16964574  0.39455784  0.01427341  1  -0.034024  0  0.022817  0.118208  0  3.956173  0
C  C152  1  0.22469871  0.39455304  0.51402098  1  -0.017787  0  0.023126  0.119177  0  3.957677  0
C  C153  1  0.83035550  0.60544448  0.98572676  1  -0.034318  0  0.022809  0.118228  0  3.956094  0
C  C154  1  0.68114817  0.60825028  0.47977153  1  0.013088  0  -0.072503  -0.15646  0  3.900375  0
C  C155  1  0.07282739  0.39200367  0.02070519  1  0.050369  0  -0.072292  -0.155648  0  3.898078  0
C  C156  1  0.31884976  0.39175364  0.52023054  1  0.013153  0  -0.072501  -0.156351  0  3.900252  0
C  C157  1  0.92717463  0.60800024  0.97929446  1  0.050498  0  -0.07226  -0.155685  0  3.898049  0
C  C158  1  0.58695402  0.51380204  0.42520952  1  0.480151  0  0.053099  0.105245  0  3.919449  0
C  C159  1  0.07327542  0.48656870  0.07528938  1  0.420231  0  0.05391  0.105509  0  3.920418  0
C  C160  1  0.41304585  0.48620028  0.57479064  1  0.480069  0  0.053107  0.105144  0  3.919417  0
C  C161  1  0.92673112  0.51343602  0.92471303  1  0.420602  0  0.053914  0.105553  0  3.920392  0
C  C162  1  0.87719900  0.70350300  0.54405648  1  -0.032503  0  0.019008  0.111516  0  3.965038  0
C  C163  1  0.17327907  0.29637186  0.95606887  1  -0.049193  0  0.017996  0.112322  0  3.962972  0
C  C164  1  0.12280040  0.29650250  0.45594265  1  -0.03214  0  0.01889  0.111426  0  3.965044  0
C  C165  1  0.82672148  0.70363046  0.04393130  1  -0.049299  0  0.018057  0.112319  0  3.963116  0
C  C166  1  0.96961869  0.72566314  0.51202516  1  -0.005827  0  -0.077526  -0.173144  0  3.920569  0
C  C167  1  0.24347393  0.27412281  0.98806385  1  -0.001774  0  -0.077006  -0.174082  0  3.922795  0
C  C168  1  0.03038072  0.27434237  0.48797458  1  -0.006277  0  -0.077493  -0.173051  0  3.920504  0
C  C169  1  0.75652503  0.72587633  0.01193675  1  -0.0015  0  -0.077019  -0.174053  0  3.922741  0
C  C170  1  0.06343598  0.81907526  0.57037868  1  0.461643  0  0.053219  0.111289  0  3.910358  0
C  C171  1  0.24399270  0.18077083  0.92965986  1  0.444335  0  0.052986  0.110794  0  3.910634  0
C  C172  1  0.93656274  0.18093025  0.42962227  1  0.461605  0  0.053143  0.111117  0  3.910302  0
C  C173  1  0.75600204  0.81922673  0.07034307  1  0.438787  0  0.053053  0.110798  0  3.910364  0
C  C174  1  0.98150542  0.86515068  0.68911294  1  0.459899  0  0.048982  0.089663  0  3.965781  0
C  C175  1  0.11607099  0.13486732  0.81094426  1  0.453596  0  0.048895  0.08963  0  3.964644  0
C  C176  1  0.01849181  0.13485323  0.31088611  1  0.460055  0  0.049033  0.0898  0  3.965786  0
C  C177  1  0.88392610  0.86512944  0.18905832  1  0.45361  0  0.048907  0.089755  0  3.964696  0
C  C178  1  0.88363792  0.77614477  0.63429548  1  -0.033297  0  -0.079818  -0.164254  0  3.910207  0
C  C179  1  0.10710203  0.22380905  0.86582314  1  -0.026769  0  -0.079096  -0.164724  0  3.90766  0
C  C180  1  0.11635794  0.22385914  0.36570236  1  -0.03361  0  -0.079774  -0.164303  0  3.91011  0
C  C181  1  0.89289692  0.77619009  0.13417625  1  -0.02682  0  -0.079124  -0.164767  0  3.907749  0
C  C182  1  0.47800614  0.10064793  0.20080558  1  0.44018  0  0.05025  0.094571  0  3.927287  0
C  C183  1  0.37732326  0.89953020  0.29926624  1  0.459508  0  0.050589  0.095174  0  3.927217  0
C  C184  1  0.52199754  0.89935518  0.79919313  1  0.439585  0  0.050279  0.09458  0  3.927327  0
C  C185  1  0.62268169  0.10047134  0.70073781  1  0.459499  0  0.05055  0.095155  0  3.927006  0
C  C186  1  0.49302175  0.03025753  0.12344462  1  -0.009449  0  -0.069388  -0.150197  0  3.906589  0
C  C187  1  0.46276762  0.96980192  0.37658216  1  -0.049068  0  -0.069397  -0.150315  0  3.905818  0
C  C188  1  0.50698125  0.96974558  0.87655409  1  -0.009376  0  -0.069445  -0.15027  0  3.906519  0
C  C189  1  0.53723197  0.03020123  0.62342379  1  -0.048919  0  -0.069443  -0.150426  0  3.905635  0
C  C190  1  0.49214616  0.03690696  0.04192331  1  0.002489  0  0.025182  0.108811  0  3.944697  0
C  C191  1  0.45526418  0.96310029  0.45807873  1  0.006334  0  0.02538  0.109795  0  3.945094  0
C  C192  1  0.50785781  0.96309536  0.95807626  1  0.035338  0  0.025268  0.108854  0  3.944749  0
C  C193  1  0.54473530  0.03690125  0.54192592  1  0.055233  0  0.025425  0.110006  0  3.945165  0
C  C194  1  0.47593923  0.11660673  0.04341411  1  0.042844  0  -0.064493  -0.136632  0  3.901316  0
C  C195  1  0.35940075  0.88336534  0.45654962  1  -0.017036  0  -0.064859  -0.138508  0  3.902471  0
C  C196  1  0.52406325  0.88339399  0.95658416  1  0.042467  0  -0.064516  -0.136698  0  3.901442  0
C  C197  1  0.64059895  0.11662982  0.54345107  1  -0.017351  0  -0.064923  -0.138676  0  3.902577  0
C  C198  1  0.45985075  0.18330521  0.12281821  1  0.4349  0  0.053253  0.096418  0  3.916063  0
C  C199  1  0.27658696  0.81672316  0.37717625  1  0.449935  0  0.053772  0.098112  0  3.915217  0
C  C200  1  0.54015236  0.81669950  0.87718179  1  0.434755  0  0.053273  0.096477  0  3.916072  0
C  C201  1  0.72341713  0.18327119  0.62282167  1  0.449505  0  0.053861  0.098239  0  3.915156  0
N  N202  1  0.58238761  0.41879862  0.37906711  1  -1.272708  0  -0.333319  -0.240227  0  3.593974  0
N  N203  1  0.16379505  0.58148745  0.12120626  1  -1.274262  0  -0.3347  -0.242359  0  3.597004  0
N  N204  1  0.41761021  0.58120370  0.62093367  1  -1.272632  0  -0.333374  -0.240225  0  3.593966  0
N  N205  1  0.83621353  0.41851727  0.87879555  1  -1.274032  0  -0.334733  -0.242386  0  3.597298  0
N  N206  1  0.46087670  0.17560864  0.20047390  1  -1.263007  0  -0.334762  -0.233969  0  3.614572  0
N  N207  1  0.28523504  0.82459855  0.29959898  1  -1.27087  0  -0.334806  -0.235056  0  3.614326  0
N  N208  1  0.53912373  0.82439208  0.79952256  1  -1.262958  0  -0.334778  -0.234024  0  3.614618  0
N  N209  1  0.71477098  0.17540378  0.70040361  1  -1.270616  0  -0.33479  -0.235086  0  3.614209  0
N  N210  1  0.06983378  0.88738609  0.65785645  1  -1.255328  0  -0.326432  -0.236675  0  3.576435  0
N  N211  1  0.18217400  0.11256520  0.84213446  1  -1.235092  0  -0.326384  -0.236045  0  3.57345  0
N  N212  1  0.93016238  0.11261702  0.34214225  1  -1.255363  0  -0.326374  -0.236624  0  3.576319  0
N  N213  1  0.81782525  0.88743315  0.15786700  1  -1.229529  0  -0.32641  -0.236104  0  3.573479  0
O  O214  1  0.26645601  0.01662546  0.60081483  1  -1.191946  0  -0.338368  -0.578211  0  2.133506  0
O  O215  1  0.24979401  0.98347075  0.89892257  1  -1.193694  0  -0.338465  -0.578933  0  2.132895  0
O  O216  1  0.73355123  0.98337930  0.39919785  1  -1.19113  0  -0.338337  -0.578191  0  2.133758  0
O  O217  1  0.75020227  0.01652441  0.10107751  1  -1.193606  0  -0.338471  -0.578998  0  2.132772  0
O  O218  1  0.35284133  0.11582615  0.75223845  1  -1.165894  0  -0.345474  -0.557403  0  2.266291  0
O  O219  1  0.23738413  0.88439567  0.74761772  1  -1.162169  0  -0.346011  -0.558988  0  2.264962  0
O  O220  1  0.64716613  0.88418178  0.24777199  1  -1.16581  0  -0.34539  -0.557272  0  2.266428  0
O  O221  1  0.76260718  0.11560187  0.25237978  1  -1.162302  0  -0.345985  -0.558999  0  2.264985  0
O  O222  1  0.67125876  0.69491022  0.70247485  1  -1.170082  0  -0.326928  -0.544209  0  2.347683  0
O  O223  1  0.97650379  0.30529871  0.79794636  1  -1.173859  0  -0.327048  -0.54409  0  2.348174  0
O  O224  1  0.32873757  0.30508092  0.29751686  1  -1.170624  0  -0.326945  -0.544219  0  2.347729  0
O  O225  1  0.02350110  0.69470683  0.20206123  1  -1.17377  0  -0.327071  -0.544112  0  2.348251  0
O  O226  1  0.60693711  0.63310691  0.80055477  1  -1.168359  0  -0.311378  -0.54105  0  2.115687  0
O  O227  1  0.97367584  0.36681116  0.69969326  1  -1.165236  0  -0.311623  -0.541285  0  2.116785  0
O  O228  1  0.39305877  0.36688742  0.19943893  1  -1.168375  0  -0.311389  -0.541056  0  2.115722  0
O  O229  1  0.02632535  0.63318559  0.30030691  1  -1.165414  0  -0.31152  -0.541132  0  2.116942  0
O  O230  1  0.62508445  0.43996310  0.61483499  1  -1.092332  0  -0.159568  -0.22918  0  2.552655  0
O  O231  1  0.18514250  0.56015519  0.88505850  1  -1.099222  0  -0.160459  -0.230427  0  2.553566  0
O  O232  1  0.37491467  0.56003363  0.38516156  1  -1.09227  0  -0.159618  -0.229207  0  2.552616  0
O  O233  1  0.81484978  0.43984156  0.11494046  1  -1.099101  0  -0.160412  -0.230332  0  2.553668  0
O  O234  1  0.41144356  0.24039748  0.41332324  1  -1.166948  0  -0.338547  -0.555486  0  2.288946  0
O  O235  1  0.17089252  0.75992758  0.08663395  1  -1.172656  0  -0.338025  -0.555212  0  2.28838  0
O  O236  1  0.58855591  0.75960405  0.58667780  1  -1.166949  0  -0.338523  -0.555459  0  2.288961  0
O  O237  1  0.82910997  0.24007314  0.91336492  1  -1.172325  0  -0.338023  -0.555193  0  2.288418  0
O  O238  1  0.55864003  0.22688335  0.42023056  1  -1.168372  0  -0.319923  -0.555787  0  2.110248  0
O  O239  1  0.33121385  0.77253799  0.07944982  1  -1.16983  0  -0.32053  -0.556063  0  2.109901  0
O  O240  1  0.44135921  0.77311498  0.57976788  1  -1.16852  0  -0.319914  -0.55576  0  2.110252  0
O  O241  1  0.66879165  0.22746193  0.92054810  1  -1.170081  0  -0.320483  -0.556088  0  2.110105  0
