# generated using pymatgen
data_AgH5C6(NO)2
_symmetry_space_group_name_H-M   'P 1'
_cell_length_a   9.44259274
_cell_length_b   10.12605162
_cell_length_c   13.69658813
_cell_angle_alpha   90.00022336
_cell_angle_beta   100.27756497
_cell_angle_gamma   89.99991069
_symmetry_Int_Tables_number   1
_chemical_formula_structural   AgH5C6(NO)2
_chemical_formula_sum   'Ag8 H40 C48 N16 O16'
_cell_volume   1288.60264447
_cell_formula_units_Z   8
loop_
 _symmetry_equiv_pos_site_id
 _symmetry_equiv_pos_as_xyz
  1  'x, y, z'
loop_
 _atom_site_type_symbol
 _atom_site_label
 _atom_site_symmetry_multiplicity
 _atom_site_fract_x
 _atom_site_fract_y
 _atom_site_fract_z
 _atom_site_occupancy
 _atom_site_hle17_bader_spin_density
 _atom_site_hle17_ddec_charge
 _atom_site_hle17_ddec_spin_density
 _atom_site_hle17_ddec_sum_bond_order
 _atom_site_hle17_magmom
 _atom_site_hse06_10hf_bader_spin_density
 _atom_site_hse06_10hf_ddec_charge
 _atom_site_hse06_10hf_ddec_spin_density
 _atom_site_hse06_10hf_ddec_sum_bond_order
 _atom_site_hse06_10hf_magmom
 _atom_site_hse06_bader_spin_density
 _atom_site_hse06_ddec_charge
 _atom_site_hse06_ddec_spin_density
 _atom_site_hse06_ddec_sum_bond_order
 _atom_site_hse06_magmom
 _atom_site_pbe_bader_spin_density
 _atom_site_pbe_cm5_charge
 _atom_site_pbe_ddec_charge
 _atom_site_pbe_ddec_spin_density
 _atom_site_pbe_ddec_sum_bond_order
 _atom_site_pbe_magmom
Ag  Ag0  1  0.42880255  0.38043558  0.13402306  1  0  0.570082  0  1.396447  0  0  0.443104  0  1.834077  0  0  0.471509  0  1.785721  0  0  0.475132  0.422662  0  1.86878  0
Ag  Ag1  1  0.07119208  0.88043293  0.36597783  1  0  0.570086  0  1.396472  0  0  0.443133  0  1.83408  0  0  0.471537  0  1.785721  0  0  0.475143  0.422691  0  1.868782  0
Ag  Ag2  1  0.57119924  0.61956912  0.86597812  1  0  0.57009  0  1.396476  0  0  0.443079  0  1.834113  0  0  0.471489  0  1.785747  0  0  0.475112  0.422635  0  1.868818  0
Ag  Ag3  1  0.92880541  0.11956783  0.63402207  1  0  0.57012  0  1.396392  0  0  0.443118  0  1.834049  0  0  0.471528  0  1.785682  0  0  0.475118  0.422673  0  1.868754  0
Ag  Ag4  1  0.63137847  0.36337454  0.52649519  1  0  0.543236  0  1.327947  0  0  0.387556  0  1.776991  0  0  0.423953  0  1.723173  0  0  0.456312  0.362785  0  1.81527  0
Ag  Ag5  1  0.86861303  0.86337003  0.97350549  1  0  0.543209  0  1.327982  0  0  0.387546  0  1.777041  0  0  0.423937  0  1.723226  0  0  0.456305  0.362778  0  1.815319  0
Ag  Ag6  1  0.36862115  0.63662424  0.47350717  1  0  0.5432  0  1.328021  0  0  0.387514  0  1.777095  0  0  0.423899  0  1.723276  0  0  0.456302  0.362744  0  1.815372  0
Ag  Ag7  1  0.13138554  0.13662973  0.02649455  1  0  0.54321  0  1.327991  0  0  0.387553  0  1.777044  0  0  0.42394  0  1.723235  0  0  0.456308  0.362779  0  1.815322  0
H  H8  1  0.85760334  0.65995721  0.27142693  1  0  0.114293  0  0.947579  0  0  0.118615  0  1.015423  0  0  0.122876  0  1.011211  0  0  0.123258  0.115481  0  1.018601  0
H  H9  1  0.64238859  0.15995388  0.22857547  1  0  0.114232  0  0.947584  0  0  0.118571  0  1.015402  0  0  0.122833  0  1.011192  0  0  0.123242  0.115439  0  1.018576  0
H  H10  1  0.14239846  0.34004354  0.72857351  1  0  0.114251  0  0.947629  0  0  0.118566  0  1.015472  0  0  0.122829  0  1.011264  0  0  0.123245  0.115433  0  1.018648  0
H  H11  1  0.35761210  0.84004786  0.77142849  1  0  0.114165  0  0.947578  0  0  0.118536  0  1.015386  0  0  0.122798  0  1.01117  0  0  0.123222  0.115404  0  1.01856  0
H  H12  1  0.84837352  0.58376655  0.62052076  1  0  0.103963  0  0.93734  0  0  0.114125  0  0.998053  0  0  0.11659  0  0.997531  0  0  0.120338  0.112406  0  0.998389  0
H  H13  1  0.65162577  0.08376894  0.87948082  1  0  0.103934  0  0.937299  0  0  0.114104  0  0.99802  0  0  0.116573  0  0.997492  0  0  0.120322  0.112369  0  0.998376  0
H  H14  1  0.15163258  0.41623124  0.37948095  1  0  0.103914  0  0.937468  0  0  0.114123  0  0.998129  0  0  0.116591  0  0.997605  0  0  0.120342  0.11239  0  0.998482  0
H  H15  1  0.34836957  0.91623378  0.12051880  1  0  0.103914  0  0.93734  0  0  0.114106  0  0.998027  0  0  0.116573  0  0.997501  0  0  0.120323  0.112371  0  0.998381  0
H  H16  1  0.06841739  0.77363459  0.16107850  1  0  0.124535  0  0.970561  0  0  0.126906  0  1.039657  0  0  0.131532  0  1.034749  0  0  0.123397  0.123198  0  1.043855  0
H  H17  1  0.43157304  0.27363536  0.33892008  1  0  0.124589  0  0.970554  0  0  0.126944  0  1.039655  0  0  0.13157  0  1.034746  0  0  0.123431  0.123238  0  1.043847  0
H  H18  1  0.93157797  0.22636616  0.83891893  1  0  0.124568  0  0.970577  0  0  0.126952  0  1.039657  0  0  0.131577  0  1.034751  0  0  0.123433  0.123244  0  1.043853  0
H  H19  1  0.56842661  0.72636341  0.66107863  1  0  0.124557  0  0.97064  0  0  0.126915  0  1.039731  0  0  0.131538  0  1.034827  0  0  0.123418  0.123208  0  1.043924  0
H  H20  1  0.23394229  0.47733739  0.92565692  1  0  0.115065  0  0.945948  0  0  0.124837  0  1.006934  0  0  0.128207  0  1.004635  0  0  0.124336  0.122554  0  1.008317  0
H  H21  1  0.26605522  0.97733784  0.57434455  1  0  0.115096  0  0.94602  0  0  0.124869  0  1.006985  0  0  0.12824  0  1.004688  0  0  0.124344  0.122587  0  1.008368  0
H  H22  1  0.76605305  0.52265744  0.07434270  1  0  0.11504  0  0.945963  0  0  0.124821  0  1.006955  0  0  0.128193  0  1.004654  0  0  0.124325  0.12254  0  1.008338  0
H  H23  1  0.73394121  0.02265502  0.42565448  1  0  0.115061  0  0.945961  0  0  0.124836  0  1.006945  0  0  0.128209  0  1.004639  0  0  0.124333  0.122554  0  1.008328  0
H  H24  1  0.06725224  0.75575571  0.81434213  1  0  0.13504  0  0.940403  0  0  0.157183  0  0.999038  0  0  0.158216  0  0.99949  0  0  0.103083  0.156243  0  0.998912  0
H  H25  1  0.43274766  0.25575764  0.68565462  1  0  0.135004  0  0.940477  0  0  0.157153  0  0.999086  0  0  0.158184  0  0.999541  0  0  0.103082  0.156212  0  0.99896  0
H  H26  1  0.93274632  0.24423912  0.18565863  1  0  0.134944  0  0.940476  0  0  0.157164  0  0.999026  0  0  0.158196  0  0.999481  0  0  0.103066  0.15622  0  0.998897  0
H  H27  1  0.56725314  0.74424113  0.31433693  1  0  0.134935  0  0.940465  0  0  0.157159  0  0.999023  0  0  0.158193  0  0.999478  0  0  0.103046  0.156215  0  0.998894  0
H  H28  1  0.91562327  0.65875777  0.82595825  1  0  0.132698  0  0.958632  0  0  0.149317  0  1.028261  0  0  0.150981  0  1.027701  0  0  0.097496  0.147929  0  1.02888  0
H  H29  1  0.58437493  0.15875720  0.67403685  1  0  0.132661  0  0.95863  0  0  0.149284  0  1.028253  0  0  0.150946  0  1.027692  0  0  0.097469  0.147895  0  1.028872  0
H  H30  1  0.08437425  0.34124199  0.17403873  1  0  0.132641  0  0.958641  0  0  0.149259  0  1.028292  0  0  0.150922  0  1.027733  0  0  0.097442  0.147869  0  1.028912  0
H  H31  1  0.41562798  0.84124157  0.32595936  1  0  0.132656  0  0.958611  0  0  0.149273  0  1.028271  0  0  0.150937  0  1.02771  0  0  0.097464  0.147884  0  1.02889  0
H  H32  1  0.07342504  0.58213516  0.79380501  1  0  0.130083  0  0.949428  0  0  0.151632  0  1.006361  0  0  0.152993  0  1.006963  0  0  0.098384  0.150556  0  1.005941  0
H  H33  1  0.42657607  0.08213623  0.70619431  1  0  0.130133  0  0.949428  0  0  0.151637  0  1.006402  0  0  0.153  0  1.007002  0  0  0.098374  0.150568  0  1.005976  0
H  H34  1  0.92657247  0.41786263  0.20619270  1  0  0.130128  0  0.949414  0  0  0.151643  0  1.006388  0  0  0.153005  0  1.006989  0  0  0.098389  0.150567  0  1.005968  0
H  H35  1  0.57343003  0.91786354  0.29380668  1  0  0.130113  0  0.949431  0  0  0.151638  0  1.006397  0  0  0.152999  0  1.007  0  0  0.098395  0.150565  0  1.005972  0
H  H36  1  0.02874491  0.88657012  0.55965686  1  0  0.105821  0  0.990184  0  0  0.117685  0  1.079678  0  0  0.121071  0  1.074226  0  0  0.086891  0.115253  0  1.083454  0
H  H37  1  0.47125591  0.38657334  0.94034477  1  0  0.105813  0  0.990157  0  0  0.117661  0  1.079658  0  0  0.121046  0  1.074211  0  0  0.086878  0.11523  0  1.083432  0
H  H38  1  0.97125475  0.11343261  0.44034112  1  0  0.105857  0  0.990116  0  0  0.117726  0  1.079597  0  0  0.121112  0  1.074147  0  0  0.086897  0.115294  0  1.083371  0
H  H39  1  0.52874480  0.61342938  0.05965700  1  0  0.105845  0  0.990117  0  0  0.117718  0  1.0796  0  0  0.121103  0  1.074151  0  0  0.086904  0.115286  0  1.083375  0
H  H40  1  0.14887889  0.75236480  0.59412776  1  0  0.141955  0  0.968352  0  0  0.159601  0  1.036209  0  0  0.162077  0  1.034169  0  0  0.098713  0.157614  0  1.037735  0
H  H41  1  0.35111773  0.25236802  0.90587441  1  0  0.141903  0  0.968397  0  0  0.159565  0  1.036231  0  0  0.162042  0  1.03419  0  0  0.098709  0.157579  0  1.037756  0
H  H42  1  0.85112073  0.24763990  0.40587460  1  0  0.141916  0  0.968375  0  0  0.159571  0  1.036214  0  0  0.162047  0  1.034176  0  0  0.098723  0.157587  0  1.037736  0
H  H43  1  0.64888405  0.74763372  0.09412749  1  0  0.14188  0  0.968375  0  0  0.159538  0  1.036219  0  0  0.162014  0  1.034183  0  0  0.098705  0.157555  0  1.037739  0
H  H44  1  0.00549721  0.78120850  0.65899043  1  0  0.128808  0  0.956168  0  0  0.151934  0  1.010638  0  0  0.153303  0  1.011309  0  0  0.096476  0.150816  0  1.010298  0
H  H45  1  0.49450368  0.28120820  0.84101382  1  0  0.128803  0  0.956078  0  0  0.151881  0  1.010597  0  0  0.153266  0  1.011247  0  0  0.096473  0.150764  0  1.010258  0
H  H46  1  0.99450136  0.21879620  0.34101033  1  0  0.128825  0  0.956156  0  0  0.15191  0  1.010666  0  0  0.153294  0  1.011318  0  0  0.096477  0.150793  0  1.010326  0
H  H47  1  0.50549810  0.71879255  0.15898808  1  0  0.128776  0  0.956049  0  0  0.151855  0  1.010581  0  0  0.15324  0  1.011233  0  0  0.096454  0.150738  0  1.010241  0
C  C48  1  0.03399861  0.65875353  0.83861107  1  0  -0.385977  0  3.68636  0  0  -0.468587  0  3.918978  0  0  -0.47219  0  3.927319  0  0  -0.242912  -0.46553  0  3.913261  0
C  C49  1  0.46600135  0.15875528  0.66138906  1  0  -0.385946  0  3.686404  0  0  -0.468495  0  3.919027  0  0  -0.472096  0  3.927369  0  0  -0.242874  -0.465443  0  3.913303  0
C  C50  1  0.96599995  0.34124328  0.16138969  1  0  -0.385844  0  3.686348  0  0  -0.468512  0  3.918925  0  0  -0.472115  0  3.927266  0  0  -0.242845  -0.465448  0  3.913204  0
C  C51  1  0.53400155  0.84124349  0.33860933  1  0  -0.385862  0  3.686391  0  0  -0.468526  0  3.918998  0  0  -0.472132  0  3.927344  0  0  -0.242875  -0.465467  0  3.913277  0
C  C52  1  0.10482108  0.70606416  0.10898044  1  0  0.090533  0  3.619748  0  0  0.055031  0  3.863622  0  0  0.06036  0  3.88001  0  0  0.060151  0.051091  0  3.85389  0
C  C53  1  0.39517371  0.20606329  0.39101924  1  0  0.090471  0  3.619781  0  0  0.054957  0  3.86366  0  0  0.060294  0  3.880049  0  0  0.060109  0.051015  0  3.853925  0
C  C54  1  0.89517750  0.29393758  0.89101741  1  0  0.090429  0  3.619708  0  0  0.05492  0  3.86361  0  0  0.06026  0  3.879983  0  0  0.060074  0.050974  0  3.853877  0
C  C55  1  0.60482810  0.79393253  0.60897975  1  0  0.0905  0  3.61976  0  0  0.055002  0  3.863605  0  0  0.060325  0  3.879974  0  0  0.060118  0.051059  0  3.853873  0
C  C56  1  0.20396174  0.60610320  0.14159682  1  0  0.053674  0  3.691099  0  0  0.060197  0  3.928  0  0  0.056722  0  3.94777  0  0  0.1125  0.061937  0  3.914945  0
C  C57  1  0.29602990  0.10610230  0.35840363  1  0  0.05368  0  3.691065  0  0  0.060183  0  3.927999  0  0  0.056695  0  3.947781  0  0  0.112493  0.061925  0  3.914941  0
C  C58  1  0.79603468  0.39390151  0.85840294  1  0  0.053712  0  3.690883  0  0  0.060191  0  3.92784  0  0  0.056713  0  3.947612  0  0  0.112503  0.061932  0  3.914784  0
C  C59  1  0.70396868  0.89389549  0.64159422  1  0  0.053674  0  3.69099  0  0  0.060226  0  3.927878  0  0  0.056746  0  3.947653  0  0  0.112525  0.061967  0  3.914821  0
C  C60  1  0.85481971  0.59914746  0.54259460  1  0  0.020394  0  3.638801  0  0  -0.016576  0  3.892044  0  0  -0.016447  0  3.912087  0  0  0.045237  -0.016684  0  3.878513  0
C  C61  1  0.64517957  0.09914632  0.95740703  1  0  0.020425  0  3.638675  0  0  -0.016576  0  3.891935  0  0  -0.016449  0  3.911977  0  0  0.045249  -0.016672  0  3.878409  0
C  C62  1  0.14518856  0.40085231  0.45740593  1  0  0.020427  0  3.638972  0  0  -0.016663  0  3.89222  0  0  -0.016536  0  3.912265  0  0  0.045253  -0.016758  0  3.878696  0
C  C63  1  0.35481684  0.90085542  0.04259346  1  0  0.020367  0  3.638786  0  0  -0.01666  0  3.892053  0  0  -0.016533  0  3.912094  0  0  0.045215  -0.016754  0  3.878528  0
C  C64  1  0.03541638  0.78369296  0.58552390  1  0  -0.392538  0  3.734848  0  0  -0.480408  0  3.975629  0  0  -0.483971  0  3.98317  0  0  -0.25174  -0.477489  0  3.970496  0
C  C65  1  0.46458021  0.28369409  0.91447835  1  0  -0.392445  0  3.734671  0  0  -0.480251  0  3.975434  0  0  -0.483824  0  3.982965  0  0  -0.251703  -0.477332  0  3.970299  0
C  C66  1  0.96458220  0.21631174  0.41447467  1  0  -0.392503  0  3.73486  0  0  -0.480364  0  3.975582  0  0  -0.483938  0  3.983112  0  0  -0.251756  -0.477445  0  3.97045  0
C  C67  1  0.53542159  0.71630963  0.08552209  1  0  -0.392426  0  3.734648  0  0  -0.48027  0  3.975416  0  0  -0.483848  0  3.982951  0  0  -0.251709  -0.477349  0  3.970281  0
C  C68  1  0.19522759  0.54153237  0.97926363  1  0  0.016532  0  3.622735  0  0  -0.018424  0  3.877156  0  0  -0.018415  0  3.89425  0  0  0.049564  -0.018977  0  3.86591  0
C  C69  1  0.30477032  0.04152671  0.52073664  1  0  0.016542  0  3.622688  0  0  -0.018399  0  3.877117  0  0  -0.018393  0  3.894213  0  0  0.049646  -0.018952  0  3.86587  0
C  C70  1  0.80476991  0.45846542  0.02073554  1  0  0.016499  0  3.622742  0  0  -0.018546  0  3.877199  0  0  -0.01854  0  3.894295  0  0  0.049516  -0.019102  0  3.865958  0
C  C71  1  0.69522826  0.95846318  0.47926194  1  0  0.016462  0  3.622716  0  0  -0.018508  0  3.87716  0  0  -0.018499  0  3.894255  0  0  0.049519  -0.019064  0  3.865918  0
C  C72  1  0.09363918  0.64007916  0.94586348  1  0  0.279195  0  3.69837  0  0  0.28338  0  3.944625  0  0  0.290769  0  3.965427  0  0  0.127886  0.278171  0  3.930727  0
C  C73  1  0.40635973  0.14007649  0.55413500  1  0  0.279151  0  3.698299  0  0  0.283262  0  3.944613  0  0  0.290653  0  3.965419  0  0  0.127785  0.278051  0  3.930715  0
C  C74  1  0.90635725  0.35991567  0.05413555  1  0  0.279263  0  3.698248  0  0  0.283562  0  3.944384  0  0  0.290953  0  3.965191  0  0  0.127997  0.278349  0  3.930484  0
C  C75  1  0.59364317  0.85991142  0.44586193  1  0  0.279338  0  3.698312  0  0  0.283527  0  3.944546  0  0  0.290903  0  3.965348  0  0  0.128005  0.278316  0  3.930646  0
C  C76  1  0.77630614  0.53769668  0.37976634  1  0  0.045339  0  3.701994  0  0  0.05127  0  3.942385  0  0  0.048348  0  3.961764  0  0  0.111115  0.05243  0  3.929997  0
C  C77  1  0.72368266  0.03769167  0.12023750  1  0  0.045474  0  3.701973  0  0  0.051376  0  3.942376  0  0  0.048452  0  3.961758  0  0  0.111163  0.052536  0  3.929987  0
C  C78  1  0.22369132  0.46230605  0.62023720  1  0  0.045408  0  3.701942  0  0  0.051368  0  3.942235  0  0  0.04845  0  3.961616  0  0  0.111163  0.052528  0  3.929848  0
C  C79  1  0.27631483  0.96230810  0.87976240  1  0  0.045455  0  3.701962  0  0  0.051303  0  3.942457  0  0  0.048385  0  3.96183  0  0  0.111177  0.052463  0  3.930069  0
C  C80  1  0.26161938  0.58695284  0.25168744  1  0  0.590677  0  3.992437  0  0  0.54535  0  4.274748  0  0  0.577963  0  4.272207  0  0  0.187053  0.523501  0  4.275031  0
C  C81  1  0.23837873  0.08695441  0.24831450  1  0  0.590668  0  3.992628  0  0  0.545345  0  4.274935  0  0  0.577961  0  4.272398  0  0  0.187027  0.523494  0  4.27522  0
C  C82  1  0.73838026  0.41305087  0.74831272  1  0  0.590699  0  3.992305  0  0  0.54539  0  4.274601  0  0  0.578002  0  4.272063  0  0  0.187056  0.52354  0  4.274887  0
C  C83  1  0.76162201  0.91304733  0.75168362  1  0  0.590744  0  3.992492  0  0  0.545409  0  4.274789  0  0  0.578022  0  4.272252  0  0  0.187094  0.52356  0  4.275072  0
C  C84  1  0.68771131  0.44733259  0.30358417  1  0  0.603006  0  3.992465  0  0  0.553357  0  4.285349  0  0  0.586891  0  4.280379  0  0  0.191417  0.530826  0  4.287127  0
C  C85  1  0.81228144  0.94732967  0.19641843  1  0  0.60282  0  3.992528  0  0  0.553185  0  4.285408  0  0  0.586719  0  4.280446  0  0  0.191329  0.530655  0  4.287185  0
C  C86  1  0.31228723  0.55266915  0.69641878  1  0  0.602954  0  3.992597  0  0  0.553321  0  4.285431  0  0  0.586852  0  4.280468  0  0  0.19136  0.530791  0  4.287211  0
C  C87  1  0.18771714  0.05267108  0.80358014  1  0  0.602856  0  3.992521  0  0  0.55325  0  4.285386  0  0  0.586786  0  4.280417  0  0  0.191305  0.53072  0  4.287163  0
C  C88  1  0.85963000  0.63901737  0.34975375  1  0  0.08955  0  3.636522  0  0  0.050757  0  3.888434  0  0  0.056431  0  3.902956  0  0  0.059341  0.046246  0  3.880037  0
C  C89  1  0.64035982  0.13901264  0.15024613  1  0  0.089532  0  3.636614  0  0  0.050748  0  3.888494  0  0  0.056422  0  3.903009  0  0  0.059317  0.046235  0  3.880103  0
C  C90  1  0.14036750  0.36098338  0.65024542  1  0  0.089597  0  3.636592  0  0  0.050785  0  3.88845  0  0  0.056452  0  3.902976  0  0  0.059329  0.046274  0  3.880053  0
C  C91  1  0.35963875  0.86098614  0.84975463  1  0  0.089722  0  3.636453  0  0  0.050914  0  3.888313  0  0  0.056567  0  3.902868  0  0  0.059359  0.0464  0  3.879922  0
C  C92  1  0.94196828  0.69824912  0.51324117  1  0  0.265651  0  3.726148  0  0  0.274347  0  3.970436  0  0  0.279711  0  3.992871  0  0  0.124286  0.270536  0  3.955397  0
C  C93  1  0.55802984  0.19824926  0.98675914  1  0  0.265537  0  3.726247  0  0  0.274252  0  3.970505  0  0  0.279612  0  3.992944  0  0  0.124233  0.270443  0  3.955459  0
C  C94  1  0.05803462  0.30175262  0.48675722  1  0  0.265588  0  3.726358  0  0  0.274378  0  3.970503  0  0  0.279741  0  3.992938  0  0  0.124257  0.27056  0  3.955474  0
C  C95  1  0.44196978  0.80175446  0.01324322  1  0  0.265706  0  3.726163  0  0  0.274428  0  3.970384  0  0  0.279793  0  3.992816  0  0  0.12427  0.27061  0  3.955356  0
N  N96  1  0.94203151  0.71727898  0.41556415  1  0  -0.291534  0  3.24428  0  0  -0.218898  0  3.517199  0  0  -0.233602  0  3.530718  0  0  -0.318422  -0.209007  0  3.508767  0
N  N97  1  0.55796362  0.21727798  0.08443590  1  0  -0.291455  0  3.244246  0  0  -0.218817  0  3.517132  0  0  -0.233516  0  3.530646  0  0  -0.31836  -0.208929  0  3.508699  0
N  N98  1  0.05796708  0.28272374  0.58443369  1  0  -0.291585  0  3.244294  0  0  -0.218922  0  3.517112  0  0  -0.233622  0  3.530626  0  0  -0.318391  -0.20903  0  3.508683  0
N  N99  1  0.44203708  0.78272475  0.91556660  1  0  -0.291644  0  3.244227  0  0  -0.218957  0  3.517098  0  0  -0.233652  0  3.530604  0  0  -0.318358  -0.209066  0  3.50867  0
N  N100  1  0.77429837  0.51957339  0.47703376  1  0  -0.250352  0  3.310656  0  0  -0.180502  0  3.586973  0  0  -0.192116  0  3.602067  0  0  -0.314792  -0.17243  0  3.577456  0
N  N101  1  0.72569907  0.01956885  0.02296966  1  0  -0.250303  0  3.310434  0  0  -0.180449  0  3.586775  0  0  -0.192059  0  3.601867  0  0  -0.314753  -0.172376  0  3.577252  0
N  N102  1  0.22570878  0.48042737  0.52297028  1  0  -0.250286  0  3.310443  0  0  -0.180394  0  3.586717  0  0  -0.192009  0  3.601813  0  0  -0.314754  -0.172322  0  3.577197  0
N  N103  1  0.27429950  0.98043191  0.97703037  1  0  -0.250342  0  3.31052  0  0  -0.180473  0  3.586893  0  0  -0.192081  0  3.601982  0  0  -0.314776  -0.172399  0  3.577368  0
N  N104  1  0.04880863  0.72182231  0.01220573  1  0  -0.310463  0  3.255863  0  0  -0.232189  0  3.532066  0  0  -0.249803  0  3.546855  0  0  -0.323656  -0.220607  0  3.522267  0
N  N105  1  0.45118832  0.22182187  0.48779280  1  0  -0.310461  0  3.25591  0  0  -0.232099  0  3.532061  0  0  -0.249721  0  3.546855  0  0  -0.323609  -0.22051  0  3.522257  0
N  N106  1  0.95118565  0.27817252  0.98779157  1  0  -0.310459  0  3.25583  0  0  -0.232217  0  3.532007  0  0  -0.249841  0  3.546803  0  0  -0.323674  -0.220621  0  3.522197  0
N  N107  1  0.54881782  0.77816802  0.51220454  1  0  -0.310546  0  3.255921  0  0  -0.232239  0  3.53209  0  0  -0.249819  0  3.546851  0  0  -0.323703  -0.220651  0  3.522285  0
N  N108  1  0.24881056  0.52404633  0.07579724  1  0  -0.260699  0  3.311618  0  0  -0.194342  0  3.588232  0  0  -0.204035  0  3.602408  0  0  -0.314453  -0.187506  0  3.578939  0
N  N109  1  0.25118439  0.02404486  0.42420266  1  0  -0.26065  0  3.311465  0  0  -0.194286  0  3.588079  0  0  -0.203973  0  3.602259  0  0  -0.314426  -0.18745  0  3.578783  0
N  N110  1  0.75118585  0.47595443  0.92420325  1  0  -0.260708  0  3.311505  0  0  -0.194294  0  3.588118  0  0  -0.203986  0  3.602298  0  0  -0.314441  -0.187456  0  3.578824  0
N  N111  1  0.74880989  0.97595392  0.57579464  1  0  -0.260684  0  3.311438  0  0  -0.194353  0  3.588066  0  0  -0.204047  0  3.602245  0  0  -0.314438  -0.187516  0  3.578773  0
O  O112  1  0.66379783  0.49149076  0.21558007  1  0  -0.629736  0  1.990985  0  0  -0.572241  0  2.243132  0  0  -0.601342  0  2.236021  0  0  -0.328842  -0.550718  0  2.246328  0
O  O113  1  0.83619812  0.99149024  0.28442160  1  0  -0.629709  0  1.991032  0  0  -0.572217  0  2.243166  0  0  -0.601318  0  2.236057  0  0  -0.328824  -0.55069  0  2.246354  0
O  O114  1  0.33620072  0.50851197  0.78442215  1  0  -0.629755  0  1.991081  0  0  -0.572255  0  2.243185  0  0  -0.601357  0  2.236081  0  0  -0.328824  -0.550726  0  2.246369  0
O  O115  1  0.16380047  0.00851150  0.71557624  1  0  -0.629698  0  1.990946  0  0  -0.572195  0  2.243053  0  0  -0.601293  0  2.235942  0  0  -0.328795  -0.550668  0  2.246243  0
O  O116  1  0.64869774  0.33758608  0.33380270  1  0  -0.6251  0  2.015041  0  0  -0.563872  0  2.257239  0  0  -0.591416  0  2.24685  0  0  -0.321021  -0.543685  0  2.263141  0
O  O117  1  0.85129942  0.83758293  0.16620014  1  0  -0.625025  0  2.015094  0  0  -0.563807  0  2.257299  0  0  -0.591335  0  2.246873  0  0  -0.320961  -0.54362  0  2.263198  0
O  O118  1  0.35130296  0.66241566  0.66620053  1  0  -0.625056  0  2.015027  0  0  -0.56387  0  2.257256  0  0  -0.591402  0  2.246846  0  0  -0.321009  -0.543683  0  2.263155  0
O  O119  1  0.14869915  0.16241584  0.83379916  1  0  -0.625055  0  2.015081  0  0  -0.563856  0  2.257298  0  0  -0.591393  0  2.246888  0  0  -0.32099  -0.543668  0  2.263197  0
O  O120  1  0.34902109  0.49374969  0.27760973  1  0  -0.608317  0  2.005959  0  0  -0.550639  0  2.261569  0  0  -0.577882  0  2.251167  0  0  -0.322133  -0.531224  0  2.268319  0
O  O121  1  0.15097988  0.99374418  0.22239374  1  0  -0.60827  0  2.005918  0  0  -0.550573  0  2.261469  0  0  -0.577814  0  2.251069  0  0  -0.322098  -0.531159  0  2.268221  0
O  O122  1  0.65098069  0.50625502  0.72239217  1  0  -0.608289  0  2.00603  0  0  -0.550601  0  2.261605  0  0  -0.577843  0  2.251205  0  0  -0.322102  -0.531189  0  2.268359  0
O  O123  1  0.84902084  0.00625263  0.77760729  1  0  -0.608312  0  2.005984  0  0  -0.550617  0  2.261564  0  0  -0.577859  0  2.251161  0  0  -0.322111  -0.531203  0  2.268316  0
O  O124  1  0.21524683  0.66780784  0.30978289  1  0  -0.645422  0  2.067978  0  0  -0.57957  0  2.343102  0  0  -0.60936  0  2.33118  0  0  -0.334444  -0.55845  0  2.351034  0
O  O125  1  0.28475336  0.16780805  0.19021955  1  0  -0.645482  0  2.068115  0  0  -0.579619  0  2.343207  0  0  -0.609407  0  2.331284  0  0  -0.334468  -0.558497  0  2.35114  0
O  O126  1  0.78475496  0.33219291  0.69021901  1  0  -0.64546  0  2.067824  0  0  -0.579606  0  2.342938  0  0  -0.609395  0  2.331016  0  0  -0.334464  -0.558483  0  2.350871  0
O  O127  1  0.71524629  0.83219369  0.80977989  1  0  -0.645508  0  2.067961  0  0  -0.579655  0  2.343093  0  0  -0.609442  0  2.331171  0  0  -0.334518  -0.558531  0  2.351024  0
