# generated using pymatgen
data_Cu3H22C28(NO8)2
_symmetry_space_group_name_H-M   'P 1'
_cell_length_a   11.02526021
_cell_length_b   11.02531323
_cell_length_c   14.23309237
_cell_angle_alpha   101.27406195
_cell_angle_beta   101.27329998
_cell_angle_gamma   119.65674253
_symmetry_Int_Tables_number   1
_chemical_formula_structural   Cu3H22C28(NO8)2
_chemical_formula_sum   'Cu6 H44 C56 N4 O32'
_cell_volume   1385.09067300
_cell_formula_units_Z   2
loop_
 _symmetry_equiv_pos_site_id
 _symmetry_equiv_pos_as_xyz
  1  'x, y, z'
loop_
 _atom_site_type_symbol
 _atom_site_label
 _atom_site_symmetry_multiplicity
 _atom_site_fract_x
 _atom_site_fract_y
 _atom_site_fract_z
 _atom_site_occupancy
 _atom_site_pbe_cm5_charge
 _atom_site_pbe_ddec_charge
 _atom_site_pbe_ddec_spin_density
 _atom_site_pbe_ddec_sum_bond_order
 _atom_site_pbe_magmom
Cu  Cu0  1  0.70383158  0.70380788  0.00006744  1  0.750139  0.758874  0.746385  2.109044  0.547
Cu  Cu1  1  0.95380542  0.45382893  0.50006666  1  0.750134  0.758856  0.746368  2.109007  0.547
Cu  Cu2  1  0.60150890  0.06382189  0.15374531  1  0.706674  0.957484  -0.780411  2.114057  -0.614
Cu  Cu3  1  0.91010433  0.44772520  0.84627035  1  0.706518  0.957773  -0.78003  2.112909  -0.614
Cu  Cu4  1  0.69772218  0.66010131  0.34626786  1  0.706489  0.957713  -0.780022  2.113039  -0.614
Cu  Cu5  1  0.31382134  0.35150894  0.65374878  1  0.706664  0.957476  -0.780398  2.114133  -0.614
H  H6  1  0.81941577  0.14464089  0.30988086  1  0.295994  0.387741  -0.00031  0.94999  -0.001
H  H7  1  0.83496953  0.50976328  0.69017988  1  0.296432  0.388339  -0.000312  0.94929  -0.001
H  H8  1  0.75976624  0.58497324  0.19017996  1  0.296416  0.388379  -0.000312  0.949253  -0.001
H  H9  1  0.39464068  0.56941667  0.80988383  1  0.296002  0.387762  -0.000309  0.949954  -0.001
H  H10  1  0.67479655  0.97434930  0.28229466  1  0.290693  0.374493  -0.000428  0.972197  0.0
H  H11  1  0.69225676  0.39268585  0.71773537  1  0.29196  0.377213  -0.000419  0.968597  0.0
H  H12  1  0.64268911  0.44225553  0.21773111  1  0.291955  0.377226  -0.000419  0.968577  0.0
H  H13  1  0.22434653  0.42479749  0.78229738  1  0.290671  0.374474  -0.000428  0.972235  0.0
H  H14  1  0.44723389  0.15718749  0.12350734  1  0.29135  0.38028  -0.000286  0.961997  0.0
H  H15  1  0.03368181  0.32371072  0.87649135  1  0.291429  0.380361  -0.000286  0.962213  0.0
H  H16  1  0.57370671  0.78368212  0.37648663  1  0.291393  0.380285  -0.000285  0.96233  0.0
H  H17  1  0.40719321  0.19723476  0.62351618  1  0.291394  0.380382  -0.000286  0.961868  0.0
H  H18  1  0.54674729  0.19327927  0.05402742  1  0.282281  0.360756  -0.000419  0.998435  0.0
H  H19  1  0.13920594  0.49264290  0.94604688  1  0.283331  0.363675  -0.000412  0.994057  0.0
H  H20  1  0.74263786  0.88920419  0.44604347  1  0.283346  0.363721  -0.000412  0.994  0.0
H  H21  1  0.44328411  0.29674881  0.55403375  1  0.282309  0.360797  -0.000419  0.998378  0.0
H  H22  1  0.15942990  0.78947600  0.10626111  1  0.109337  0.119473  -0.00029  0.999041  0.0
H  H23  1  0.68325286  0.05297859  0.89374779  1  0.109952  0.120265  -0.000288  0.998303  0.0
H  H24  1  0.30298209  0.43324557  0.39374513  1  0.109977  0.120239  -0.000288  0.998266  0.0
H  H25  1  0.03947073  0.90942923  0.60625726  1  0.109351  0.119485  -0.00029  0.999022  0.0
H  H26  1  0.31074145  0.59261244  0.29075212  1  0.103206  0.107343  -4e-06  1.028005  0.0
H  H27  1  0.30204229  0.02003211  0.70931145  1  0.10373  0.107793  -4e-06  1.027261  0.0
H  H28  1  0.27002767  0.05203136  0.20930591  1  0.1037  0.107742  -4e-06  1.027291  0.0
H  H29  1  0.84261645  0.06074700  0.79075835  1  0.103188  0.107303  -4e-06  1.027975  0.0
H  H30  1  0.04731906  0.38116483  0.24512741  1  0.104602  0.115255  -0.000176  1.02817  0.0
H  H31  1  0.13621125  0.80223731  0.75496661  1  0.104437  0.114809  -0.000177  1.026926  0.0
H  H32  1  0.05223728  0.88620535  0.25496696  1  0.104439  0.114813  -0.000177  1.026869  0.0
H  H33  1  0.63116516  0.79732394  0.74513484  1  0.104598  0.115297  -0.000176  1.028168  0.0
H  H34  1  0.84594890  0.02978233  0.08568204  1  0.122083  0.108783  0.00101  1.024746  0.001
H  H35  1  0.94389441  0.76020472  0.91428243  1  0.122807  0.109402  0.001007  1.024669  0.001
H  H36  1  0.01020088  0.69389127  0.41428151  1  0.12279  0.109382  0.001007  1.024678  0.001
H  H37  1  0.27978021  0.59595340  0.58568391  1  0.122073  0.108719  0.00101  1.024806  0.001
H  H38  1  0.05972059  0.25652725  0.08270075  1  0.10891  0.117901  0.000323  1.034794  0.0
H  H39  1  0.17348214  0.97677755  0.91693838  1  0.109579  0.118657  0.000323  1.033691  0.0
H  H40  1  0.22677474  0.92348205  0.41694057  1  0.109577  0.118656  0.000323  1.033663  0.0
H  H41  1  0.50652624  0.80972637  0.58270463  1  0.108888  0.117865  0.000323  1.034781  0.0
H  H42  1  0.49974579  0.64941583  0.11510751  1  0.123429  0.098  0.001497  1.010607  0.002
H  H43  1  0.53471678  0.38484543  0.88504085  1  0.123147  0.097739  0.001497  1.011303  0.002
H  H44  1  0.63484481  0.28471432  0.38504136  1  0.123132  0.097753  0.001497  1.011319  0.002
H  H45  1  0.89941584  0.24974714  0.61510831  1  0.123422  0.097978  0.001497  1.010621  0.002
H  H46  1  0.27859198  0.43225492  0.12179418  1  0.107851  0.113479  0.000608  1.036472  0.001
H  H47  1  0.31066731  0.15690281  0.87805351  1  0.10808  0.114254  0.000608  1.034727  0.001
H  H48  1  0.40690161  0.06066777  0.37805579  1  0.108075  0.114264  0.000608  1.034735  0.001
H  H49  1  0.68225430  0.02859393  0.62179635  1  0.107839  0.113474  0.000609  1.03646  0.001
C  C50  1  0.95636335  0.46485777  0.14874583  1  -0.003687  -0.029268  -0.003937  3.903559  -0.005
C  C51  1  0.31617747  0.80754522  0.85130647  1  -0.003743  -0.030825  -0.00394  3.90607  -0.005
C  C52  1  0.05754512  0.06617166  0.35130423  1  -0.00372  -0.030774  -0.00394  3.906029  -0.005
C  C53  1  0.71485602  0.70636651  0.64874863  1  -0.00365  -0.029156  -0.003936  3.903653  -0.005
C  C54  1  0.98708759  0.58300375  0.11264447  1  -0.000904  -0.024234  0.004465  3.92583  0.004
C  C55  1  0.47039346  0.87433122  0.88740978  1  -0.00043  -0.023152  0.004465  3.9247  0.004
C  C56  1  0.12433335  0.22039251  0.38740766  1  -0.000403  -0.023154  0.004466  3.924667  0.004
C  C57  1  0.83299807  0.73708644  0.61264347  1  -0.000901  -0.0243  0.004466  3.925852  0.004
C  C58  1  0.13402698  0.70025157  0.13728778  1  -0.075132  -0.105699  0.001652  3.911752  0.001
C  C59  1  0.56303094  0.99661291  0.86274624  1  -0.073902  -0.103531  0.001652  3.909726  0.001
C  C60  1  0.24661580  0.31302394  0.36274387  1  -0.073955  -0.103466  0.001653  3.909605  0.001
C  C61  1  0.95024640  0.88402519  0.63728584  1  -0.075138  -0.105743  0.001652  3.911753  0.001
C  C62  1  0.25102880  0.70361723  0.20018315  1  -0.01417  -0.026861  -0.005281  3.968658  -0.006
C  C63  1  0.50356057  0.05078108  0.79983687  1  -0.014373  -0.027803  -0.005284  3.966298  -0.006
C  C64  1  0.30078249  0.25355037  0.29983251  1  -0.014353  -0.027872  -0.005284  3.966408  -0.006
C  C65  1  0.95361673  0.00102927  0.70018353  1  -0.014096  -0.026671  -0.005281  3.968556  -0.006
C  C66  1  0.21988090  0.58925618  0.24048058  1  -0.086833  -0.108861  0.001705  3.983983  0.001
C  C67  1  0.34893344  0.97940052  0.75957131  1  -0.08824  -0.109899  0.001704  3.981547  0.001
C  C68  1  0.22940098  0.09892546  0.25956739  1  -0.08826  -0.109869  0.001705  3.981651  0.001
C  C69  1  0.83925791  0.96988496  0.74048510  1  -0.086853  -0.108872  0.001705  3.983888  0.001
C  C70  1  0.07362867  0.47076947  0.21435791  1  -0.082915  -0.09301  -0.000612  3.957922  -0.001
C  C71  1  0.25655027  0.85924871  0.78569897  1  -0.083217  -0.092411  -0.000617  3.955619  -0.001
C  C72  1  0.10925203  0.00654840  0.28569864  1  -0.083181  -0.092391  -0.000617  3.955597  -0.001
C  C73  1  0.72077053  0.82363351  0.71436371  1  -0.082935  -0.09312  -0.000612  3.95795  -0.001
C  C74  1  0.79999137  0.33310305  0.11623079  1  0.215682  0.578541  -0.001496  4.174933  0.001
C  C75  1  0.21693344  0.68376331  0.88389329  1  0.214585  0.576452  -0.001502  4.173819  0.001
C  C76  1  0.93376115  0.96693198  0.38389256  1  0.214531  0.576327  -0.001502  4.17387  0.001
C  C77  1  0.58310297  0.54999731  0.61623553  1  0.215727  0.578452  -0.001496  4.174947  0.001
C  C78  1  0.86939113  0.59384917  0.04896415  1  0.214666  0.587919  0.000198  4.200173  -0.003
C  C79  1  0.54482073  0.82025584  0.95109973  1  0.213692  0.585923  0.0002  4.202216  -0.003
C  C80  1  0.07025677  0.29481819  0.45109928  1  0.213668  0.58589  0.0002  4.20233  -0.003
C  C81  1  0.84384235  0.61938875  0.54896142  1  0.214745  0.588068  0.000198  4.199963  -0.003
C  C82  1  0.40790670  0.82725707  0.22133752  1  0.218442  0.585852  -0.001506  4.169177  0.001
C  C83  1  0.60604755  0.18646618  0.77860520  1  0.218023  0.585101  -0.001511  4.170024  0.001
C  C84  1  0.43646766  0.35603880  0.27859739  1  0.217957  0.585133  -0.001511  4.170052  0.001
C  C85  1  0.07725548  0.15790698  0.72133967  1  0.218463  0.585815  -0.001506  4.168993  0.001
C  C86  1  0.91952808  0.02252570  0.04718301  1  0.04925  0.094559  0.00019  3.898483  0.0
C  C87  1  0.97516688  0.87229912  0.95270293  1  0.049212  0.093834  0.000192  3.897941  0.0
C  C88  1  0.12229850  0.72516781  0.45270267  1  0.049201  0.093814  0.000192  3.898023  0.0
C  C89  1  0.27252369  0.66952903  0.54718550  1  0.049213  0.094607  0.000191  3.89835  0.0
C  C90  1  0.04229499  0.14986760  0.04674561  1  -0.07358  -0.150525  0.003229  3.902029  0.004
C  C91  1  0.10283748  0.99538238  0.95293920  1  -0.075405  -0.151909  0.003229  3.90252  0.004
C  C92  1  0.24537967  0.85283845  0.45294109  1  -0.07539  -0.151894  0.003229  3.902535  0.004
C  C93  1  0.39986529  0.79229741  0.54674717  1  -0.073583  -0.15054  0.003228  3.901995  0.004
C  C94  1  0.13898690  0.13902792  0.99981196  1  0.015866  0.10343  -0.002  3.952457  -0.002
C  C95  1  0.38902395  0.88898676  0.49981224  1  0.015911  0.103507  -0.002  3.952329  -0.002
C  C96  1  0.45452567  0.53769501  0.06474422  1  0.052201  0.100982  -0.000269  3.909032  -0.001
C  C97  1  0.47316663  0.38984098  0.93531087  1  0.053061  0.103094  -0.000284  3.910342  -0.001
C  C98  1  0.63984197  0.22316610  0.43531155  1  0.053065  0.103061  -0.000285  3.910373  -0.001
C  C99  1  0.78769272  0.20452473  0.56474539  1  0.052166  0.100936  -0.000268  3.909058  -0.001
C  C100  1  0.32935387  0.41469738  0.06682644  1  -0.072849  -0.140413  0.004047  3.895285  0.005
C  C101  1  0.34794814  0.26254874  0.93301510  1  -0.073852  -0.142687  0.004044  3.893662  0.005
C  C102  1  0.51254760  0.09794747  0.43301616  1  -0.073868  -0.142747  0.004043  3.893588  0.005
C  C103  1  0.66469532  0.07935390  0.56682708  1  -0.072818  -0.140357  0.004046  3.895289  0.005
C  C104  1  0.27246886  0.27249115  0.99984992  1  0.017456  0.108164  -0.003242  3.937443  -0.003
C  C105  1  0.52249079  0.02246892  0.49985215  1  0.017458  0.108137  -0.003242  3.937273  -0.003
N  N106  1  0.88493001  0.88500293  0.99999475  1  -0.343885  -0.226049  0.053941  3.585401  0.066
N  N107  1  0.13499866  0.63492782  0.49999433  1  -0.343879  -0.226075  0.05394  3.585322  0.066
N  N108  1  0.52522112  0.52512380  0.00006097  1  -0.348734  -0.217039  0.066654  3.619651  0.082
N  N109  1  0.77512276  0.27522009  0.50005995  1  -0.348707  -0.216962  0.066653  3.619595  0.082
O  O110  1  0.78482024  0.22669994  0.14822564  1  -0.326251  -0.551868  -0.063247  2.36894  -0.09
O  O111  1  0.07855350  0.63663123  0.85191414  1  -0.326299  -0.550803  -0.063281  2.365161  -0.09
O  O112  1  0.88662679  0.82855089  0.35191382  1  -0.326286  -0.550768  -0.063283  2.365177  -0.09
O  O113  1  0.47669933  0.53482331  0.64823247  1  -0.326337  -0.551867  -0.063249  2.368916  -0.09
O  O114  1  0.69600693  0.33380227  0.06070170  1  -0.298884  -0.512638  -0.001882  2.220018  -0.002
O  O115  1  0.27312197  0.63530382  0.93945829  1  -0.29737  -0.510582  -0.00189  2.217453  -0.003
O  O116  1  0.88529866  0.02312150  0.43945499  1  -0.297334  -0.510524  -0.00189  2.217451  -0.003
O  O117  1  0.58380396  0.44601218  0.56070605  1  -0.298813  -0.512542  -0.001882  2.22002  -0.002
O  O118  1  0.82765132  0.66767040  0.10095614  1  -0.312298  -0.53872  0.073454  2.332802  0.098
O  O119  1  0.56662765  0.72650432  0.89912766  1  -0.311921  -0.537698  0.073497  2.331444  0.098
O  O120  1  0.97650531  0.31662561  0.39912611  1  -0.311906  -0.537682  0.073508  2.331416  0.098
O  O121  1  0.91766126  0.57764855  0.60095168  1  -0.312303  -0.538758  0.073451  2.332677  0.098
O  O122  1  0.82866235  0.55100096  0.95375047  1  -0.305299  -0.569834  0.00149  2.336264  0.002
O  O123  1  0.59723950  0.87481534  0.04631130  1  -0.30542  -0.570204  0.001494  2.337705  0.002
O  O124  1  0.12481638  0.34723893  0.54630744  1  -0.305445  -0.570209  0.001494  2.337768  0.002
O  O125  1  0.80099621  0.57866158  0.45374707  1  -0.305382  -0.569888  0.00149  2.336212  0.002
O  O126  1  0.42359177  0.92622019  0.18114292  1  -0.323646  -0.555841  -0.056389  2.378187  -0.08
O  O127  1  0.74517841  0.24232822  0.81876656  1  -0.323556  -0.556409  -0.056341  2.379764  -0.08
O  O128  1  0.49232478  0.49516741  0.31875812  1  -0.323592  -0.556469  -0.05634  2.379714  -0.08
O  O129  1  0.17622113  0.17359246  0.68114648  1  -0.323667  -0.555836  -0.056389  2.378067  -0.08
O  O130  1  0.51415001  0.82683581  0.27508636  1  -0.306647  -0.563818  -0.000193  2.270117  -0.001
O  O131  1  0.55189407  0.23899333  0.72486262  1  -0.306686  -0.56393  -0.000216  2.268931  -0.001
O  O132  1  0.48899557  0.30188764  0.22485329  1  -0.306621  -0.563892  -0.000216  2.268961  -0.001
O  O133  1  0.07683318  0.26415074  0.77508900  1  -0.306672  -0.563832  -0.000193  2.270042  -0.001
O  O134  1  0.74035004  0.04920823  0.25473008  1  -0.580714  -0.739856  -0.050806  2.258953  -0.07
O  O135  1  0.79464817  0.48579522  0.74533983  1  -0.58242  -0.743177  -0.050757  2.256115  -0.07
O  O136  1  0.73579711  0.54464639  0.24533814  1  -0.582396  -0.743229  -0.050758  2.256077  -0.07
O  O137  1  0.29920571  0.49035051  0.75473202  1  -0.580671  -0.739829  -0.050807  2.258922  -0.07
O  O138  1  0.46913301  0.10636975  0.06987703  1  -0.577805  -0.740618  -0.056996  2.198088  -0.077
O  O139  1  0.03646643  0.39918383  0.93014214  1  -0.57899  -0.743774  -0.05703  2.196114  -0.077
O  O140  1  0.64917870  0.78646475  0.43013868  1  -0.578949  -0.743727  -0.057032  2.196169  -0.077
O  O141  1  0.35637493  0.21913517  0.56988496  1  -0.577897  -0.740823  -0.056999  2.198109  -0.077
