# generated using pymatgen
data_ZnH9C31N2Cl7O11
_symmetry_space_group_name_H-M   'P 1'
_cell_length_a   14.55756944
_cell_length_b   15.19863499
_cell_length_c   27.77095459
_cell_angle_alpha   92.37866269
_cell_angle_beta   89.83412776
_cell_angle_gamma   89.63031507
_symmetry_Int_Tables_number   1
_chemical_formula_structural   ZnH9C31N2Cl7O11
_chemical_formula_sum   'Zn2 H18 C62 N4 Cl14 O22'
_cell_volume   6139.01478091
_cell_formula_units_Z   2
loop_
 _symmetry_equiv_pos_site_id
 _symmetry_equiv_pos_as_xyz
  1  'x, y, z'
loop_
 _atom_site_type_symbol
 _atom_site_label
 _atom_site_symmetry_multiplicity
 _atom_site_fract_x
 _atom_site_fract_y
 _atom_site_fract_z
 _atom_site_occupancy
 _atom_site_pbe_bader_charge
 _atom_site_pbe_bader_spin_density
 _atom_site_pbe_cm5_charge
 _atom_site_pbe_ddec_charge
 _atom_site_pbe_ddec_spin_density
 _atom_site_pbe_ddec_sum_bond_order
 _atom_site_pbe_magmom
Zn  Zn0  1  0.39782568  0.50095486  0.49980264  1  1.359552  0  0.6784  0.914355  0  2.261912  0
Zn  Zn1  1  0.60756473  0.50271703  0.49937922  1  1.334425  0  0.677161  0.907561  0  2.281735  0
H  H2  1  0.60906013  0.44246838  0.73905195  1  0.110094  0  0.120304  0.152116  0  0.962011  0
H  H3  1  0.60212172  0.54960097  0.25782214  1  0.088597  0  0.119466  0.150359  0  0.960558  0
H  H4  1  0.26973697  0.46406243  0.03303213  1  0.097767  0  0.095328  0.110595  0  1.065312  0
H  H5  1  0.72887193  0.51303097  0.96700940  1  0.089215  0  0.094242  0.109264  0  1.068679  0
H  H6  1  0.47732030  0.07534702  0.57456820  1  0.09177  0  0.107862  0.124105  0  0.999513  0
H  H7  1  0.56032372  0.95019603  0.57849636  1  0.076476  0  0.108041  0.12568  0  0.996786  0
H  H8  1  0.48205187  0.93226869  0.42822474  1  0.098827  0  0.107837  0.123979  0  0.999502  0
H  H9  1  0.57310897  0.05057429  0.42696062  1  0.096625  0  0.108028  0.125671  0  0.997609  0
H  H10  1  0.01114963  0.43827897  0.42216390  1  0.607565  0  0.338707  0.372436  0  0.863211  0
H  H11  1  0.99258474  0.64747327  0.48061303  1  0.593889  0  0.338049  0.371289  0  0.86605  0
H  H12  1  0.01043438  0.56371672  0.57601985  1  0.615075  0  0.338761  0.371962  0  0.864151  0
H  H13  1  0.99458713  0.35503842  0.51730623  1  0.620693  0  0.338935  0.373014  0  0.863861  0
H  H14  1  0.35340136  0.30199240  0.27951607  1  0.610602  0  0.307161  0.338123  0  0.94279  0
H  H15  1  0.33051573  0.66563154  0.72680652  1  0.61478  0  0.30631  0.338296  0  0.944578  0
H  H16  1  0.20319091  0.44218354  0.10100559  1  0.591046  0  0.346094  0.368256  0  0.859037  0
H  H17  1  0.79315952  0.54973413  0.90196101  1  0.581731  0  0.345671  0.368843  0  0.859898  0
H  H18  1  0.61269683  0.43706508  0.61224900  1  0.662444  0  0.298572  0.3511  0  0.972004  0
H  H19  1  0.60545719  0.57116552  0.38466559  1  0.625352  0  0.299603  0.352134  0  0.967186  0
C  C20  1  0.53318353  0.33509615  0.49530543  1  1.622849  0  0.209776  0.623267  0  4.188388  0
C  C21  1  0.52505484  0.66870893  0.50605272  1  1.618085  0  0.21018  0.624445  0  4.192596  0
C  C22  1  0.47725306  0.49487422  0.40757197  1  1.542314  0  0.21369  0.629497  0  4.135119  0
C  C23  1  0.47632615  0.50330903  0.59215213  1  1.5778  0  0.212267  0.625954  0  4.136606  0
C  C24  1  0.41530862  0.46215419  0.18026561  1  1.342653  0  0.239541  0.461228  0  4.10061  0
C  C25  1  0.57912071  0.55437396  0.82216084  1  1.333968  0  0.241096  0.457314  0  4.079275  0
C  C26  1  0.58190683  0.41879515  0.17870529  1  1.361623  0  0.240196  0.451878  0  4.069126  0
C  C27  1  0.41383152  0.51010627  0.82150804  1  1.35682  0  0.239396  0.458602  0  4.091884  0
C  C28  1  0.55463911  0.51006543  0.27804492  1  0.143264  0  -0.097692  -0.258648  0  3.947072  0
C  C29  1  0.55619462  0.47898788  0.72060278  1  0.028478  0  -0.097249  -0.25955  0  3.948231  0
C  C30  1  0.55155698  0.52115131  0.32820878  1  0.51598  0  0.07983  0.313218  0  4.074929  0
C  C31  1  0.55394549  0.47408972  0.67027445  1  0.524784  0  0.081563  0.315984  0  4.073025  0
C  C32  1  0.43205137  0.41090036  0.33005294  1  0.065311  0  0.000569  0.03349  0  4.036631  0
C  C33  1  0.42127195  0.57143289  0.67263087  1  0.096797  0  -0.000476  0.033153  0  4.032925  0
C  C34  1  0.44008467  0.39455886  0.28017154  1  0.572951  0  0.06978  0.158029  0  4.099545  0
C  C35  1  0.42764795  0.58196862  0.72285624  1  0.562255  0  0.06923  0.158427  0  4.094335  0
C  C36  1  0.49914665  0.44845670  0.25439870  1  0.306639  0  0.088482  0.133516  0  4.018504  0
C  C37  1  0.49367047  0.53149884  0.74654800  1  0.392482  0  0.08807  0.131918  0  4.018864  0
C  C38  1  0.50010682  0.45180445  0.10113880  1  -0.007317  0  0.005368  0.05901  0  4.002092  0
C  C39  1  0.49834666  0.52012206  0.89957734  1  0.004366  0  0.004799  0.06074  0  4.013618  0
C  C40  1  0.41595269  0.45430447  0.12741079  1  0.067245  0  -0.021428  -0.181395  0  3.944678  0
C  C41  1  0.58114533  0.53440458  0.87380525  1  -0.003155  0  -0.022313  -0.187465  0  3.937282  0
C  C42  1  0.33361295  0.45365239  0.10153466  1  0.500997  0  0.102179  0.328684  0  4.078027  0
C  C43  1  0.66326165  0.53484654  0.90005197  1  0.524203  0  0.102951  0.330435  0  4.062453  0
C  C44  1  0.58301980  0.43060120  0.12554223  1  0.032731  0  -0.01418  -0.122616  0  3.933023  0
C  C45  1  0.41353090  0.52405089  0.87461266  1  0.050907  0  -0.013635  -0.118104  0  3.967027  0
C  C46  1  0.48593398  0.47440666  0.35494374  1  0.075526  0  -0.042747  -0.224715  0  3.975487  0
C  C47  1  0.48265620  0.51727615  0.64533525  1  0.04572  0  -0.043558  -0.225888  0  3.971084  0
C  C48  1  0.41324772  0.50617406  0.97618048  1  0.042387  0  0.000305  -0.003294  0  3.944958  0
C  C49  1  0.58550164  0.46439689  0.02410233  1  0.051765  0  0.001558  -0.000386  0  3.93431  0
C  C50  1  0.58383715  0.49124496  0.97381642  1  -0.000392  0  0.004642  0.086551  0  3.967507  0
C  C51  1  0.41537313  0.48291804  0.02676750  1  0.04037  0  0.002929  0.083317  0  3.981246  0
C  C52  1  0.49772246  0.50354790  0.94989259  1  0.027395  0  -0.003088  -0.011782  0  3.935871  0
C  C53  1  0.50122014  0.46845949  0.05069918  1  0.035183  0  -0.002474  -0.012129  0  3.923974  0
C  C54  1  0.33428952  0.53594830  0.95196537  1  0.099805  0  0.012411  0.041253  0  3.960311  0
C  C55  1  0.66308709  0.43047844  0.04755167  1  0.084255  0  0.010646  0.037197  0  3.961524  0
C  C56  1  0.33272786  0.53781231  0.90097921  1  0.077612  0  0.021912  0.083906  0  4.03925  0
C  C57  1  0.66298501  0.41649154  0.09794650  1  0.107462  0  0.023453  0.087119  0  4.017566  0
C  C58  1  0.33503042  0.46603180  0.05184684  1  -0.02784  0  -0.106911  -0.274607  0  3.997942  0
C  C59  1  0.66299798  0.51241454  0.94872759  1  0.008075  0  -0.107135  -0.276983  0  3.987808  0
C  C60  1  0.50070575  0.10414817  0.54147159  1  -0.021597  0  -0.09878  -0.212123  0  3.968896  0
C  C61  1  0.54218656  0.91186792  0.54595304  1  0.047883  0  -0.096908  -0.208436  0  3.956243  0
C  C62  1  0.50044714  0.90184009  0.46169432  1  0.03929  0  -0.098083  -0.21044  0  3.968859  0
C  C63  1  0.55231649  0.09037830  0.45868104  1  0.051957  0  -0.098496  -0.211371  0  3.959757  0
C  C64  1  0.50413927  0.19542564  0.53926596  1  0.01825  0  0.017794  0.144093  0  4.046838  0
C  C65  1  0.54151455  0.82030077  0.54691873  1  0.080389  0  0.018499  0.149047  0  4.042953  0
C  C66  1  0.50049480  0.81043827  0.46333628  1  0.020682  0  0.016911  0.142103  0  4.049901  0
C  C67  1  0.55503897  0.18180331  0.45710677  1  0.029531  0  0.018523  0.151013  0  4.042359  0
C  C68  1  0.53158906  0.23636558  0.49725733  1  0.093732  0  -0.021888  -0.140166  0  3.924298  0
C  C69  1  0.52200521  0.76762501  0.50565268  1  0.035776  0  -0.021739  -0.139517  0  3.927968  0
C  C70  1  0.52502727  0.05055457  0.50106463  1  0.011089  0  -0.002976  0.105019  0  4.007861  0
C  C71  1  0.52231932  0.95358148  0.50301891  1  -0.014309  0  -0.003335  0.103709  0  4.007054  0
C  C72  1  0.90258154  0.46735417  0.45890814  1  0.563708  0  0.079723  0.175099  0  4.129223  0
C  C73  1  0.10158606  0.57848834  0.48913378  1  0.543628  0  0.079831  0.177655  0  4.126728  0
C  C74  1  0.90220342  0.53769008  0.53904112  1  0.583349  0  0.080665  0.176122  0  4.128454  0
C  C75  1  0.10259138  0.42420227  0.50857503  1  0.59075  0  0.080194  0.177506  0  4.127506  0
C  C76  1  0.80588116  0.46976062  0.46047847  1  0.684628  0  0.129991  0.168059  0  4.059945  0
C  C77  1  0.19824628  0.57490981  0.48855844  1  0.704891  0  0.129749  0.166193  0  4.065729  0
C  C78  1  0.80552556  0.53818422  0.53713351  1  0.675323  0  0.129999  0.16764  0  4.058985  0
C  C79  1  0.19920695  0.42784664  0.50880914  1  0.667612  0  0.129326  0.164869  0  4.066808  0
C  C80  1  0.95131022  0.50182273  0.49904768  1  -0.01058  0  -0.045086  -0.182535  0  4.173574  0
C  C81  1  0.05316428  0.50138041  0.49898821  1  -0.019701  0  -0.045532  -0.184699  0  4.176018  0
N  N82  1  0.49909061  0.44135707  0.20270327  1  -1.170368  0  -0.230764  -0.205363  0  3.583302  0
N  N83  1  0.49513363  0.53458925  0.79816383  1  -1.17676  0  -0.229622  -0.205353  0  3.569526  0
N  N84  1  0.76010800  0.50456043  0.49874547  1  -1.20894  0  -0.302642  -0.280867  0  3.507232  0
N  N85  1  0.24440359  0.50145757  0.49879295  1  -1.203307  0  -0.297714  -0.273942  0  3.498757  0
Cl  Cl86  1  0.35555044  0.34420647  0.35941107  1  -0.2081  0  -0.001402  -0.068538  0  1.565796  0
Cl  Cl87  1  0.33687642  0.63439190  0.64612070  1  -0.206683  0  -0.003133  -0.069935  0  1.559251  0
Cl  Cl88  1  0.47371725  0.25904167  0.59006461  1  -0.194085  0  -9.1e-05  -0.053503  0  1.493254  0
Cl  Cl89  1  0.56512283  0.77073149  0.60061570  1  -0.195649  0  -0.010742  -0.074201  0  1.466801  0
Cl  Cl90  1  0.47428005  0.74872492  0.41140001  1  -0.194307  0  -0.001423  -0.055253  0  1.484585  0
Cl  Cl91  1  0.58696087  0.22847812  0.40375997  1  -0.199384  0  -0.01139  -0.076828  0  1.480067  0
Cl  Cl92  1  0.74676426  0.42834958  0.41191378  1  -0.099511  0  0.064888  0.023373  0  1.607686  0
Cl  Cl93  1  0.25722859  0.66633113  0.47381992  1  -0.101549  0  0.052954  0.010059  0  1.588838  0
Cl  Cl94  1  0.74598639  0.58222759  0.58529128  1  -0.100319  0  0.064856  0.023638  0  1.604293  0
Cl  Cl95  1  0.25988875  0.33611819  0.52239374  1  -0.103924  0  0.054353  0.011657  0  1.58858  0
Cl  Cl96  1  0.23193930  0.56268023  0.87275985  1  -0.136431  0  0.013518  -0.030519  0  1.577471  0
Cl  Cl97  1  0.76351244  0.38126677  0.12280061  1  -0.125876  0  0.017394  -0.024352  0  1.626611  0
Cl  Cl98  1  0.23810952  0.57813605  0.98169066  1  -0.185055  0  0.007646  -0.057832  0  1.608399  0
Cl  Cl99  1  0.76073068  0.39582222  0.01638516  1  -0.186025  0  0.006476  -0.058729  0  1.62883  0
O  O100  1  0.45626061  0.37318771  0.49333760  1  -1.166239  0  -0.310326  -0.566176  0  2.405337  0
O  O101  1  0.60507410  0.63414232  0.50445285  1  -1.134269  0  -0.321274  -0.548717  0  2.340602  0
O  O102  1  0.44916544  0.62948806  0.50754041  1  -1.177128  0  -0.311083  -0.565305  0  2.406598  0
O  O103  1  0.61214610  0.37103429  0.49587991  1  -1.147863  0  -0.323092  -0.549714  0  2.329048  0
O  O104  1  0.39859676  0.49322482  0.42738979  1  -1.154094  0  -0.314828  -0.530524  0  2.347409  0
O  O105  1  0.55287129  0.48935779  0.56973097  1  -1.183104  0  -0.318832  -0.596008  0  2.411121  0
O  O106  1  0.39796451  0.50331084  0.57213477  1  -1.146119  0  -0.315788  -0.532958  0  2.359664  0
O  O107  1  0.55196974  0.51604521  0.42967345  1  -1.186296  0  -0.320232  -0.599529  0  2.411788  0
O  O108  1  0.34906505  0.48857237  0.20428611  1  -1.074016  0  -0.273609  -0.421256  0  2.08587  0
O  O109  1  0.64451418  0.58304863  0.79988368  1  -1.083036  0  -0.271511  -0.416748  0  2.082731  0
O  O110  1  0.34959597  0.47688653  0.79901302  1  -1.083874  0  -0.272912  -0.425018  0  2.113419  0
O  O111  1  0.64802453  0.39409245  0.20205040  1  -1.093037  0  -0.2772  -0.430211  0  2.139849  0
O  O112  1  0.94450913  0.43245144  0.41892669  1  -1.102108  0  -0.32885  -0.391619  0  2.299642  0
O  O113  1  0.05923949  0.65539952  0.47980369  1  -1.082351  0  -0.331568  -0.393563  0  2.299919  0
O  O114  1  0.94384800  0.57159806  0.57907566  1  -1.111599  0  -0.329962  -0.392224  0  2.300291  0
O  O115  1  0.06135204  0.34715591  0.51783928  1  -1.111632  0  -0.331575  -0.394764  0  2.29862  0
O  O116  1  0.39315917  0.32964916  0.25598917  1  -1.128644  0  -0.354034  -0.413777  0  2.312644  0
O  O117  1  0.37308803  0.63869344  0.74931799  1  -1.12447  0  -0.355172  -0.417865  0  2.322357  0
O  O118  1  0.25287223  0.44081420  0.12444734  1  -1.080689  0  -0.322729  -0.397545  0  2.273833  0
O  O119  1  0.74367654  0.55506863  0.87862683  1  -1.061384  0  -0.322997  -0.399175  0  2.279023  0
O  O120  1  0.61969495  0.42494419  0.64707545  1  -1.182633  0  -0.371116  -0.464617  0  2.273143  0
O  O121  1  0.61032454  0.57975845  0.34941715  1  -1.134305  0  -0.371316  -0.464745  0  2.270654  0
