# generated using pymatgen
data_CdH22C22(NO)4
_symmetry_space_group_name_H-M   'P 1'
_cell_length_a   13.36283189
_cell_length_b   13.57440951
_cell_length_c   16.93108579
_cell_angle_alpha   88.25989896
_cell_angle_beta   66.75533446
_cell_angle_gamma   60.50874196
_symmetry_Int_Tables_number   1
_chemical_formula_structural   CdH22C22(NO)4
_chemical_formula_sum   'Cd4 H88 C88 N16 O16'
_cell_volume   2404.10637220
_cell_formula_units_Z   4
loop_
 _symmetry_equiv_pos_site_id
 _symmetry_equiv_pos_as_xyz
  1  'x, y, z'
loop_
 _atom_site_type_symbol
 _atom_site_label
 _atom_site_symmetry_multiplicity
 _atom_site_fract_x
 _atom_site_fract_y
 _atom_site_fract_z
 _atom_site_occupancy
 _atom_site_pbe_bader_charge
 _atom_site_pbe_bader_spin_density
 _atom_site_pbe_cm5_charge
 _atom_site_pbe_ddec_charge
 _atom_site_pbe_ddec_spin_density
 _atom_site_pbe_ddec_sum_bond_order
 _atom_site_pbe_magmom
Cd  Cd0  1  0.43777516  0.79075916  0.27452253  1  1.23738  0  0.765834  0.846233  0  2.210522  0
Cd  Cd1  1  0.00299778  0.70929170  0.22541229  1  1.233858  0  0.765785  0.846059  0  2.209636  0
Cd  Cd2  1  0.56222475  0.20924112  0.72547701  1  1.23738  0  0.76584  0.846261  0  2.210478  0
Cd  Cd3  1  0.99700210  0.29070858  0.77458810  1  1.233837  0  0.76577  0.846064  0  2.209651  0
H  H4  1  0.75410514  0.52862098  0.41228597  1  0.489153  0  0.3479  0.303057  0  0.888748  0
H  H5  1  0.19520658  0.97126389  0.08768044  1  0.48347  0  0.348006  0.302147  0  0.891013  0
H  H6  1  0.24589468  0.47137844  0.58771403  1  0.489133  0  0.347905  0.30305  0  0.888754  0
H  H7  1  0.80479389  0.02873639  0.91231936  1  0.483494  0  0.348007  0.302143  0  0.891045  0
H  H8  1  0.00686322  0.78821632  0.43155885  1  0.554053  0  0.307561  0.292094  0  1.007402  0
H  H9  1  0.72686126  0.71167524  0.06820866  1  0.553023  0  0.307579  0.291608  0  1.007911  0
H  H10  1  0.99313657  0.21178309  0.56844199  1  0.554095  0  0.307549  0.292067  0  1.007443  0
H  H11  1  0.27313812  0.28832591  0.93179187  1  0.55301  0  0.307585  0.291607  0  1.007889  0
H  H12  1  0.66597748  0.70788583  0.35135050  1  0.239671  0  0.137494  0.11689  0  1.048579  0
H  H13  1  0.22517321  0.79210358  0.14867989  1  0.245793  0  0.137287  0.116574  0  1.048312  0
H  H14  1  0.33402234  0.29211359  0.64864950  1  0.239664  0  0.1375  0.116905  0  1.048567  0
H  H15  1  0.77482676  0.20789757  0.85132004  1  0.245792  0  0.137276  0.116568  0  1.048368  0
H  H16  1  0.43244650  0.54461214  0.28934704  1  0.083916  0  0.106856  0.119255  0  1.008731  0
H  H17  1  0.76646620  0.95555287  0.21034150  1  0.085086  0  0.106973  0.118808  0  1.009425  0
H  H18  1  0.56755438  0.45538641  0.71065308  1  0.083917  0  0.106842  0.119226  0  1.008737  0
H  H19  1  0.23353426  0.04444742  0.78965830  1  0.085059  0  0.106965  0.118789  0  1.009434  0
H  H20  1  0.46464003  0.35565682  0.32934018  1  0.036604  0  0.092412  0.085365  0  1.039045  0
H  H21  1  0.64989841  0.14443155  0.17021351  1  0.069754  0  0.092123  0.085046  0  1.039514  0
H  H22  1  0.53535979  0.64434260  0.67065982  1  0.036633  0  0.092404  0.085303  0  1.039119  0
H  H23  1  0.35010156  0.85556960  0.82978643  1  0.069754  0  0.092106  0.085048  0  1.039517  0
H  H24  1  0.60844199  0.24933955  0.39908432  1  0.049573  0  0.095342  0.090886  0  1.037164  0
H  H25  1  0.75721321  0.25072992  0.10059513  1  0.053484  0  0.095534  0.09149  0  1.036092  0
H  H26  1  0.39155780  0.75065986  0.60091652  1  0.04959  0  0.095363  0.090901  0  1.037143  0
H  H27  1  0.24278679  0.74927124  0.89940396  1  0.053496  0  0.095516  0.091453  0  1.036143  0
H  H28  1  0.72488621  0.32577732  0.43253972  1  0.096736  0  0.102742  0.115289  0  1.024566  0
H  H29  1  0.98353809  0.17421595  0.06736387  1  0.097911  0  0.103169  0.115592  0  1.024205  0
H  H30  1  0.27511252  0.67422296  0.56746100  1  0.096744  0  0.102746  0.115301  0  1.024563  0
H  H31  1  0.01646240  0.82578434  0.93263508  1  0.097932  0  0.103179  0.115595  0  1.024219  0
H  H32  1  0.20496263  0.73375533  0.29551455  1  0.168543  0  0.136746  0.109484  0  1.012685  0
H  H33  1  0.73423733  0.76629815  0.20426940  1  0.186331  0  0.136721  0.10882  0  1.014228  0
H  H34  1  0.79503725  0.26624495  0.70448584  1  0.168597  0  0.136768  0.109512  0  1.01259  0
H  H35  1  0.26576149  0.23370300  0.79573087  1  0.186346  0  0.136724  0.108821  0  1.01423  0
H  H36  1  0.31585572  0.90062702  0.48482230  1  0.08041  0  0.102093  0.110342  0  1.014532  0
H  H37  1  0.20139035  0.59949996  0.01520067  1  0.073801  0  0.101896  0.109499  0  1.0154  0
H  H38  1  0.68414634  0.09937154  0.51517663  1  0.080436  0  0.102084  0.11034  0  1.014467  0
H  H39  1  0.79860832  0.40049946  0.98479966  1  0.073789  0  0.101892  0.109483  0  1.015427  0
H  H40  1  0.16879175  0.97761257  0.64556049  1  0.065295  0  0.0953  0.096075  0  1.018984  0
H  H41  1  0.29232961  0.52232407  0.85444264  1  0.079628  0  0.09564  0.096794  0  1.019794  0
H  H42  1  0.83120930  0.02238772  0.35443872  1  0.065292  0  0.095294  0.096077  0  1.018996  0
H  H43  1  0.70766974  0.47767622  0.14555665  1  0.079612  0  0.095637  0.096782  0  1.019831  0
H  H44  1  0.97109097  0.97205654  0.71094562  1  0.063261  0  0.093279  0.090354  0  1.037203  0
H  H45  1  0.15461664  0.52769811  0.78896533  1  0.081483  0  0.093307  0.090271  0  1.036666  0
H  H46  1  0.02890908  0.02794548  0.28905386  1  0.063268  0  0.093278  0.090382  0  1.037212  0
H  H47  1  0.84538218  0.47230304  0.21103494  1  0.081487  0  0.093284  0.090243  0  1.036649  0
H  H48  1  0.90821029  0.89366625  0.62116769  1  0.078719  0  0.106793  0.12855  0  1.011311  0
H  H49  1  0.92352928  0.60603803  0.87863870  1  0.098184  0  0.10662  0.128012  0  1.01225  0
H  H50  1  0.09179178  0.10633231  0.37883124  1  0.078757  0  0.106794  0.128549  0  1.011307  0
H  H51  1  0.07646897  0.39396312  0.12136132  1  0.098206  0  0.106608  0.127995  0  1.012265  0
H  H52  1  0.42952299  0.80048230  0.00212662  1  -0.006279  0  0.094908  0.070488  0  0.968193  0
H  H53  1  0.73212043  0.69950780  0.49785836  1  0.002461  0  0.095251  0.071401  0  0.968525  0
H  H54  1  0.57047689  0.19951798  0.99787377  1  -0.006285  0  0.094911  0.07048  0  0.968188  0
H  H55  1  0.26787886  0.30049248  0.50214262  1  0.002446  0  0.095248  0.071374  0  0.968496  0
H  H56  1  0.42340213  0.62264555  0.02786655  1  0.036822  0  0.092061  0.092029  0  1.008792  0
H  H57  1  0.57381997  0.87742255  0.47223570  1  0.040587  0  0.092064  0.091977  0  1.008992  0
H  H58  1  0.57659775  0.37735474  0.97213384  1  0.036832  0  0.092054  0.09204  0  1.008766  0
H  H59  1  0.42617991  0.12257773  0.52776468  1  0.040579  0  0.092055  0.091975  0  1.008987  0
H  H60  1  0.59136741  0.54014219  0.98692199  1  0.022831  0  0.090431  0.087402  0  0.992976  0
H  H61  1  0.61843362  0.95984789  0.51313609  1  0.026821  0  0.090397  0.087444  0  0.992476  0
H  H62  1  0.40863297  0.45985723  0.01307826  1  0.022839  0  0.09043  0.087406  0  0.99298  0
H  H63  1  0.38156685  0.04015239  0.48686371  1  0.026821  0  0.090396  0.087446  0  0.992488  0
H  H64  1  0.44263312  0.67416597  0.88250741  1  0.011843  0  0.082986  0.074597  0  1.016132  0
H  H65  1  0.49928097  0.82585973  0.61757294  1  -0.005236  0  0.082923  0.07449  0  1.016783  0
H  H66  1  0.55736729  0.32583345  0.11749200  1  0.011835  0  0.08296  0.074575  0  1.016143  0
H  H67  1  0.50071941  0.17413969  0.38242731  1  -0.005241  0  0.082918  0.074482  0  1.016804  0
H  H68  1  0.53281935  0.52155321  0.86919297  1  0.059593  0  0.090678  0.091708  0  1.012008  0
H  H69  1  0.42355235  0.97846206  0.63088791  1  0.0359  0  0.090204  0.09134  0  1.011432  0
H  H70  1  0.46718047  0.47844621  0.13080703  1  0.059595  0  0.090676  0.091685  0  1.012023  0
H  H71  1  0.57644753  0.02153822  0.36911247  1  0.035907  0  0.09021  0.091359  0  1.011417  0
H  H72  1  0.64542272  0.60155340  0.75552435  1  0.014501  0  0.098422  0.077812  0  0.981396  0
H  H73  1  0.50255088  0.89838243  0.74455635  1  0.027178  0  0.098416  0.078134  0  0.981064  0
H  H74  1  0.35457766  0.39844602  0.24447590  1  0.014498  0  0.098417  0.077806  0  0.981397  0
H  H75  1  0.49744844  0.10161785  0.25544378  1  0.02718  0  0.098435  0.078168  0  0.981048  0
H  H76  1  0.73686239  0.70026028  0.80092213  1  0.035295  0  0.092077  0.093648  0  1.008769  0
H  H77  1  0.73819066  0.79973034  0.69901672  1  0.06054  0  0.091977  0.092734  0  1.010201  0
H  H78  1  0.26313693  0.29974000  0.19907800  1  0.035437  0  0.092084  0.093659  0  1.008764  0
H  H79  1  0.26180872  0.20027081  0.30098380  1  0.060551  0  0.091989  0.09277  0  1.010184  0
H  H80  1  0.56828542  0.78500550  0.84208431  1  0.010111  0  0.083424  0.07221  0  1.003613  0
H  H81  1  0.69549056  0.71494414  0.65794794  1  -0.013113  0  0.083162  0.07246  0  1.004482  0
H  H82  1  0.43171381  0.21499392  0.15791627  1  0.010113  0  0.083431  0.072228  0  1.003595  0
H  H83  1  0.30450929  0.28505614  0.34205329  1  -0.013117  0  0.083177  0.072473  0  1.004478  0
H  H84  1  0.63461822  0.79576060  0.95832737  1  0.004033  0  0.088258  0.085524  0  0.977988  0
H  H85  1  0.88877530  0.70420795  0.54161649  1  0.010981  0  0.088266  0.085143  0  0.978235  0
H  H86  1  0.36538110  0.20423969  0.04167277  1  0.004035  0  0.088248  0.085513  0  0.977978  0
H  H87  1  0.11122393  0.29579147  0.45838410  1  0.010978  0  0.088276  0.085152  0  0.978259  0
H  H88  1  0.71727356  0.64323161  0.94414446  1  0.033646  0  0.090875  0.086495  0  1.00328  0
H  H89  1  0.80467509  0.85672846  0.55578105  1  0.029613  0  0.09061  0.086813  0  1.003205  0
H  H90  1  0.28272741  0.35676781  0.05585520  1  0.033643  0  0.090856  0.08646  0  1.00331  0
H  H91  1  0.19532538  0.14327182  0.44421875  1  0.029598  0  0.090635  0.086865  0  1.00321  0
C  C92  1  0.64056009  0.64245301  0.35376016  1  0.967865  0  0.162008  0.183899  0  3.922438  0
C  C93  1  0.13680506  0.85753962  0.14618304  1  0.968737  0  0.162437  0.182333  0  3.923131  0
C  C94  1  0.35943976  0.35754642  0.64623899  1  0.967839  0  0.162026  0.183905  0  3.922422  0
C  C95  1  0.86319493  0.14246153  0.85381606  1  0.968703  0  0.162428  0.182344  0  3.923196  0
C  C96  1  0.64231953  0.47949318  0.37969788  1  0.330204  0  0.09458  0.144416  0  4.025491  0
C  C97  1  0.00170341  0.02050108  0.12012582  1  0.29266  0  0.093696  0.142721  0  4.024676  0
C  C98  1  0.35768026  0.52050624  0.62030296  1  0.330225  0  0.094603  0.144514  0  4.025587  0
C  C99  1  0.99829597  0.97950007  0.87987471  1  0.292642  0  0.093745  0.142724  0  4.024692  0
C  C100  1  0.56065604  0.54122686  0.33941645  1  0.421655  0  0.085396  0.138591  0  4.051949  0
C  C101  1  0.94140983  0.95880373  0.16035383  1  0.440542  0  0.085289  0.138107  0  4.050488  0
C  C102  1  0.43934322  0.45877256  0.66058329  1  0.421644  0  0.085343  0.138449  0  4.052131  0
C  C103  1  0.05859014  0.04119742  0.83964610  1  0.4406  0  0.085265  0.138096  0  4.050523  0
C  C104  1  0.49490301  0.49785586  0.32073172  1  -0.036337  0  -0.09455  -0.162626  0  3.988418  0
C  C105  1  0.81362541  0.00222847  0.17893612  1  -0.039457  0  -0.094333  -0.161278  0  3.986871  0
C  C106  1  0.50509684  0.50214356  0.67926743  1  -0.03634  0  -0.094567  -0.162598  0  3.988412  0
C  C107  1  0.18637465  0.99777354  0.82106336  1  -0.039461  0  -0.094288  -0.161184  0  3.986833  0
C  C108  1  0.51349592  0.39272434  0.34345508  1  -0.037743  0  -0.104223  -0.102423  0  4.056662  0
C  C109  1  0.74990820  0.10735186  0.15615640  1  -0.080662  0  -0.104181  -0.102255  0  4.055179  0
C  C110  1  0.48650381  0.60727421  0.65654537  1  -0.037811  0  -0.104225  -0.102396  0  4.056701  0
C  C111  1  0.25009121  0.89264929  0.84384328  1  -0.08066  0  -0.104193  -0.102349  0  4.055252  0
C  C112  1  0.59510733  0.33207267  0.38335143  1  -0.022872  0  -0.098356  -0.084381  0  4.036736  0
C  C113  1  0.81081972  0.16797953  0.11633543  1  -0.082974  0  -0.098717  -0.085668  0  4.037207  0
C  C114  1  0.40489190  0.66792674  0.61664915  1  -0.022804  0  -0.098335  -0.084313  0  4.036649  0
C  C115  1  0.18918010  0.83201989  0.88366457  1  -0.082966  0  -0.098714  -0.085602  0  4.037225  0
C  C116  1  0.66129944  0.37401865  0.40231068  1  -0.008757  0  -0.093032  -0.162519  0  3.98849  0
C  C117  1  0.93791312  0.12599145  0.09749696  1  0.080041  0  -0.092716  -0.162016  0  3.988737  0
C  C118  1  0.33869985  0.62598163  0.59769030  1  -0.008777  0  -0.09303  -0.162575  0  3.988479  0
C  C119  1  0.06208794  0.87400883  0.90250225  1  0.080025  0  -0.092708  -0.16199  0  3.98876  0
C  C120  1  0.18345352  0.77449260  0.35916389  1  1.024763  0  0.159383  0.186947  0  3.934691  0
C  C121  1  0.81719213  0.72553702  0.14064360  1  0.99821  0  0.159854  0.188668  0  3.933199  0
C  C122  1  0.81654683  0.22550596  0.64083512  1  1.024639  0  0.159345  0.186956  0  3.934635  0
C  C123  1  0.18280719  0.27446326  0.85935654  1  0.998158  0  0.159852  0.188656  0  3.933194  0
C  C124  1  0.08088227  0.84879687  0.50179614  1  0.344932  0  0.090256  0.136475  0  4.025144  0
C  C125  1  0.93175849  0.65107681  0.99804821  1  0.342066  0  0.090745  0.137575  0  4.022768  0
C  C126  1  0.91911814  0.15120255  0.49820327  1  0.344929  0  0.090298  0.136508  0  4.025094  0
C  C127  1  0.06824198  0.34892347  0.00195159  1  0.342108  0  0.090758  0.137567  0  4.022717  0
C  C128  1  0.19512704  0.85123312  0.46363341  1  0.377723  0  0.080487  0.132773  0  4.071814  0
C  C129  1  0.01016181  0.64875731  0.03626695  1  0.363713  0  0.080143  0.132017  0  4.069291  0
C  C130  1  0.80487387  0.14876544  0.53636586  1  0.377617  0  0.080478  0.132787  0  4.071834  0
C  C131  1  0.98983801  0.35124211  0.96373305  1  0.363721  0  0.080192  0.132119  0  4.069219  0
C  C132  1  0.22865043  0.89787527  0.51451742  1  -0.039074  0  -0.09745  -0.166482  0  3.993481  0
C  C133  1  0.14122875  0.60214171  0.98544166  1  -0.067287  0  -0.097304  -0.164563  0  3.991063  0
C  C134  1  0.77135063  0.10212502  0.48548179  1  -0.038931  0  -0.097427  -0.166465  0  3.993438  0
C  C135  1  0.85877107  0.39785771  0.01455834  1  -0.0673  0  -0.097311  -0.164595  0  3.991099  0
C  C136  1  0.14636566  0.94043149  0.60363472  1  -0.020519  0  -0.102171  -0.092423  0  4.035853  0
C  C137  1  0.19075973  0.55950187  0.89632281  1  -0.017963  0  -0.102264  -0.093637  0  4.034973  0
C  C138  1  0.85363599  0.05956880  0.39636390  1  -0.020625  0  -0.102166  -0.092424  0  4.035932  0
C  C139  1  0.80923902  0.44049842  0.10367706  1  -0.017969  0  -0.102253  -0.0936  0  4.034942  0
C  C140  1  0.03335898  0.93728860  0.64105259  1  -0.044256  0  -0.101686  -0.085483  0  4.030124  0
C  C141  1  0.11213210  0.56253582  0.85885303  1  -0.058198  0  -0.101425  -0.084908  0  4.029048  0
C  C142  1  0.96664046  0.06271256  0.35894624  1  -0.044562  0  -0.10171  -0.085604  0  4.030221  0
C  C143  1  0.88786672  0.43746533  0.14114724  1  -0.058191  0  -0.101415  -0.084881  0  4.028999  0
C  C144  1  0.99773744  0.89233177  0.59126451  1  -0.013259  0  -0.09597  -0.174234  0  3.986987  0
C  C145  1  0.98175711  0.60745573  0.90857509  1  -0.009989  0  -0.09642  -0.174585  0  3.989474  0
C  C146  1  0.00226362  0.10766852  0.40873469  1  -0.013024  0  -0.095955  -0.174148  0  3.986903  0
C  C147  1  0.01824171  0.39254542  0.09142518  1  -0.010053  0  -0.096408  -0.174584  0  3.989515  0
C  C148  1  0.49086481  0.74020350  0.10065179  1  1.528255  0  0.199369  0.581475  0  4.152574  0
C  C149  1  0.83158187  0.75981832  0.39929344  1  1.539809  0  0.199708  0.583744  0  4.150562  0
C  C150  1  0.50913616  0.25979592  0.89934787  1  1.52828  0  0.199361  0.58146  0  4.15258  0
C  C151  1  0.16841792  0.24018109  0.60070740  1  1.539488  0  0.199679  0.583663  0  4.150667  0
C  C152  1  0.77062915  0.48771562  0.80544467  1  1.524576  0  0.187992  0.570775  0  4.161546  0
C  C153  1  0.56386670  0.01221352  0.69461259  1  1.532087  0  0.188905  0.574145  0  4.157043  0
C  C154  1  0.22937064  0.51228379  0.19455617  1  1.525007  0  0.188037  0.570816  0  4.16153  0
C  C155  1  0.43613315  0.98778676  0.30538864  1  1.532535  0  0.188918  0.574134  0  4.156986  0
C  C156  1  0.51277382  0.72428802  0.00564595  1  0.037613  0  -0.090413  -0.10062  0  3.896394  0
C  C157  1  0.74267775  0.77569189  0.49434322  1  0.007272  0  -0.091279  -0.103885  0  3.899207  0
C  C158  1  0.48722657  0.27571140  0.99435430  1  0.037599  0  -0.090357  -0.100519  0  3.896327  0
C  C159  1  0.25732149  0.22430753  0.50565737  1  0.007637  0  -0.091241  -0.103756  0  3.899149  0
C  C160  1  0.51180699  0.61685112  0.98076859  1  -0.009988  0  -0.163831  -0.161694  0  3.901599  0
C  C161  1  0.60937935  0.88316777  0.51930419  1  -0.019807  0  -0.163577  -0.161188  0  3.902066  0
C  C162  1  0.48819283  0.38314830  0.01923140  1  -0.009927  0  -0.163853  -0.161768  0  3.901616  0
C  C163  1  0.39062103  0.11683165  0.48069606  1  -0.019824  0  -0.163582  -0.16123  0  3.902112  0
C  C164  1  0.52733766  0.60187785  0.88669739  1  -0.03752  0  -0.168582  -0.167657  0  3.931679  0
C  C165  1  0.51591959  0.89812167  0.61337381  1  -0.001725  0  -0.167928  -0.166574  0  3.931696  0
C  C166  1  0.47266222  0.39812243  0.11330299  1  -0.037514  0  -0.168572  -0.167613  0  3.931638  0
C  C167  1  0.48407979  0.10187947  0.38662671  1  -0.001723  0  -0.167915  -0.16657  0  3.931643  0
C  C168  1  0.64652418  0.60053049  0.82047887  1  0.006069  0  -0.089618  -0.099421  0  3.864878  0
C  C169  1  0.56757257  0.89942560  0.67957435  1  -0.007443  0  -0.08952  -0.100783  0  3.866114  0
C  C170  1  0.35347676  0.39946892  0.17952163  1  0.006051  0  -0.089619  -0.099411  0  3.864851  0
C  C171  1  0.43242734  0.10057469  0.32042519  1  -0.007441  0  -0.08953  -0.100775  0  3.865961  0
C  C172  1  0.64786181  0.70675438  0.84693312  1  -0.018265  0  -0.168035  -0.16392  0  3.937072  0
C  C173  1  0.70163512  0.79319966  0.65305590  1  -0.003887  0  -0.167683  -0.163423  0  3.939011  0
C  C174  1  0.35213751  0.29324590  0.15306702  1  -0.018406  0  -0.168045  -0.163971  0  3.937084  0
C  C175  1  0.29836476  0.20680062  0.34694449  1  -0.003888  0  -0.167712  -0.163489  0  3.938987  0
C  C176  1  0.63430954  0.71869348  0.94051612  1  -0.009165  0  -0.169905  -0.163651  0  3.943303  0
C  C177  1  0.79355810  0.78127320  0.55943262  1  -0.023813  0  -0.169651  -0.162996  0  3.941304  0
C  C178  1  0.36568978  0.28130680  0.05948402  1  -0.009165  0  -0.169894  -0.163617  0  3.943268  0
C  C179  1  0.20644122  0.21872708  0.44056752  1  -0.023805  0  -0.169671  -0.163063  0  3.941401  0
N  N180  1  0.56263446  0.64169427  0.32414607  1  -1.213407  0  -0.354578  -0.356659  0  3.473636  0
N  N181  1  0.02849376  0.85832604  0.17570380  1  -1.217654  0  -0.354308  -0.355129  0  3.471139  0
N  N182  1  0.43736595  0.35830516  0.67585333  1  -1.213402  0  -0.354561  -0.356625  0  3.473691  0
N  N183  1  0.97150606  0.14167338  0.82429619  1  -1.217591  0  -0.354315  -0.355159  0  3.47125  0
N  N184  1  0.69067841  0.54679682  0.38742828  1  -1.282217  0  -0.376119  -0.275253  0  3.629205  0
N  N185  1  0.12504677  0.95315543  0.11250039  1  -1.280393  0  -0.376344  -0.272603  0  3.630435  0
N  N186  1  0.30932191  0.45320174  0.61257158  1  -1.28221  0  -0.376141  -0.275264  0  3.629228  0
N  N187  1  0.87495320  0.04684572  0.88749954  1  -1.280382  0  -0.376345  -0.272605  0  3.63044  0
N  N188  1  0.25647638  0.80393601  0.37449927  1  -1.224637  0  -0.365109  -0.366789  0  3.503626  0
N  N189  1  0.93496386  0.69614368  0.12537383  1  -1.229403  0  -0.365442  -0.36798  0  3.504448  0
N  N190  1  0.74352512  0.19606255  0.62549941  1  -1.224541  0  -0.365085  -0.366861  0  3.503662  0
N  N191  1  0.06503602  0.30385660  0.87462655  1  -1.2294  0  -0.365473  -0.368069  0  3.504548  0
N  N192  1  0.07807701  0.79891068  0.43318518  1  -1.303761  0  -0.378003  -0.273064  0  3.621399  0
N  N193  1  0.81039026  0.70099887  0.06659481  1  -1.28113  0  -0.378045  -0.273223  0  3.617396  0
N  N194  1  0.92192446  0.20108788  0.56681434  1  -1.303758  0  -0.378029  -0.273076  0  3.621421  0
N  N195  1  0.18960915  0.29900228  0.93340487  1  -1.281088  0  -0.378063  -0.273182  0  3.617317  0
O  O196  1  0.57542947  0.73924457  0.11912212  1  -1.183384  0  -0.32483  -0.56035  0  2.265434  0
O  O197  1  0.93366817  0.76082153  0.38072511  1  -1.181809  0  -0.324971  -0.560799  0  2.265043  0
O  O198  1  0.42457200  0.26075399  0.88087740  1  -1.183364  0  -0.324801  -0.560337  0  2.265412  0
O  O199  1  0.06633162  0.23917789  0.61927573  1  -1.181827  0  -0.324953  -0.560758  0  2.265072  0
O  O200  1  0.38738397  0.75486195  0.16078116  1  -1.183655  0  -0.330023  -0.555995  0  2.207539  0
O  O201  1  0.80280607  0.74515832  0.33921871  1  -1.177634  0  -0.329877  -0.556669  0  2.206442  0
O  O202  1  0.61261709  0.24513834  0.83921805  1  -1.183688  0  -0.330041  -0.556012  0  2.207527  0
O  O203  1  0.19719372  0.25484110  0.66078213  1  -1.177692  0  -0.329905  -0.556694  0  2.206464  0
O  O204  1  0.87209278  0.49027715  0.78428885  1  -1.160987  0  -0.345365  -0.558314  0  2.159961  0
O  O205  1  0.64674300  0.00962580  0.71576586  1  -1.155279  0  -0.346005  -0.559928  0  2.157478  0
O  O206  1  0.12790701  0.50972227  0.21571199  1  -1.161399  0  -0.345407  -0.558353  0  2.16  0
O  O207  1  0.35325794  0.99037361  0.28423464  1  -1.155244  0  -0.346018  -0.559937  0  2.15746  0
O  O208  1  0.76959792  0.39422201  0.81251586  1  -1.179181  0  -0.342171  -0.57684  0  2.183278  0
O  O209  1  0.47645353  0.10570681  0.68749920  1  -1.186587  0  -0.34263  -0.578217  0  2.183342  0
O  O210  1  0.23040246  0.60577741  0.18748439  1  -1.179158  0  -0.342163  -0.576837  0  2.183268  0
O  O211  1  0.52354630  0.89429347  0.31250287  1  -1.187059  0  -0.342635  -0.578221  0  2.183362  0
