# generated using pymatgen
data_Na2ZnH10C6S2(NO5)2
_symmetry_space_group_name_H-M   'P 1'
_cell_length_a   6.18456955
_cell_length_b   8.54079143
_cell_length_c   13.12369930
_cell_angle_alpha   97.32896098
_cell_angle_beta   90.00007573
_cell_angle_gamma   89.99973389
_symmetry_Int_Tables_number   1
_chemical_formula_structural   Na2ZnH10C6S2(NO5)2
_chemical_formula_sum   'Na4 Zn2 H20 C12 S4 N4 O20'
_cell_volume   687.54502562
_cell_formula_units_Z   2
loop_
 _symmetry_equiv_pos_site_id
 _symmetry_equiv_pos_as_xyz
  1  'x, y, z'
loop_
 _atom_site_type_symbol
 _atom_site_label
 _atom_site_symmetry_multiplicity
 _atom_site_fract_x
 _atom_site_fract_y
 _atom_site_fract_z
 _atom_site_occupancy
 _atom_site_pbe_bader_charge
 _atom_site_pbe_bader_spin_density
 _atom_site_pbe_cm5_charge
 _atom_site_pbe_ddec_charge
 _atom_site_pbe_ddec_spin_density
 _atom_site_pbe_ddec_sum_bond_order
 _atom_site_pbe_magmom
Na  Na0  1  0.38544486  0.30842373  0.96047469  1  0.892498  0  0.712309  0.884062  0  0.517966  0
Na  Na1  1  0.88544484  0.19157650  0.03952330  1  0.892513  0  0.712308  0.884055  0  0.51798  0
Na  Na2  1  0.61454730  0.69157643  0.03952284  1  0.892489  0  0.712318  0.884064  0  0.517973  0
Na  Na3  1  0.11455055  0.80842249  0.96047564  1  0.892506  0  0.712304  0.884058  0  0.517986  0
Zn  Zn4  1  0.00000413  0.49999759  0.49999937  1  1.290826  0  0.675033  0.854377  0  2.271612  0
Zn  Zn5  1  0.50000098  0.99999800  0.49999962  1  1.290785  0  0.674988  0.854389  0  2.271683  0
H  H6  1  0.26962603  0.39655402  0.61748669  1  0.484846  0  0.293844  0.291336  0  0.981683  0
H  H7  1  0.76962588  0.10344405  0.38251419  1  0.48486  0  0.293842  0.2913  0  0.981715  0
H  H8  1  0.73037421  0.60344378  0.38251368  1  0.484859  0  0.293847  0.291285  0  0.981717  0
H  H9  1  0.23037598  0.89655493  0.61748552  1  0.484874  0  0.293844  0.291301  0  0.981695  0
H  H10  1  0.12633362  0.52018890  0.70269624  1  0.433632  0  0.294346  0.289382  0  0.97026  0
H  H11  1  0.62633418  0.97981118  0.29730309  1  0.434043  0  0.294334  0.289346  0  0.970278  0
H  H12  1  0.87366339  0.47981008  0.29730271  1  0.434044  0  0.294331  0.28934  0  0.970283  0
H  H13  1  0.37366606  0.02019016  0.70269605  1  0.434051  0  0.294332  0.289357  0  0.970283  0
H  H14  1  0.70530989  0.24569461  0.74913839  1  0.145106  0  0.116936  0.152615  0  1.001041  0
H  H15  1  0.20531868  0.25431067  0.25085853  1  0.09479  0  0.116965  0.152666  0  1.001015  0
H  H16  1  0.29468227  0.75430674  0.25085770  1  0.145027  0  0.116928  0.152606  0  1.001043  0
H  H17  1  0.79468803  0.74569304  0.74914233  1  0.144993  0  0.116938  0.152609  0  1.001065  0
H  H18  1  0.70434353  0.43933394  0.70798210  1  0.154385  0  0.115633  0.162006  0  0.999392  0
H  H19  1  0.20433987  0.06067134  0.29201559  1  0.15445  0  0.115635  0.162076  0  0.99935  0
H  H20  1  0.29565671  0.56066741  0.29201324  1  0.154416  0  0.115592  0.161959  0  0.999296  0
H  H21  1  0.79565875  0.93933354  0.70798690  1  0.154425  0  0.115617  0.162013  0  0.999322  0
H  H22  1  0.09458022  0.21677068  0.70192046  1  0.061856  0  0.115029  0.075727  0  0.964455  0
H  H23  1  0.59458104  0.28323007  0.29808297  1  0.061902  0  0.115007  0.07569  0  0.964483  0
H  H24  1  0.90541841  0.78322948  0.29808011  1  0.061959  0  0.115035  0.075714  0  0.964472  0
H  H25  1  0.40542244  0.71677127  0.70191846  1  0.061867  0  0.115031  0.075686  0  0.964491  0
C  C26  1  0.80384815  0.34906651  0.73829793  1  -0.234509  0  -0.151275  -0.39427  0  3.82594  0
C  C27  1  0.30384991  0.15093387  0.26170085  1  -0.184288  0  -0.151316  -0.394468  0  3.825938  0
C  C28  1  0.19614886  0.65093484  0.26170045  1  -0.234401  0  -0.151213  -0.39424  0  3.825801  0
C  C29  1  0.69615195  0.84906629  0.73829972  1  -0.234435  0  -0.151283  -0.394381  0  3.825901  0
C  C30  1  0.99195016  0.29941196  0.66559227  1  0.300635  0  0.00323  0.083445  0  3.852891  0
C  C31  1  0.49195031  0.20058689  0.33440863  1  0.300242  0  0.003229  0.08356  0  3.852767  0
C  C32  1  0.00804846  0.70058702  0.33440592  1  0.300422  0  0.00317  0.083383  0  3.852839  0
C  C33  1  0.50805155  0.79941327  0.66559118  1  0.300276  0  0.003256  0.083619  0  3.852689  0
C  C34  1  0.89549249  0.20433620  0.56793550  1  1.609759  0  0.218065  0.584646  0  4.11619  0
C  C35  1  0.39548268  0.29567227  0.43206088  1  1.609483  0  0.217993  0.584452  0  4.116539  0
C  C36  1  0.10451099  0.79565924  0.43206315  1  1.61  0  0.218294  0.585055  0  4.115857  0
C  C37  1  0.60452080  0.70433025  0.56794064  1  1.609649  0  0.217947  0.584404  0  4.116372  0
S  S38  1  0.89087121  0.42970343  0.86357517  1  3.141688  0  0.508093  1.279706  0  6.134618  0
S  S39  1  0.39087453  0.07029679  0.13642434  1  3.141228  0  0.508092  1.279771  0  6.134564  0
S  S40  1  0.10912094  0.57029674  0.13642311  1  3.141263  0  0.508162  1.279888  0  6.134204  0
S  S41  1  0.60912409  0.92970337  0.86357623  1  3.141004  0  0.50811  1.279855  0  6.134376  0
N  N42  1  0.11746982  0.43558429  0.64011355  1  -1.162706  0  -0.627708  -0.60264  0  3.364554  0
N  N43  1  0.61746827  0.06441171  0.35988567  1  -1.163074  0  -0.627678  -0.602569  0  3.364566  0
N  N44  1  0.88253204  0.56441352  0.35988606  1  -1.163063  0  -0.627665  -0.602513  0  3.364552  0
N  N45  1  0.38253359  0.93558728  0.64011404  1  -1.163068  0  -0.627699  -0.602586  0  3.364481  0
O  O46  1  0.69303054  0.45276199  0.92695792  1  -1.375677  0  -0.455074  -0.739099  0  2.213788  0
O  O47  1  0.19303366  0.04723977  0.07304176  1  -1.375642  0  -0.455089  -0.739125  0  2.213731  0
O  O48  1  0.30696161  0.54724054  0.07303979  1  -1.3759  0  -0.455085  -0.739108  0  2.213528  0
O  O49  1  0.80696011  0.95275921  0.92696024  1  -1.375598  0  -0.455058  -0.739101  0  2.213628  0
O  O50  1  0.03569516  0.31100666  0.90020454  1  -1.372547  0  -0.466146  -0.738259  0  2.216323  0
O  O51  1  0.53569718  0.18899420  0.09979434  1  -1.372145  0  -0.466146  -0.738286  0  2.216402  0
O  O52  1  0.96429376  0.68899232  0.09979364  1  -1.371993  0  -0.466172  -0.738355  0  2.216318  0
O  O53  1  0.46429659  0.81100596  0.90020471  1  -1.371943  0  -0.466177  -0.738345  0  2.216311  0
O  O54  1  0.00208590  0.57945313  0.85264463  1  -1.362752  0  -0.392145  -0.675443  0  2.17505  0
O  O55  1  0.50208927  0.92054836  0.14735561  1  -1.362762  0  -0.392135  -0.675444  0  2.175034  0
O  O56  1  0.99790626  0.42054586  0.14735432  1  -1.362724  0  -0.392161  -0.675524  0  2.174997  0
O  O57  1  0.49790774  0.07945298  0.85264506  1  -1.362785  0  -0.392143  -0.675493  0  2.175028  0
O  O58  1  0.90405195  0.26314947  0.48370349  1  -1.167931  0  -0.306313  -0.525712  0  2.312341  0
O  O59  1  0.40405780  0.23684363  0.51630000  1  -1.167326  0  -0.306385  -0.525779  0  2.311996  0
O  O60  1  0.09595153  0.73684715  0.51629145  1  -1.168315  0  -0.306492  -0.525943  0  2.312364  0
O  O61  1  0.59594891  0.76315653  0.48370210  1  -1.167443  0  -0.30635  -0.525723  0  2.311869  0
O  O62  1  0.80941117  0.07406096  0.58031159  1  -1.193597  0  -0.316318  -0.554652  0  2.291687  0
O  O63  1  0.30941459  0.42592760  0.41969154  1  -1.193715  0  -0.316188  -0.554444  0  2.292443  0
O  O64  1  0.19059554  0.92594039  0.41968603  1  -1.193513  0  -0.316365  -0.554839  0  2.291568  0
O  O65  1  0.69059050  0.57407020  0.58031036  1  -1.193801  0  -0.316186  -0.55446  0  2.292381  0
