# generated using pymatgen
data_ZnH16C16(NO)4
_symmetry_space_group_name_H-M   'P 1'
_cell_length_a   8.17669396
_cell_length_b   7.47210912
_cell_length_c   8.67962239
_cell_angle_alpha   110.95757290
_cell_angle_beta   95.97971936
_cell_angle_gamma   117.40771770
_symmetry_Int_Tables_number   1
_chemical_formula_structural   ZnH16C16(NO)4
_chemical_formula_sum   'Zn1 H16 C16 N4 O4'
_cell_volume   415.87724744
_cell_formula_units_Z   1
loop_
 _symmetry_equiv_pos_site_id
 _symmetry_equiv_pos_as_xyz
  1  'x, y, z'
loop_
 _atom_site_type_symbol
 _atom_site_label
 _atom_site_symmetry_multiplicity
 _atom_site_fract_x
 _atom_site_fract_y
 _atom_site_fract_z
 _atom_site_occupancy
 _atom_site_hle17_bader_spin_density
 _atom_site_hle17_ddec_charge
 _atom_site_hle17_ddec_spin_density
 _atom_site_hle17_ddec_sum_bond_order
 _atom_site_hle17_magmom
 _atom_site_hse06_10hf_bader_spin_density
 _atom_site_hse06_10hf_ddec_charge
 _atom_site_hse06_10hf_ddec_spin_density
 _atom_site_hse06_10hf_ddec_sum_bond_order
 _atom_site_hse06_10hf_magmom
 _atom_site_hse06_bader_spin_density
 _atom_site_hse06_ddec_charge
 _atom_site_hse06_ddec_spin_density
 _atom_site_hse06_ddec_sum_bond_order
 _atom_site_hse06_magmom
 _atom_site_pbe_bader_spin_density
 _atom_site_pbe_cm5_charge
 _atom_site_pbe_ddec_charge
 _atom_site_pbe_ddec_spin_density
 _atom_site_pbe_ddec_sum_bond_order
 _atom_site_pbe_magmom
Zn  Zn0  1  0.49999833  0.49999929  0.49999943  1  0  0.916073  0  1.896232  0  0  0.734143  0  2.329264  0  0  0.775417  0  2.288126  0  0  0.673793  0.705686  0  2.357213  0
H  H1  1  0.80333302  0.47191149  0.84877649  1  0  0.065566  0  0.918385  0  0  0.084753  0  0.978806  0  0  0.085246  0  0.978512  0  0  0.107873  0.084379  0  0.979047  0
H  H2  1  0.19668811  0.52812049  0.15122267  1  0  0.065528  0  0.918391  0  0  0.084684  0  0.978818  0  0  0.085192  0  0.978513  0  0  0.107844  0.084308  0  0.979078  0
H  H3  1  0.56210125  0.36124476  0.85279426  1  0  0.068566  0  0.923398  0  0  0.088451  0  0.982921  0  0  0.088455  0  0.983982  0  0  0.108504  0.088451  0  0.982189  0
H  H4  1  0.43792560  0.63876393  0.14721850  1  0  0.068533  0  0.923348  0  0  0.088395  0  0.982877  0  0  0.088402  0  0.983941  0  0  0.108472  0.088391  0  0.982144  0
H  H5  1  0.83745908  0.78047937  0.14147788  1  0  0.102276  0  0.963552  0  0  0.11105  0  1.027188  0  0  0.112822  0  1.028754  0  0  0.104272  0.109696  0  1.026359  0
H  H6  1  0.16252716  0.21951832  0.85852144  1  0  0.10222  0  0.963531  0  0  0.110974  0  1.027186  0  0  0.112746  0  1.028752  0  0  0.104255  0.109624  0  1.026348  0
H  H7  1  0.88219530  0.16536337  0.26496969  1  0  0.109354  0  0.943308  0  0  0.120174  0  1.000229  0  0  0.122886  0  0.997827  0  0  0.1128  0.118099  0  1.00209  0
H  H8  1  0.11778569  0.83463129  0.73502933  1  0  0.109358  0  0.943272  0  0  0.120229  0  1.000147  0  0  0.122942  0  0.997744  0  0  0.112816  0.118149  0  1.002015  0
H  H9  1  0.76789806  0.28255940  0.06162516  1  0  0.104149  0  0.947305  0  0  0.114537  0  1.006076  0  0  0.118109  0  1.004752  0  0  0.106928  0.111971  0  1.007165  0
H  H10  1  0.23209664  0.71744233  0.93837171  1  0  0.104187  0  0.947302  0  0  0.114554  0  1.006083  0  0  0.118127  0  1.004758  0  0  0.106923  0.111998  0  1.007162  0
H  H11  1  0.61931061  0.01141356  0.74009255  1  0  0.083283  0  0.94948  0  0  0.092125  0  1.012609  0  0  0.094338  0  1.011279  0  0  0.118797  0.090457  0  1.013625  0
H  H12  1  0.38069136  0.98859265  0.25990408  1  0  0.083293  0  0.949425  0  0  0.092139  0  1.012579  0  0  0.094353  0  1.011244  0  0  0.118778  0.090482  0  1.013566  0
H  H13  1  0.46844590  0.17818777  0.56835265  1  0  0.290842  0  0.964483  0  0  0.275722  0  1.02777  0  0  0.283514  0  1.021849  0  0  0.279429  0.270161  0  1.032052  0
H  H14  1  0.53156166  0.82181642  0.43165492  1  0  0.290798  0  0.964541  0  0  0.27577  0  1.027682  0  0  0.283561  0  1.021757  0  0  0.279481  0.270209  0  1.031967  0
H  H15  1  0.69157085  0.31250147  0.56099799  1  0  0.310839  0  0.909256  0  0  0.29872  0  0.967287  0  0  0.306337  0  0.960406  0  0  0.292228  0.293248  0  0.972325  0
H  H16  1  0.30843278  0.68750885  0.43900439  1  0  0.310843  0  0.909216  0  0  0.298723  0  0.967258  0  0  0.306334  0  0.960384  0  0  0.292236  0.293249  0  0.972299  0
C  C17  1  0.66626638  0.45871408  0.79983653  1  0  0.022774  0  3.667306  0  0  -0.041139  0  3.927838  0  0  -0.037191  0  3.937857  0  0  -0.059433  -0.043814  0  3.920861  0
C  C18  1  0.33374370  0.54129940  0.20016754  1  0  0.022952  0  3.667204  0  0  -0.040882  0  3.927676  0  0  -0.036962  0  3.937717  0  0  -0.059348  -0.043565  0  3.920698  0
C  C19  1  0.70203186  0.69540956  0.87748102  1  0  0.229727  0  3.713949  0  0  0.232195  0  3.956182  0  0  0.24  0  3.976878  0  0  0.123859  0.227146  0  3.942081  0
C  C20  1  0.29796247  0.30459410  0.12251734  1  0  0.229595  0  3.714043  0  0  0.232046  0  3.956243  0  0  0.239853  0  3.97695  0  0  0.123772  0.227002  0  3.94214  0
C  C21  1  0.78984565  0.83783268  0.05708302  1  0  -0.176763  0  3.73534  0  0  -0.195136  0  3.988588  0  0  -0.204331  0  4.01308  0  0  -0.08935  -0.189314  0  3.972307  0
C  C22  1  0.21014382  0.16216640  0.94291594  1  0  -0.176561  0  3.735284  0  0  -0.19491  0  3.98857  0  0  -0.204105  0  4.013061  0  0  -0.089281  -0.189097  0  3.972284  0
C  C23  1  0.81577477  0.05180783  0.12541801  1  0  0.006137  0  3.719603  0  0  -0.015384  0  3.974242  0  0  -0.01091  0  3.992987  0  0  -0.065338  -0.017995  0  3.961442  0
C  C24  1  0.18421672  0.94819270  0.87458041  1  0  0.005989  0  3.719625  0  0  -0.015597  0  3.974287  0  0  -0.011124  0  3.993031  0  0  -0.065467  -0.018206  0  3.961487  0
C  C25  1  0.75303469  0.11788679  0.01194791  1  0  -0.139268  0  3.764276  0  0  -0.154652  0  4.023085  0  0  -0.162544  0  4.044799  0  0  -0.089977  -0.149633  0  4.008448  0
C  C26  1  0.24696766  0.88211749  0.98804722  1  0  -0.139299  0  3.764337  0  0  -0.154648  0  4.023163  0  0  -0.162541  0  4.044879  0  0  -0.08993  -0.149644  0  4.008526  0
C  C27  1  0.66868410  0.96781799  0.83480291  1  0  0.132079  0  3.712958  0  0  0.100232  0  3.967693  0  0  0.107029  0  3.98666  0  0  0.047967  0.095948  0  3.954702  0
C  C28  1  0.33131787  0.03218822  0.16519371  1  0  0.132142  0  3.713001  0  0  0.100256  0  3.96771  0  0  0.107051  0  3.986682  0  0  0.048043  0.095973  0  3.954736  0
C  C29  1  0.89892010  0.83141636  0.47095334  1  0  0.166232  0  3.919549  0  0  0.147644  0  4.20321  0  0  0.160495  0  4.214451  0  0  0.075409  0.138953  0  4.195284  0
C  C30  1  0.10107389  0.16856110  0.52903731  1  0  0.166109  0  3.919369  0  0  0.147499  0  4.203055  0  0  0.16035  0  4.214291  0  0  0.075304  0.138806  0  4.195129  0
C  C31  1  0.10958362  0.96436321  0.49644467  1  0  0.161433  0  3.921239  0  0  0.142542  0  4.2044  0  0  0.154228  0  4.216849  0  0  0.078079  0.134702  0  4.195557  0
C  C32  1  0.89041278  0.03561452  0.50354874  1  0  0.16137  0  3.921242  0  0  0.14247  0  4.204476  0  0  0.154153  0  4.216929  0  0  0.077895  0.134623  0  4.195639  0
N  N33  1  0.59067843  0.33876401  0.60896511  1  0  -0.630968  0  3.134243  0  0  -0.572585  0  3.387219  0  0  -0.591535  0  3.381866  0  0  -0.635913  -0.559434  0  3.390887  0
N  N34  1  0.40932514  0.66124152  0.39103861  1  0  -0.630971  0  3.134313  0  0  -0.572675  0  3.387282  0  0  -0.591596  0  3.381918  0  0  -0.635967  -0.559512  0  3.390941  0
N  N35  1  0.64406513  0.76114445  0.76933227  1  0  -0.342989  0  3.247415  0  0  -0.267837  0  3.498879  0  0  -0.2862  0  3.516254  0  0  -0.317448  -0.255565  0  3.487022  0
N  N36  1  0.35593280  0.23885886  0.23066544  1  0  -0.343049  0  3.247613  0  0  -0.267856  0  3.499059  0  0  -0.286219  0  3.516435  0  0  -0.317433  -0.255587  0  3.487205  0
O  O37  1  0.78039192  0.62795483  0.43541346  1  0  -0.510401  0  2.078928  0  0  -0.461944  0  2.323205  0  0  -0.481888  0  2.316978  0  0  -0.323927  -0.447926  0  2.327046  0
O  O38  1  0.21960367  0.37202196  0.56458427  1  0  -0.51034  0  2.078842  0  0  -0.461869  0  2.323111  0  0  -0.481811  0  2.316879  0  0  -0.32389  -0.44785  0  2.326949  0
O  O39  1  0.24160227  0.92118842  0.49484634  1  0  -0.510819  0  2.086411  0  0  -0.466431  0  2.310934  0  0  -0.486467  0  2.307851  0  0  -0.311545  -0.452259  0  2.31261  0
O  O40  1  0.75839792  0.07880265  0.50517015  1  0  -0.510817  0  2.086311  0  0  -0.466482  0  2.310865  0  0  -0.486517  0  2.307784  0  0  -0.311508  -0.45231  0  2.312545  0
