# generated using pymatgen
data_PH6PbC3NO5
_symmetry_space_group_name_H-M   'P 1'
_cell_length_a   4.61230553
_cell_length_b   7.84496544
_cell_length_c   9.91078403
_cell_angle_alpha   104.75959351
_cell_angle_beta   100.68562373
_cell_angle_gamma   90.19115998
_symmetry_Int_Tables_number   1
_chemical_formula_structural   PH6PbC3NO5
_chemical_formula_sum   'P2 H12 Pb2 C6 N2 O10'
_cell_volume   340.27658778
_cell_formula_units_Z   2
loop_
 _symmetry_equiv_pos_site_id
 _symmetry_equiv_pos_as_xyz
  1  'x, y, z'
loop_
 _atom_site_type_symbol
 _atom_site_label
 _atom_site_symmetry_multiplicity
 _atom_site_fract_x
 _atom_site_fract_y
 _atom_site_fract_z
 _atom_site_occupancy
 _atom_site_hle17_bader_spin_density
 _atom_site_hle17_ddec_charge
 _atom_site_hle17_ddec_spin_density
 _atom_site_hle17_ddec_sum_bond_order
 _atom_site_hle17_magmom
 _atom_site_hse06_10hf_bader_spin_density
 _atom_site_hse06_10hf_ddec_charge
 _atom_site_hse06_10hf_ddec_spin_density
 _atom_site_hse06_10hf_ddec_sum_bond_order
 _atom_site_hse06_10hf_magmom
 _atom_site_hse06_bader_spin_density
 _atom_site_hse06_ddec_charge
 _atom_site_hse06_ddec_spin_density
 _atom_site_hse06_ddec_sum_bond_order
 _atom_site_hse06_magmom
 _atom_site_pbe_bader_spin_density
 _atom_site_pbe_cm5_charge
 _atom_site_pbe_ddec_charge
 _atom_site_pbe_ddec_spin_density
 _atom_site_pbe_ddec_sum_bond_order
 _atom_site_pbe_magmom
P  P0  1  0.96529862  0.17342637  0.38315571  1  0  1.457137  0  4.923769  0  0  1.292551  0  5.429005  0  0  1.3437  0  5.393401  0  0  0.335973  1.256807  0  5.452851  0
P  P1  1  0.03472183  0.82657769  0.61683769  1  0  1.457009  0  4.924183  0  0  1.292345  0  5.429408  0  0  1.343537  0  5.393849  0  0  0.335983  1.256608  0  5.453253  0
H  H2  1  0.94761244  0.39533861  0.24541154  1  0  0.140872  0  0.934247  0  0  0.154975  0  0.991158  0  0  0.15774  0  0.9901  0  0  0.120186  0.152879  0  0.992261  0
H  H3  1  0.05238285  0.60465894  0.75460051  1  0  0.140805  0  0.934263  0  0  0.154911  0  0.991114  0  0  0.157707  0  0.990065  0  0  0.120145  0.152817  0  0.992215  0
H  H4  1  0.28959860  0.40625773  0.36410028  1  0  0.126924  0  0.936218  0  0  0.140376  0  0.996481  0  0  0.142604  0  0.995562  0  0  0.119823  0.138767  0  0.997328  0
H  H5  1  0.71040173  0.59374509  0.63590521  1  0  0.126914  0  0.936322  0  0  0.140292  0  0.996606  0  0  0.142554  0  0.995699  0  0  0.11979  0.138685  0  0.997451  0
H  H6  1  0.44180932  0.14715587  0.21656996  1  0  0.306205  0  0.913898  0  0  0.284934  0  0.976047  0  0  0.293874  0  0.969987  0  0  0.30621  0.278578  0  0.980328  0
H  H7  1  0.55816857  0.85284309  0.78343075  1  0  0.306255  0  0.914029  0  0  0.284932  0  0.976222  0  0  0.293883  0  0.97014  0  0  0.306194  0.278579  0  0.980503  0
H  H8  1  0.10439354  0.09882880  0.11510440  1  0  0.296701  0  0.871348  0  0  0.274758  0  0.938991  0  0  0.283403  0  0.931792  0  0  0.313886  0.268442  0  0.944439  0
H  H9  1  0.89557571  0.90117152  0.88489178  1  0  0.296917  0  0.8712  0  0  0.274886  0  0.938944  0  0  0.283531  0  0.931741  0  0  0.313942  0.268571  0  0.944393  0
H  H10  1  0.38241009  0.43651097  0.11896335  1  0  0.096489  0  0.950646  0  0  0.107484  0  1.022223  0  0  0.109451  0  1.021157  0  0  0.115782  0.106058  0  1.022971  0
H  H11  1  0.61756236  0.56347877  0.88104410  1  0  0.096487  0  0.950671  0  0  0.107482  0  1.022212  0  0  0.109448  0  1.021144  0  0  0.115739  0.106055  0  1.02296  0
H  H12  1  0.52555176  0.23809241  0.03199444  1  0  0.130751  0  0.946371  0  0  0.141657  0  1.005242  0  0  0.145216  0  1.003196  0  0  0.121517  0.13898  0  1.006994  0
H  H13  1  0.47445212  0.76190247  0.96801481  1  0  0.130761  0  0.946426  0  0  0.141608  0  1.005333  0  0  0.14516  0  1.003296  0  0  0.121489  0.138932  0  1.007082  0
Pb  Pb14  1  0.43217561  0.79823994  0.32978232  1  0  1.400919  0  1.443073  0  0  1.226636  0  1.836892  0  0  1.280811  0  1.794414  0  0  0.657417  1.186709  0  1.866988  0
Pb  Pb15  1  0.56794753  0.20179670  0.67021663  1  0  1.400862  0  1.443129  0  0  1.226606  0  1.836949  0  0  1.280782  0  1.794455  0  0  0.657422  1.186664  0  1.867055  0
C  C16  1  0.11670361  0.31562302  0.28894796  1  0  -0.297049  0  3.520928  0  0  -0.339167  0  3.775048  0  0  -0.343247  0  3.77966  0  0  -0.074657  -0.336589  0  3.772466  0
C  C17  1  0.88328357  0.68438118  0.71106069  1  0  -0.29691  0  3.52103  0  0  -0.338826  0  3.774907  0  0  -0.343082  0  3.779731  0  0  -0.074608  -0.336252  0  3.772322  0
C  C18  1  0.32742145  0.29610506  0.06812795  1  0  -0.132832  0  3.520733  0  0  -0.187648  0  3.765033  0  0  -0.189171  0  3.769716  0  0  -0.067093  -0.186928  0  3.762264  0
C  C19  1  0.67256094  0.70389389  0.93186407  1  0  -0.132877  0  3.520799  0  0  -0.18762  0  3.765131  0  0  -0.189137  0  3.769798  0  0  -0.06706  -0.186895  0  3.762356  0
C  C20  1  0.08385927  0.27221277  0.93723797  1  0  0.683834  0  3.900967  0  0  0.631754  0  4.20782  0  0  0.666016  0  4.200738  0  0  0.20735  0.608552  0  4.211521  0
C  C21  1  0.91615428  0.72776755  0.06275911  1  0  0.683753  0  3.900319  0  0  0.631513  0  4.207427  0  0  0.665779  0  4.200349  0  0  0.207308  0.608308  0  4.21112  0
N  N22  1  0.24915940  0.20538842  0.17206032  1  0  -0.229488  0  3.364153  0  0  -0.165205  0  3.578842  0  0  -0.178054  0  3.588134  0  0  -0.478326  -0.15603  0  3.572488  0
N  N23  1  0.75080363  0.79461588  0.82793612  1  0  -0.229805  0  3.364796  0  0  -0.16548  0  3.579398  0  0  -0.178292  0  3.588728  0  0  -0.47839  -0.156304  0  3.573043  0
O  O24  1  0.23224991  0.06699531  0.43138647  1  0  -0.893674  0  2.068946  0  0  -0.777446  0  2.329196  0  0  -0.809784  0  2.311646  0  0  -0.336735  -0.754109  0  2.340307  0
O  O25  1  0.76775457  0.93300485  0.56861784  1  0  -0.89356  0  2.068841  0  0  -0.777278  0  2.329057  0  0  -0.809619  0  2.311502  0  0  -0.336749  -0.753939  0  2.340161  0
O  O26  1  0.72698768  0.05036870  0.27067113  1  0  -0.854487  0  1.967191  0  0  -0.764891  0  2.216473  0  0  -0.793649  0  2.201309  0  0  -0.361299  -0.744867  0  2.226832  0
O  O27  1  0.27301166  0.94962356  0.72932408  1  0  -0.854468  0  1.967431  0  0  -0.764904  0  2.2168  0  0  -0.793639  0  2.201578  0  0  -0.361329  -0.744898  0  2.227166  0
O  O28  1  0.85990617  0.29587996  0.50801734  1  0  -0.873367  0  1.928576  0  0  -0.786583  0  2.192081  0  0  -0.816679  0  2.176469  0  0  -0.361711  -0.764641  0  2.202197  0
O  O29  1  0.14005797  0.70413359  0.49196290  1  0  -0.873383  0  1.928709  0  0  -0.786565  0  2.192117  0  0  -0.816654  0  2.176489  0  0  -0.361725  -0.764632  0  2.202247  0
O  O30  1  0.86608624  0.16434396  0.92377868  1  0  -0.663528  0  1.98686  0  0  -0.596381  0  2.214835  0  0  -0.624401  0  2.206371  0  0  -0.307633  -0.576238  0  2.219833  0
O  O31  1  0.13392499  0.83565618  0.07621311  1  0  -0.663636  0  1.986562  0  0  -0.596421  0  2.214598  0  0  -0.624435  0  2.206132  0  0  -0.307726  -0.576301  0  2.219645  0
O  O32  1  0.11767472  0.35668352  0.84788065  1  0  -0.69534  0  1.976088  0  0  -0.637755  0  2.220479  0  0  -0.667786  0  2.215839  0  0  -0.310612  -0.616292  0  2.223025  0
O  O33  1  0.88233883  0.64329811  0.15212880  1  0  -0.695189  0  1.975707  0  0  -0.637536  0  2.220139  0  0  -0.667567  0  2.21551  0  0  -0.310509  -0.616077  0  2.222685  0
