# generated using pymatgen
data_Zn4H27C50N4O16F5
_symmetry_space_group_name_H-M   'P 1'
_cell_length_a   9.64899481
_cell_length_b   11.07649076
_cell_length_c   28.98834995
_cell_angle_alpha   90.14732744
_cell_angle_beta   89.77766302
_cell_angle_gamma   89.95566137
_symmetry_Int_Tables_number   1
_chemical_formula_structural   Zn4H27C50N4O16F5
_chemical_formula_sum   'Zn4 H27 C50 N4 O16 F5'
_cell_volume   3098.15341060
_cell_formula_units_Z   1
loop_
 _symmetry_equiv_pos_site_id
 _symmetry_equiv_pos_as_xyz
  1  'x, y, z'
loop_
 _atom_site_type_symbol
 _atom_site_label
 _atom_site_symmetry_multiplicity
 _atom_site_fract_x
 _atom_site_fract_y
 _atom_site_fract_z
 _atom_site_occupancy
 _atom_site_pbe_bader_charge
 _atom_site_pbe_bader_spin_density
 _atom_site_pbe_cm5_charge
 _atom_site_pbe_ddec_charge
 _atom_site_pbe_ddec_spin_density
 _atom_site_pbe_ddec_sum_bond_order
 _atom_site_pbe_magmom
Zn  Zn0  1  0.64005772  0.49728109  0.50010715  1  1.266088  0  0.664906  0.827206  0  2.432904  0
Zn  Zn1  1  0.35837611  0.50194041  0.49893005  1  1.265467  0  0.664333  0.805544  0  2.456001  0
Zn  Zn2  1  0.36090327  0.50005861  0.11828020  1  1.271699  0  0.662581  0.824584  0  2.422974  0
Zn  Zn3  1  0.64232951  0.50416050  0.11741668  1  1.272055  0  0.664424  0.804971  0  2.468786  0
H  H4  1  0.12791346  0.63690262  0.54960824  1  0.139256  0  0.142566  0.126958  0  0.955456  0
H  H5  1  0.13977546  0.36417778  0.45059572  1  0.191764  0  0.149672  0.154891  0  0.947446  0
H  H6  1  0.86145015  0.63192150  0.54825416  1  0.151957  0  0.143683  0.126771  0  0.957289  0
H  H7  1  0.72552093  0.89299362  0.49972541  1  0.096422  0  0.104081  0.111  0  1.002555  0
H  H8  1  0.27982715  0.88082891  0.49916580  1  0.138494  0  0.110623  0.136882  0  0.996053  0
H  H9  1  0.71428864  0.11966042  0.49962289  1  0.070537  0  0.10667  0.114186  0  0.997915  0
H  H10  1  0.27560057  0.50157299  0.97018266  1  0.082706  0  0.101412  0.105634  0  1.00632  0
H  H11  1  0.27820301  0.49999380  0.88390411  1  0.08494  0  0.102789  0.105085  0  0.995304  0
H  H12  1  0.71970558  0.50252404  0.97100182  1  0.07689  0  0.10163  0.109369  0  1.007105  0
H  H13  1  0.27890909  0.50146937  0.64616228  1  0.063466  0  0.101892  0.109939  0  1.00584  0
H  H14  1  0.72296189  0.50029985  0.64745556  1  0.093112  0  0.101815  0.106729  0  1.005188  0
H  H15  1  0.71971278  0.49919954  0.73373918  1  0.055213  0  0.10277  0.104838  0  0.996075  0
H  H16  1  0.28318272  0.50178084  0.26415900  1  0.09672  0  0.104081  0.112148  0  1.00182  0
H  H17  1  0.72885923  0.50419395  0.26667512  1  0.13549  0  0.110824  0.13723  0  0.992296  0
H  H18  1  0.28049279  0.50155543  0.35081887  1  0.096223  0  0.10648  0.11216  0  0.996704  0
H  H19  1  0.87382955  0.63747274  0.06693529  1  0.155076  0  0.143328  0.127749  0  0.95559  0
H  H20  1  0.85989105  0.36712609  0.16633082  1  0.164494  0  0.149633  0.155187  0  0.947551  0
H  H21  1  0.14029408  0.63248789  0.06897203  1  0.12636  0  0.14433  0.127451  0  0.956299  0
H  H22  1  0.27495694  0.89589684  0.11744502  1  0.091539  0  0.103621  0.109893  0  1.001243  0
H  H23  1  0.72067520  0.88296319  0.11777481  1  0.105188  0  0.110308  0.136115  0  0.995323  0
H  H24  1  0.28636628  0.12246796  0.11748144  1  0.118563  0  0.106756  0.114248  0  0.997064  0
H  H25  1  0.82699203  0.42058412  0.88818184  1  0.046132  0  0.095398  0.131826  0  0.987977  0
H  H26  1  0.75342954  0.50044472  0.84102979  1  0.018564  0  0.089986  0.127389  0  1.023187  0
H  H27  1  0.82809401  0.58026868  0.88814091  1  0.073873  0  0.094049  0.129697  0  0.989022  0
H  H28  1  0.17089771  0.42035173  0.72890683  1  0.044906  0  0.095349  0.131837  0  0.98642  0
H  H29  1  0.24430869  0.50045391  0.77615131  1  0.042352  0  0.089353  0.126349  0  1.023975  0
H  H30  1  0.16997416  0.58002660  0.72907293  1  0.041605  0  0.094112  0.129452  0  0.989409  0
C  C31  1  0.50710238  0.73716644  0.50007561  1  1.549706  0  0.21777  0.597414  0  4.15434  0
C  C32  1  0.50176408  0.50246478  0.59018625  1  1.503906  0  0.214663  0.595101  0  4.160369  0
C  C33  1  0.49435867  0.26325122  0.49950078  1  1.533282  0  0.216282  0.613811  0  4.160823  0
C  C34  1  0.49224010  0.50114309  0.40923400  1  1.575244  0  0.216771  0.614355  0  4.161963  0
C  C35  1  0.49382790  0.73962871  0.11733283  1  1.597606  0  0.217452  0.596729  0  4.153002  0
C  C36  1  0.49798144  0.50396246  0.02718807  1  1.560148  0  0.214142  0.595133  0  4.158868  0
C  C37  1  0.50664542  0.26569639  0.11776464  1  1.609756  0  0.216795  0.613969  0  4.160501  0
C  C38  1  0.50938455  0.50351992  0.20822534  1  1.513308  0  0.217045  0.595925  0  4.154668  0
C  C39  1  0.93325618  0.42390199  0.47212537  1  1.141181  0  0.268713  0.412926  0  4.034392  0
C  C40  1  0.06951117  0.57603616  0.52741919  1  0.479128  0  0.069744  0.030486  0  3.884867  0
C  C41  1  0.07803576  0.42449947  0.47220370  1  0.606169  0  0.081383  -0.041958  0  3.832375  0
C  C42  1  0.92567246  0.57335111  0.52674216  1  0.537063  0  0.082952  0.087574  0  3.865103  0
C  C43  1  0.49308863  0.12783160  0.49937558  1  0.102282  0  -0.021315  -0.140426  0  3.939799  0
C  C44  1  0.50369401  0.87262694  0.49979457  1  0.022766  0  -0.011054  0.006794  0  3.970517  0
C  C45  1  0.37209317  0.05742170  0.49917425  1  0.395811  0  0.106175  0.285364  0  4.031105  0
C  C46  1  0.62646241  0.94016115  0.49975228  1  -0.039464  0  -0.090727  -0.118659  0  3.996747  0
C  C47  1  0.37590320  0.93221581  0.49942034  1  -0.030018  0  -0.097028  -0.230129  0  3.981474  0
C  C48  1  0.62018143  0.06541873  0.49958266  1  0.037152  0  -0.0797  -0.066637  0  3.980165  0
C  C49  1  0.49809069  0.50304991  0.97559352  1  0.051393  0  -0.020446  -0.029903  0  3.994558  0
C  C50  1  0.37298398  0.50201864  0.95106930  1  -0.096728  0  -0.09054  -0.102272  0  4.022077  0
C  C51  1  0.37483395  0.50094902  0.90326541  1  -0.009826  0  -0.087009  -0.128167  0  3.985785  0
C  C52  1  0.50170249  0.50090121  0.87858837  1  0.026755  0  0.000289  0.08063  0  4.077718  0
C  C53  1  0.62879615  0.50154052  0.90315982  1  0.026153  0  8.5e-05  0.132428  0  3.920782  0
C  C54  1  0.62364569  0.50255453  0.95127725  1  -0.073123  0  -0.086053  -0.156049  0  3.949797  0
C  C55  1  0.50000578  0.50019630  0.82978160  1  -0.119672  0  -0.041945  -0.103677  0  4.133835  0
C  C56  1  0.49751593  0.49997023  0.78762326  1  -0.284187  0  -0.040956  -0.099746  0  4.132837  0
C  C57  1  0.49613247  0.50028005  0.73880573  1  0.075805  0  -7.9e-05  0.079042  0  4.080549  0
C  C58  1  0.36928996  0.50084053  0.71411165  1  0.127675  0  0.000276  0.13301  0  3.921719  0
C  C59  1  0.37480391  0.50154003  0.66597888  1  -0.069359  0  -0.085996  -0.158046  0  3.94799  0
C  C60  1  0.50056106  0.50188520  0.64180807  1  -0.009445  0  -0.018686  -0.024947  0  3.985311  0
C  C61  1  0.62544518  0.50089964  0.66648311  1  -0.080317  0  -0.089768  -0.101964  0  4.015839  0
C  C62  1  0.62324534  0.50011400  0.71428494  1  0.069049  0  -0.086874  -0.128424  0  3.986475  0
C  C63  1  0.50092581  0.50184393  0.35755890  1  0.00726  0  -0.020481  -0.139086  0  3.938666  0
C  C64  1  0.50577795  0.50295771  0.25994146  1  0.026569  0  -0.010119  0.007783  0  3.971052  0
C  C65  1  0.62606470  0.50256265  0.33256876  1  0.41254  0  0.10853  0.288647  0  4.024237  0
C  C66  1  0.37912124  0.50212049  0.28380022  1  0.048256  0  -0.090091  -0.114757  0  3.99028  0
C  C67  1  0.62972504  0.50325516  0.28469045  1  0.018732  0  -0.096633  -0.230912  0  3.979321  0
C  C68  1  0.37786502  0.50175100  0.33169183  1  -0.061971  0  -0.080264  -0.06953  0  3.989083  0
C  C69  1  0.06683572  0.42696829  0.14544780  1  1.12846  0  0.266792  0.409655  0  4.035651  0
C  C70  1  0.93177259  0.57715975  0.08939006  1  0.495364  0  0.071473  0.032806  0  3.882887  0
C  C71  1  0.92212209  0.42699628  0.14483736  1  0.627477  0  0.080977  -0.042878  0  3.834335  0
C  C72  1  0.07561766  0.57461672  0.09046889  1  0.537574  0  0.083517  0.08889  0  3.861619  0
C  C73  1  0.50755381  0.13032625  0.11764616  1  -0.02347  0  -0.019947  -0.136704  0  3.9386  0
C  C74  1  0.49683094  0.87508789  0.11736587  1  -0.014454  0  -0.010266  0.005699  0  3.971419  0
C  C75  1  0.62853980  0.05970542  0.11770398  1  0.381078  0  0.105245  0.282472  0  4.03397  0
C  C76  1  0.37408315  0.94282709  0.11737723  1  0.020599  0  -0.090091  -0.115519  0  3.993553  0
C  C77  1  0.62461824  0.93450996  0.11755460  1  0.048967  0  -0.096048  -0.226879  0  3.979271  0
C  C78  1  0.38046308  0.06808192  0.11747303  1  -0.065182  0  -0.079932  -0.069166  0  3.981083  0
C  C79  1  0.76631496  0.50071184  0.87857952  1  -0.072233  0  -0.236869  -0.408059  0  3.983936  0
C  C80  1  0.23163453  0.50041969  0.73858984  1  -0.078848  0  -0.236708  -0.407256  0  3.983144  0
N  N81  1  0.85799419  0.49622746  0.49870769  1  -1.188844  0  -0.290253  -0.242622  0  3.461134  0
N  N82  1  0.14341368  0.50150769  0.50008973  1  -1.186669  0  -0.284998  -0.104873  0  3.515067  0
N  N83  1  0.14268740  0.49858687  0.11897110  1  -1.208074  0  -0.290725  -0.243763  0  3.459742  0
N  N84  1  0.85733467  0.50330231  0.11662003  1  -1.185134  0  -0.28467  -0.104838  0  3.512669  0
O  O85  1  0.62506614  0.68579502  0.50083216  1  -1.17203  0  -0.317699  -0.550123  0  2.29996  0
O  O86  1  0.38983356  0.68385545  0.49946898  1  -1.167764  0  -0.320542  -0.550572  0  2.332614  0
O  O87  1  0.38498580  0.50073803  0.56970046  1  -1.167449  0  -0.322277  -0.55596  0  2.315541  0
O  O88  1  0.62013673  0.50436745  0.57034398  1  -1.154055  0  -0.322205  -0.553014  0  2.32439  0
O  O89  1  0.37902036  0.31847397  0.49626029  1  -1.155917  0  -0.318885  -0.549163  0  2.35033  0
O  O90  1  0.61273414  0.31321535  0.50285388  1  -1.154849  0  -0.318944  -0.550241  0  2.329942  0
O  O91  1  0.60584103  0.49938755  0.43136847  1  -1.148299  0  -0.318554  -0.550224  0  2.384146  0
O  O92  1  0.37155472  0.50234211  0.42724604  1  -1.161358  0  -0.320313  -0.549779  0  2.292617  0
O  O93  1  0.37597414  0.68798814  0.11726204  1  -1.165711  0  -0.318071  -0.550466  0  2.299166  0
O  O94  1  0.61123272  0.68651470  0.11744117  1  -1.167093  0  -0.320289  -0.549865  0  2.331332  0
O  O95  1  0.61565098  0.50312679  0.04718481  1  -1.165733  0  -0.322532  -0.554304  0  2.321294  0
O  O96  1  0.38049519  0.50526851  0.04762886  1  -1.174905  0  -0.322056  -0.554244  0  2.318957  0
O  O97  1  0.62247721  0.32034676  0.11960108  1  -1.148255  0  -0.318977  -0.548812  0  2.351377  0
O  O98  1  0.38812062  0.31627668  0.11603306  1  -1.156299  0  -0.319747  -0.551925  0  2.330236  0
O  O99  1  0.39280600  0.50366647  0.18767314  1  -1.156887  0  -0.318251  -0.5502  0  2.34678  0
O  O100  1  0.62783256  0.50377051  0.18864604  1  -1.154469  0  -0.319432  -0.548028  0  2.310719  0
F  F101  1  0.86623635  0.34783833  0.44450240  1  -0.612862  0  -0.047906  -0.100971  0  1.360701  0
F  F102  1  0.24420015  0.10952087  0.49896041  1  -0.62989  0  -0.113742  -0.155347  0  1.339118  0
F  F103  1  0.75065888  0.50276521  0.35431094  1  -0.630302  0  -0.111442  -0.150838  0  1.349423  0
F  F104  1  0.13348282  0.35246868  0.17377767  1  -0.604378  0  -0.049507  -0.103902  0  1.354904  0
F  F105  1  0.75653854  0.11139755  0.11783626  1  -0.625845  0  -0.112886  -0.154136  0  1.343266  0
