# generated using pymatgen
data_Zn3H20C19(NO5)2
_symmetry_space_group_name_H-M   'P 1'
_cell_length_a   15.76424876
_cell_length_b   15.76428928
_cell_length_c   16.13719825
_cell_angle_alpha   105.34745736
_cell_angle_beta   105.34762340
_cell_angle_gamma   117.23587028
_symmetry_Int_Tables_number   1
_chemical_formula_structural   Zn3H20C19(NO5)2
_chemical_formula_sum   'Zn12 H80 C76 N8 O40'
_cell_volume   3070.76469455
_cell_formula_units_Z   4
loop_
 _symmetry_equiv_pos_site_id
 _symmetry_equiv_pos_as_xyz
  1  'x, y, z'
loop_
 _atom_site_type_symbol
 _atom_site_label
 _atom_site_symmetry_multiplicity
 _atom_site_fract_x
 _atom_site_fract_y
 _atom_site_fract_z
 _atom_site_occupancy
 _atom_site_pbe_bader_charge
 _atom_site_pbe_bader_spin_density
 _atom_site_pbe_cm5_charge
 _atom_site_pbe_ddec_charge
 _atom_site_pbe_ddec_spin_density
 _atom_site_pbe_ddec_sum_bond_order
 _atom_site_pbe_magmom
Zn  Zn0  1  0.14257299  0.71989823  0.55775632  1  1.310159  0  0.674862  0.958018  0  2.323253  0
Zn  Zn1  1  0.41508374  0.83787409  0.55774970  1  1.310689  0  0.675204  0.958613  0  2.321772  0
Zn  Zn2  1  0.96990017  0.89257294  0.05775497  1  1.310265  0  0.674859  0.958016  0  2.323245  0
Zn  Zn3  1  0.08787463  0.16508444  0.05774644  1  1.310678  0  0.675225  0.958642  0  2.321716  0
Zn  Zn4  1  0.28877482  0.99402095  0.66679816  1  1.335405  0  0.685798  0.910339  0  2.304031  0
Zn  Zn5  1  0.37783896  0.67244819  0.66659590  1  1.335652  0  0.685779  0.910352  0  2.303996  0
Zn  Zn6  1  0.24402376  0.03877476  0.16680124  1  1.335531  0  0.685805  0.910358  0  2.304003  0
Zn  Zn7  1  0.92245071  0.12784279  0.16659252  1  1.335565  0  0.685749  0.910322  0  2.304026  0
Zn  Zn8  1  0.10797561  0.49471290  0.41335384  1  1.33905  0  0.688234  0.902991  0  2.32711  0
Zn  Zn9  1  0.30547491  0.91890800  0.41343395  1  1.336959  0  0.688364  0.903056  0  2.327032  0
Zn  Zn10  1  0.74471327  0.85797600  0.91335060  1  1.339023  0  0.688131  0.902838  0  2.327267  0
Zn  Zn11  1  0.16891017  0.05547605  0.91343239  1  1.336875  0  0.68835  0.90308  0  2.327104  0
H  H12  1  0.50960430  0.21223796  0.81630737  1  0.099183  0  0.121302  0.091869  0  0.973587  0
H  H13  1  0.30626181  0.60334247  0.81621848  1  0.096444  0  0.121583  0.091667  0  0.972809  0
H  H14  1  0.46223945  0.25960655  0.31631262  1  0.099208  0  0.12128  0.09185  0  0.973675  0
H  H15  1  0.85333980  0.05626541  0.31621162  1  0.09654  0  0.121554  0.09165  0  0.972875  0
H  H16  1  0.68702920  0.26850913  0.93699112  1  0.091307  0  0.107053  0.105791  0  1.00349  0
H  H17  1  0.24992856  0.66798086  0.93723261  1  0.072109  0  0.106701  0.105622  0  1.004831  0
H  H18  1  0.51850564  0.43703060  0.43699222  1  0.091349  0  0.107045  0.105812  0  1.003387  0
H  H19  1  0.91797498  0.99993039  0.43722560  1  0.072055  0  0.106741  0.105635  0  1.004911  0
H  H20  1  0.70999857  0.12365030  0.95415523  1  0.10063  0  0.108784  0.110802  0  1.024763  0
H  H21  1  0.24438912  0.83018073  0.95457987  1  0.096557  0  0.108555  0.110743  0  1.024311  0
H  H22  1  0.37364334  0.45999646  0.45414989  1  0.10088  0  0.108801  0.110823  0  1.024779  0
H  H23  1  0.08017487  0.99438910  0.45457662  1  0.096818  0  0.108579  0.110835  0  1.024184  0
H  H24  1  0.55730245  0.93465383  0.85255461  1  0.128907  0  0.112098  0.129421  0  1.023578  0
H  H25  1  0.29528576  0.91747246  0.85280998  1  0.135324  0  0.112172  0.129662  0  1.02209  0
H  H26  1  0.18464694  0.30729804  0.35254875  1  0.128814  0  0.112097  0.129436  0  1.023579  0
H  H27  1  0.16747024  0.04528554  0.35280883  1  0.135359  0  0.112133  0.129596  0  1.021967  0
H  H28  1  0.15184174  0.38060618  0.25521051  1  0.134331  0  0.118103  0.089273  0  1.016074  0
H  H29  1  0.10354182  0.87515713  0.25535156  1  0.12748  0  0.118155  0.089198  0  1.016993  0
H  H30  1  0.63060737  0.90184539  0.75521035  1  0.134569  0  0.118123  0.089274  0  1.016124  0
H  H31  1  0.12515941  0.85354146  0.75535205  1  0.128219  0  0.118171  0.089172  0  1.017056  0
H  H32  1  0.25162177  0.43410739  0.16144256  1  0.140656  0  0.106904  0.121888  0  1.033726  0
H  H33  1  0.91002637  0.72811381  0.16186254  1  0.13092  0  0.107066  0.122382  0  1.034087  0
H  H34  1  0.68410749  0.00162627  0.66144203  1  0.140633  0  0.10688  0.121845  0  1.033774  0
H  H35  1  0.97811719  0.66002544  0.66186436  1  0.131036  0  0.107072  0.122395  0  1.034103  0
H  H36  1  0.33541528  0.62388252  0.18088123  1  0.052928  0  0.107261  0.099335  0  0.977628  0
H  H37  1  0.84568691  0.55767791  0.18112234  1  0.060286  0  0.107227  0.098971  0  0.978668  0
H  H38  1  0.87388275  0.08541679  0.68087913  1  0.052858  0  0.107258  0.099374  0  0.977571  0
H  H39  1  0.80767809  0.59568728  0.68112313  1  0.060274  0  0.107237  0.09899  0  0.97864  0
H  H40  1  0.31226266  0.74741177  0.29140569  1  0.14417  0  0.107642  0.129064  0  1.044382  0
H  H41  1  0.97930458  0.54438282  0.29134180  1  0.147619  0  0.107205  0.128355  0  1.04504  0
H  H42  1  0.99741077  0.06226134  0.79140170  1  0.144028  0  0.107656  0.129101  0  1.044356  0
H  H43  1  0.79438531  0.72930799  0.79134125  1  0.147668  0  0.107218  0.128396  0  1.045031  0
H  H44  1  0.33678336  0.25419692  0.58442884  1  0.0238  0  0.094619  0.143138  0  1.019313  0
H  H45  1  0.24757793  0.33003428  0.58413637  1  0.026916  0  0.094605  0.143133  0  1.019056  0
H  H46  1  0.50419802  0.08678202  0.08443137  1  0.023792  0  0.094589  0.143099  0  1.019401  0
H  H47  1  0.58003306  0.99757299  0.08413702  1  0.027028  0  0.094594  0.143155  0  1.019027  0
H  H48  1  0.34527990  0.21048069  0.47430716  1  0.072134  0  0.091997  0.148305  0  1.027126  0
H  H49  1  0.12902064  0.26367016  0.47402478  1  0.07271  0  0.092037  0.148265  0  1.026896  0
H  H50  1  0.46048402  0.09527868  0.97430949  1  0.072208  0  0.092013  0.148333  0  1.027134  0
H  H51  1  0.51366847  0.87901692  0.97402428  1  0.073363  0  0.092077  0.148315  0  1.026928  0
H  H52  1  0.45615058  0.26939175  0.58821810  1  0.034125  0  0.099359  0.151901  0  0.990201  0
H  H53  1  0.13196683  0.31853759  0.58794062  1  0.059842  0  0.09939  0.151546  0  0.990634  0
H  H54  1  0.51939065  0.20614802  0.08822041  1  0.034045  0  0.099361  0.151926  0  0.990241  0
H  H55  1  0.56853934  0.88196289  0.08793991  1  0.059639  0  0.099364  0.151545  0  0.990688  0
H  H56  1  0.05073454  0.53736337  0.72487619  1  0.065559  0  0.090316  0.139471  0  1.022504  0
H  H57  1  0.67404661  0.18742829  0.72488652  1  0.070874  0  0.090218  0.13941  0  1.022757  0
H  H58  1  0.78736158  0.80073736  0.22487465  1  0.065529  0  0.090305  0.139448  0  1.022505  0
H  H59  1  0.43742947  0.42404554  0.22488979  1  0.070822  0  0.090235  0.1394  0  1.022706  0
H  H60  1  0.04036510  0.42107213  0.65251412  1  0.048457  0  0.097286  0.149795  0  0.99638  0
H  H61  1  0.61212833  0.23146877  0.65257225  1  0.041693  0  0.097234  0.149801  0  0.996231  0
H  H62  1  0.67107203  0.79036766  0.15250977  1  0.04863  0  0.097265  0.149736  0  0.996389  0
H  H63  1  0.48146565  0.36212327  0.15257047  1  0.04205  0  0.097246  0.149804  0  0.996237  0
H  H64  1  0.93090535  0.43240435  0.61778405  1  0.070659  0  0.100482  0.151476  0  0.983294  0
H  H65  1  0.68682787  0.18539708  0.61777322  1  0.068824  0  0.100353  0.15129  0  0.98362  0
H  H66  1  0.68240401  0.68091032  0.11778484  1  0.070793  0  0.100501  0.151516  0  0.983379  0
H  H67  1  0.43539624  0.43682644  0.11777382  1  0.068769  0  0.100354  0.151293  0  0.98361  0
H  H68  1  0.87477049  0.75955462  0.48625189  1  0.047127  0  0.097536  0.153371  0  0.990818  0
H  H69  1  0.61132839  0.72687753  0.48581855  1  0.071279  0  0.097581  0.153281  0  0.990033  0
H  H70  1  0.00955597  0.62477228  0.98625669  1  0.047096  0  0.097575  0.153407  0  0.990846  0
H  H71  1  0.97687792  0.36132976  0.98581265  1  0.071517  0  0.09756  0.153206  0  0.990103  0
H  H72  1  0.92298009  0.82288881  0.41689278  1  0.053754  0  0.09913  0.149532  0  1.005985  0
H  H73  1  0.49396804  0.59415686  0.41659103  1  0.052277  0  0.099116  0.149572  0  1.005851  0
H  H74  1  0.07289107  0.67298048  0.91689795  1  0.053835  0  0.099165  0.149581  0  1.005932  0
H  H75  1  0.84415830  0.24397004  0.91658796  1  0.051948  0  0.099141  0.149568  0  1.006031  0
H  H76  1  0.95689238  0.90294174  0.53677309  1  0.039288  0  0.096416  0.147791  0  0.996422  0
H  H77  1  0.58000379  0.63408732  0.53647118  1  0.035701  0  0.096736  0.148095  0  0.99604  0
H  H78  1  0.15294297  0.70689384  0.03677841  1  0.039202  0  0.096426  0.147811  0  0.996493  0
H  H79  1  0.88408885  0.33000403  0.03646596  1  0.035813  0  0.096753  0.148131  0  0.996054  0
H  H80  1  0.17006977  0.20242205  0.70898202  1  0.030498  0  0.093851  0.149105  0  0.994388  0
H  H81  1  0.53898480  0.50672577  0.70922277  1  0.032281  0  0.093761  0.149249  0  0.994381  0
H  H82  1  0.45242127  0.92006638  0.20898635  1  0.030385  0  0.093875  0.149167  0  0.99436  0
H  H83  1  0.75672601  0.28898386  0.20922590  1  0.032392  0  0.093772  0.149281  0  0.994336  0
H  H84  1  0.14766429  0.08813455  0.61916307  1  0.095662  0  0.097112  0.152033  0  1.031398  0
H  H85  1  0.47151253  0.53091276  0.61915448  1  0.080608  0  0.097183  0.152263  0  1.030914  0
H  H86  1  0.33813469  0.89766007  0.11916543  1  0.095667  0  0.097147  0.152058  0  1.03136  0
H  H87  1  0.78091408  0.22151290  0.11915827  1  0.080516  0  0.097161  0.15219  0  1.03095  0
H  H88  1  0.27958296  0.19846084  0.69892932  1  0.091173  0  0.09799  0.155834  0  1.01229  0
H  H89  1  0.41946936  0.50074634  0.69916046  1  0.085601  0  0.098028  0.155983  0  1.012197  0
H  H90  1  0.44846221  0.02957994  0.19893260  1  0.091261  0  0.097978  0.155853  0  1.012249  0
H  H91  1  0.75074640  0.16946871  0.19916307  1  0.085803  0  0.098018  0.155975  0  1.012215  0
C  C92  1  0.52435081  0.15403561  0.82756208  1  0.520055  0  0.051009  0.100803  0  3.951006  0
C  C93  1  0.30291111  0.67290158  0.82755680  1  0.511985  0  0.051394  0.101844  0  3.949033  0
C  C94  1  0.40403500  0.27435079  0.32756403  1  0.520072  0  0.051  0.100788  0  3.950986  0
C  C95  1  0.92289813  0.05291283  0.32755188  1  0.511424  0  0.051377  0.101762  0  3.949114  0
C  C96  1  0.62219439  0.18413572  0.89375086  1  -0.12143  0  -0.086864  -0.147048  0  4.007329  0
C  C97  1  0.27147825  0.70910791  0.89393607  1  -0.090402  0  -0.08693  -0.148206  0  4.00888  0
C  C98  1  0.43413278  0.37219539  0.39375047  1  -0.121552  0  -0.086796  -0.146967  0  4.00717  0
C  C99  1  0.95910310  0.02147811  0.39393206  1  -0.090349  0  -0.086919  -0.148099  0  4.009268  0
C  C100  1  0.63490133  0.10446923  0.90341018  1  0.020411  0  -0.066262  -0.024056  0  3.941091  0
C  C101  1  0.26856712  0.79851378  0.90370184  1  -0.014449  0  -0.065761  -0.02311  0  3.938205  0
C  C102  1  0.35446667  0.38490066  0.40340726  1  0.020058  0  -0.066315  -0.024121  0  3.941152  0
C  C103  1  0.04850687  0.01856701  0.40369607  1  -0.014395  0  -0.065858  -0.023292  0  3.938488  0
C  C104  1  0.54946906  0.99815430  0.84624912  1  -0.065078  0  -0.078764  -0.142662  0  3.916852  0
C  C105  1  0.29675315  0.84763259  0.84644473  1  -0.014313  0  -0.079586  -0.143968  0  3.914436  0
C  C106  1  0.24814962  0.29946642  0.34624420  1  -0.064776  0  -0.078776  -0.142749  0  3.916834  0
C  C107  1  0.09763028  0.04675189  0.34644112  1  -0.01433  0  -0.079512  -0.143881  0  3.914277  0
C  C108  1  0.45404573  0.97453370  0.78132613  1  0.528585  0  0.119631  0.145255  0  3.916046  0
C  C109  1  0.32704563  0.80624380  0.78134238  1  0.503264  0  0.119949  0.146972  0  3.914931  0
C  C110  1  0.22453399  0.20404373  0.28132387  1  0.52882  0  0.119709  0.145374  0  3.916176  0
C  C111  1  0.05624199  0.07704546  0.28133741  1  0.503192  0  0.119965  0.146975  0  3.914912  0
C  C112  1  0.35784037  0.85774853  0.71598713  1  1.08597  0  0.141304  0.407004  0  4.027693  0
C  C113  1  0.10774826  0.10783820  0.21598510  1  1.085584  0  0.141316  0.407036  0  4.027485  0
C  C114  1  0.18917594  0.46093950  0.26086269  1  0.439947  0  0.051125  0.112385  0  3.917024  0
C  C115  1  0.07187204  0.80046427  0.26100440  1  0.426219  0  0.051124  0.11184  0  3.917063  0
C  C116  1  0.71093977  0.93917975  0.76086197  1  0.439646  0  0.051099  0.112312  0  3.917055  0
C  C117  1  0.05046639  0.82187336  0.76100505  1  0.425526  0  0.051095  0.111855  0  3.917078  0
C  C118  1  0.24497542  0.49184773  0.20878931  1  -0.043432  0  -0.088065  -0.136679  0  3.973028  0
C  C119  1  0.96400395  0.71757579  0.20903588  1  -0.016163  0  -0.088123  -0.136908  0  3.971631  0
C  C120  1  0.74184881  0.99498023  0.70879000  1  -0.04321  0  -0.087997  -0.136494  0  3.973078  0
C  C121  1  0.96757606  0.71400314  0.70903499  1  -0.016302  0  -0.088102  -0.13689  0  3.971665  0
C  C122  1  0.29030377  0.59626855  0.21994519  1  -0.051008  0  -0.068999  -0.030732  0  3.985536  0
C  C123  1  0.92983383  0.62426332  0.22010791  1  -0.052722  0  -0.069478  -0.030777  0  3.986013  0
C  C124  1  0.84626916  0.04030679  0.71994477  1  -0.051147  0  -0.0691  -0.030964  0  3.985587  0
C  C125  1  0.87426474  0.67983596  0.72010827  1  -0.052678  0  -0.069512  -0.030825  0  3.986088  0
C  C126  1  0.27753458  0.66544535  0.28121533  1  0.027692  0  -0.085124  -0.146711  0  3.921287  0
C  C127  1  0.00382599  0.61620392  0.28121577  1  -0.064469  0  -0.084584  -0.146049  0  3.921056  0
C  C128  1  0.91544563  0.02753508  0.78121191  1  0.0278  0  -0.085176  -0.146743  0  3.921166  0
C  C129  1  0.86620576  0.75382696  0.78121560  1  -0.064521  0  -0.084615  -0.146141  0  3.921128  0
C  C130  1  0.21958176  0.62778347  0.33036139  1  0.458909  0  0.115077  0.140242  0  3.886395  0
C  C131  1  0.11088669  0.70296167  0.33035739  1  0.527876  0  0.115498  0.140956  0  3.886145  0
C  C132  1  0.87778330  0.96958255  0.83035964  1  0.458945  0  0.115148  0.14032  0  3.886183  0
C  C133  1  0.95296387  0.86088607  0.83035773  1  0.527902  0  0.115491  0.141003  0  3.886044  0
C  C134  1  0.19841884  0.69854827  0.39678605  1  1.103313  0  0.144517  0.417122  0  4.020518  0
C  C135  1  0.94854896  0.94841885  0.89678365  1  1.103331  0  0.144522  0.417157  0  4.020459  0
C  C136  1  0.32966000  0.10892014  0.54548954  1  1.580137  0  0.22418  0.717856  0  4.093294  0
C  C137  1  0.21568665  0.43636135  0.54522820  1  1.586598  0  0.223499  0.71697  0  4.093304  0
C  C138  1  0.35892340  0.07965782  0.04549548  1  1.580044  0  0.224162  0.717852  0  4.093231  0
C  C139  1  0.68636299  0.96568841  0.04522859  1  1.586827  0  0.223548  0.71709  0  4.093196  0
C  C140  1  0.36871444  0.21696880  0.54697128  1  -0.049423  0  -0.244297  -0.520864  0  3.888011  0
C  C141  1  0.17818384  0.32978629  0.54670490  1  -0.08091  0  -0.244561  -0.520466  0  3.887455  0
C  C142  1  0.46697131  0.11871269  0.04697405  1  -0.049441  0  -0.24428  -0.520882  0  3.888155  0
C  C143  1  0.57978627  0.92818091  0.04670434  1  -0.081485  0  -0.244573  -0.520583  0  3.887555  0
C  C144  1  0.05843350  0.53071439  0.59150201  1  1.598517  0  0.217703  0.702054  0  4.121272  0
C  C145  1  0.53302365  0.06082594  0.59151158  1  1.601721  0  0.217762  0.702564  0  4.120914  0
C  C146  1  0.78071770  0.80843452  0.09150115  1  1.598728  0  0.217766  0.702198  0  4.120981  0
C  C147  1  0.31082397  0.28302651  0.09151964  1  1.601087  0  0.217827  0.702721  0  4.120879  0
C  C148  1  0.01862291  0.47778801  0.65152922  1  -0.116645  0  -0.244782  -0.518973  0  3.911793  0
C  C149  1  0.63284681  0.17373211  0.65154252  1  -0.114881  0  -0.244481  -0.518777  0  3.91167  0
C  C150  1  0.72778534  0.76862142  0.15152639  1  -0.116876  0  -0.244772  -0.518945  0  3.911699  0
C  C151  1  0.42372901  0.38284394  0.15154284  1  -0.114945  0  -0.24449  -0.518773  0  3.911646  0
C  C152  1  0.04197335  0.82872663  0.52476449  1  1.569612  0  0.216013  0.700066  0  4.120907  0
C  C153  1  0.48267168  0.69601383  0.52448130  1  1.584355  0  0.215812  0.699529  0  4.121763  0
C  C154  1  0.07872914  0.79197276  0.02476621  1  1.569742  0  0.215989  0.700109  0  4.121195  0
C  C155  1  0.94602059  0.23267489  0.02447670  1  1.584401  0  0.21585  0.699649  0  4.121488  0
C  C156  1  0.94252371  0.82835653  0.48960057  1  -0.054096  0  -0.242647  -0.520244  0  3.898879  0
C  C157  1  0.54705987  0.66139028  0.48926842  1  -0.085746  0  -0.24305  -0.520321  0  3.897386  0
C  C158  1  0.07835865  0.69252499  0.98960524  1  -0.05386  0  -0.242753  -0.520373  0  3.899042  0
C  C159  1  0.91138898  0.29706179  0.98926184  1  -0.085871  0  -0.243111  -0.520314  0  3.897589  0
C  C160  1  0.20079801  0.10176537  0.76096364  1  1.553521  0  0.216762  0.705718  0  4.09252  0
C  C161  1  0.56021631  0.65933052  0.76079856  1  1.573993  0  0.21656  0.705639  0  4.094326  0
C  C162  1  0.35176450  0.95079542  0.26096539  1  1.553685  0  0.216761  0.705734  0  4.09244  0
C  C163  1  0.90933003  0.31021561  0.26080288  1  1.574026  0  0.216546  0.705703  0  4.094542  0
C  C164  1  0.19929726  0.15202345  0.69336851  1  -0.127165  0  -0.251212  -0.535838  0  3.90129  0
C  C165  1  0.49412887  0.54145227  0.69344933  1  -0.12148  0  -0.251429  -0.536555  0  3.901658  0
C  C166  1  0.40202458  0.94929430  0.19337231  1  -0.127371  0  -0.25122  -0.535898  0  3.901209  0
C  C167  1  0.79145133  0.24412767  0.19345379  1  -0.121704  0  -0.251391  -0.53651  0  3.901718  0
N  N168  1  0.44177658  0.05093357  0.77306802  1  -1.257101  0  -0.320645  -0.259167  0  3.527935  0
N  N169  1  0.33095524  0.72151441  0.77299636  1  -1.257801  0  -0.320763  -0.259831  0  3.525058  0
N  N170  1  0.30093308  0.19177600  0.27306878  1  -1.257391  0  -0.320689  -0.259258  0  3.528114  0
N  N171  1  0.97151396  0.08095693  0.27299128  1  -1.257437  0  -0.320739  -0.259788  0  3.524963  0
N  N172  1  0.17714488  0.52771647  0.32031600  1  -1.259585  0  -0.321916  -0.263063  0  3.52943  0
N  N173  1  0.14331677  0.79301536  0.32034911  1  -1.242748  0  -0.32226  -0.262824  0  3.529427  0
N  N174  1  0.77771746  0.92714704  0.82031379  1  -1.25958  0  -0.321882  -0.263009  0  3.529367  0
N  N175  1  0.04301794  0.89331618  0.82034869  1  -1.242846  0  -0.322253  -0.262836  0  3.529358  0
O  O176  1  0.27190701  0.85655331  0.66030066  1  -1.155923  0  -0.381926  -0.671034  0  2.496998  0
O  O177  1  0.38790461  0.80323009  0.66006159  1  -1.147798  0  -0.382446  -0.671432  0  2.497246  0
O  O178  1  0.10655354  0.02190514  0.16030009  1  -1.156047  0  -0.381918  -0.671028  0  2.496876  0
O  O179  1  0.05322879  0.13790108  0.16005639  1  -1.147365  0  -0.382483  -0.671461  0  2.497156  0
O  O180  1  0.16177574  0.65044107  0.45261762  1  -1.160479  0  -0.384982  -0.677282  0  2.524543  0
O  O181  1  0.29078535  0.80238855  0.45272533  1  -1.160592  0  -0.385372  -0.677791  0  2.525333  0
O  O182  1  0.90044385  0.91177875  0.95261754  1  -1.160486  0  -0.384936  -0.677239  0  2.524601  0
O  O183  1  0.05238952  0.04078630  0.95272378  1  -1.160576  0  -0.385364  -0.6778  0  2.525289  0
O  O184  1  0.27320580  0.02648630  0.46466820  1  -1.192334  0  -0.322486  -0.57708  0  2.356481  0
O  O185  1  0.19117139  0.43803373  0.46441715  1  -1.187242  0  -0.322061  -0.576242  0  2.356786  0
O  O186  1  0.27648440  0.02320646  0.96466641  1  -1.192231  0  -0.322452  -0.577086  0  2.356337  0
O  O187  1  0.68803437  0.94117078  0.96441457  1  -1.187274  0  -0.322131  -0.576338  0  2.356653  0
O  O188  1  0.35619910  0.10922612  0.62756579  1  -1.185783  0  -0.326698  -0.587826  0  2.336772  0
O  O189  1  0.27131818  0.51805621  0.62733299  1  -1.195368  0  -0.325861  -0.587221  0  2.337539  0
O  O190  1  0.35922825  0.10619576  0.12756509  1  -1.185746  0  -0.326697  -0.587807  0  2.336897  0
O  O191  1  0.76805624  0.02131983  0.12733048  1  -1.195539  0  -0.325827  -0.587191  0  2.337617  0
O  O192  1  0.05138976  0.47356825  0.51522932  1  -1.190424  0  -0.317544  -0.561178  0  2.305823  0
O  O193  1  0.46385879  0.04183795  0.51530177  1  -1.193981  0  -0.317483  -0.561157  0  2.30668  0
O  O194  1  0.72356778  0.80139032  0.01522398  1  -1.190567  0  -0.317585  -0.561245  0  2.305693  0
O  O195  1  0.29183296  0.21385559  0.01530480  1  -1.193786  0  -0.317608  -0.561379  0  2.306449  0
O  O196  1  0.09470545  0.63016093  0.62304610  1  -1.189816  0  -0.324293  -0.573442  0  2.324704  0
O  O197  1  0.52826250  0.99285591  0.62302940  1  -1.188534  0  -0.324615  -0.574238  0  2.322824  0
O  O198  1  0.88016146  0.84470609  0.12304482  1  -1.189874  0  -0.324278  -0.573464  0  2.324686  0
O  O199  1  0.24285763  0.27826565  0.12303473  1  -1.188281  0  -0.324547  -0.574165  0  2.322989  0
O  O200  1  0.13193426  0.91516914  0.55638783  1  -1.203207  0  -0.318753  -0.581168  0  2.309418  0
O  O201  1  0.42428556  0.64103079  0.55600840  1  -1.196895  0  -0.318262  -0.581281  0  2.309501  0
O  O202  1  0.16517014  0.88193328  0.05639053  1  -1.203212  0  -0.318773  -0.58122  0  2.309476  0
O  O203  1  0.89103013  0.17428514  0.05600585  1  -1.196708  0  -0.318231  -0.581304  0  2.309094  0
O  O204  1  0.02622490  0.73953388  0.51797322  1  -1.16759  0  -0.328247  -0.571545  0  2.294283  0
O  O205  1  0.49160414  0.77846877  0.51781245  1  -1.176905  0  -0.328623  -0.571309  0  2.293976  0
O  O206  1  0.98953776  0.77622773  0.01797283  1  -1.167951  0  -0.328196  -0.571537  0  2.294466  0
O  O207  1  0.02847187  0.24160707  0.01780951  1  -1.17707  0  -0.328643  -0.571378  0  2.294176  0
O  O208  1  0.24371554  0.05001897  0.76266079  1  -1.175823  0  -0.326563  -0.580696  0  2.302093  0
O  O209  1  0.51896611  0.71274299  0.76235462  1  -1.17674  0  -0.32634  -0.580258  0  2.303694  0
O  O210  1  0.30002087  0.99371426  0.26266351  1  -1.175811  0  -0.326609  -0.580707  0  2.302093  0
O  O211  1  0.96274505  0.26896706  0.26235485  1  -1.176779  0  -0.326342  -0.580324  0  2.303736  0
O  O212  1  0.15765294  0.11332146  0.81567841  1  -1.17287  0  -0.317244  -0.549911  0  2.29626  0
O  O213  1  0.65806110  0.70250108  0.81545594  1  -1.180935  0  -0.316937  -0.549931  0  2.296247  0
O  O214  1  0.36331569  0.90764559  0.31567800  1  -1.172879  0  -0.3172  -0.549938  0  2.296189  0
O  O215  1  0.95249884  0.40805802  0.31546207  1  -1.180939  0  -0.316949  -0.549959  0  2.296384  0
