# generated using pymatgen
data_H6RuC19N2(OF2)4
_symmetry_space_group_name_H-M   'P 1'
_cell_length_a   10.79615834
_cell_length_b   14.20170192
_cell_length_c   14.00077269
_cell_angle_alpha   79.18056321
_cell_angle_beta   89.99927946
_cell_angle_gamma   90.00095717
_symmetry_Int_Tables_number   1
_chemical_formula_structural   H6RuC19N2(OF2)4
_chemical_formula_sum   'H24 Ru4 C76 N8 O16 F32'
_cell_volume   2108.49230254
_cell_formula_units_Z   4
loop_
 _symmetry_equiv_pos_site_id
 _symmetry_equiv_pos_as_xyz
  1  'x, y, z'
loop_
 _atom_site_type_symbol
 _atom_site_label
 _atom_site_symmetry_multiplicity
 _atom_site_fract_x
 _atom_site_fract_y
 _atom_site_fract_z
 _atom_site_occupancy
 _atom_site_pbe_bader_charge
 _atom_site_pbe_bader_spin_density
 _atom_site_pbe_cm5_charge
 _atom_site_pbe_ddec_charge
 _atom_site_pbe_ddec_spin_density
 _atom_site_pbe_ddec_sum_bond_order
 _atom_site_pbe_magmom
H  H0  1  0.69874825  0.72925146  0.07142006  1  0.168325  2e-05  0.126253  0.176853  3.2e-05  0.970627  0.0
H  H1  1  0.19879153  0.77080287  0.42855410  1  0.168346  -2e-05  0.126174  0.176756  -3.2e-05  0.970777  0.0
H  H2  1  0.30132968  0.27076832  0.92856004  1  0.168058  2e-05  0.126128  0.17664  3.1e-05  0.970539  0.0
H  H3  1  0.80129103  0.22924971  0.57143196  1  0.168353  -2e-05  0.126159  0.176741  -3.1e-05  0.970484  0.0
H  H4  1  0.19114160  0.84484491  0.68360673  1  0.177012  -4e-06  0.130307  0.182185  -7.2e-05  0.963504  0.0
H  H5  1  0.69116710  0.65516606  0.81639646  1  0.176694  3e-06  0.130193  0.18202  7.2e-05  0.963555  0.0
H  H6  1  0.80883814  0.15517157  0.31640532  1  0.17678  -2e-06  0.1302  0.182048  -7.1e-05  0.963567  0.0
H  H7  1  0.30884135  0.34483344  0.18363690  1  0.1766  2e-06  0.130209  0.182077  7.1e-05  0.963494  0.0
H  H8  1  0.41351264  0.34606118  0.46971967  1  0.070517  0.000247  0.106072  0.128559  0.000364  0.99927  0.0
H  H9  1  0.91350429  0.15392670  0.03023386  1  0.071052  -0.000248  0.106043  0.12844  -0.000364  0.999404  0.0
H  H10  1  0.58646341  0.65389564  0.53021217  1  0.07102  0.000247  0.106032  0.128409  0.000363  0.999465  0.0
H  H11  1  0.08648193  0.84609771  0.96975630  1  0.071293  -0.000247  0.106037  0.128445  -0.000363  0.999239  0.0
H  H12  1  0.78462606  0.61593468  0.46263213  1  0.080151  -0.000325  0.081347  0.124726  -0.000138  1.055272  0.0
H  H13  1  0.28462850  0.88407481  0.03733020  1  0.080056  0.000325  0.081351  0.124722  0.000138  1.055087  0.0
H  H14  1  0.21536388  0.38402635  0.53728732  1  0.079665  -0.000325  0.081352  0.124666  -0.000138  1.055493  0.0
H  H15  1  0.71536421  0.11594986  0.96262516  1  0.07974  0.000326  0.081303  0.124583  0.000139  1.055481  0.0
H  H16  1  0.81293161  0.51151708  0.54931129  1  0.057753  -0.0015  0.084623  0.127585  -0.000805  1.029105  -0.001
H  H17  1  0.31293502  0.98850104  0.95066320  1  0.057285  0.0015  0.084576  0.127555  0.000805  1.02902  0.001
H  H18  1  0.18705092  0.48844871  0.45061750  1  0.056495  -0.001501  0.084531  0.12755  -0.000805  1.029004  -0.001
H  H19  1  0.68705491  0.01155346  0.04933225  1  0.056797  0.001501  0.084554  0.127532  0.000805  1.029161  0.001
H  H20  1  0.80705291  0.50362724  0.42518149  1  0.084091  -8.3e-05  0.084618  0.128631  4e-05  1.058979  0.0
H  H21  1  0.30704630  0.99637598  0.07479642  1  0.084374  8.3e-05  0.084612  0.128604  -4e-05  1.059108  0.0
H  H22  1  0.19292498  0.49632770  0.57474894  1  0.084523  -8.3e-05  0.084442  0.12846  4e-05  1.059387  0.0
H  H23  1  0.69293807  0.00362275  0.92521230  1  0.084209  8.2e-05  0.084604  0.128598  -4.1e-05  1.05906  0.0
Ru  Ru24  1  0.53725760  0.07257054  0.45519458  1  1.308975  0.983136  0.807155  0.850565  1.110951  3.977885  0.974
Ru  Ru25  1  0.03726850  0.42741835  0.04482497  1  1.309033  -0.983063  0.807047  0.850405  -1.110885  3.978001  -0.974
Ru  Ru26  1  0.46270731  0.92737624  0.54482153  1  1.31154  0.983089  0.807241  0.850617  1.110844  3.977977  0.974
Ru  Ru27  1  0.96272513  0.57260845  0.95519270  1  1.311439  -0.983117  0.80715  0.850893  -1.110875  3.97757  -0.974
C  C28  1  0.56500166  0.91842702  0.35420491  1  1.523642  -0.01128  0.226631  0.581732  -0.008964  4.117387  -0.009
C  C29  1  0.06501888  0.58158009  0.14580200  1  1.523161  0.011282  0.226544  0.58147  0.008964  4.117887  0.009
C  C30  1  0.43497716  0.08154009  0.64579926  1  1.522881  -0.011285  0.226589  0.581722  -0.008965  4.117992  -0.009
C  C31  1  0.93498401  0.41844825  0.85421492  1  1.523002  0.011283  0.226515  0.581843  0.008964  4.11736  0.009
C  C32  1  0.60641803  0.86846623  0.27566926  1  0.085944  -0.000304  -0.027224  -0.212359  -0.000579  4.048295  0.0
C  C33  1  0.10644679  0.63155181  0.22433024  1  0.086202  0.000304  -0.027294  -0.212608  0.000579  4.04893  0.0
C  C34  1  0.39358116  0.13151043  0.72433258  1  0.085343  -0.000305  -0.027132  -0.212192  -0.000579  4.04824  0.0
C  C35  1  0.89358389  0.36847610  0.77568089  1  0.085996  0.000304  -0.027188  -0.212154  0.000579  4.048038  0.0
C  C36  1  0.55991717  0.89577930  0.18158381  1  0.595839  -0.001434  0.099376  0.159637  -0.001066  4.081102  -0.001
C  C37  1  0.05996735  0.60424677  0.31842352  1  0.599182  0.001433  0.099581  0.159921  0.001066  4.080569  0.001
C  C38  1  0.44011166  0.10420872  0.81840914  1  0.596262  -0.001434  0.099115  0.159263  -0.001066  4.081439  -0.001
C  C39  1  0.94011705  0.39577914  0.68160359  1  0.596425  0.001434  0.09916  0.159266  0.001066  4.081625  0.001
C  C40  1  0.59002308  0.84398735  0.10949445  1  0.537381  0.000396  0.097071  0.188542  0.00029  4.113305  0.0
C  C41  1  0.09008379  0.65604454  0.39050686  1  0.537561  -0.000396  0.09711  0.188263  -0.00029  4.11316  0.0
C  C42  1  0.41003725  0.15601791  0.89049241  1  0.536861  0.000397  0.09693  0.188379  0.00029  4.113352  0.0
C  C43  1  0.91002191  0.34398459  0.60951368  1  0.537126  -0.000397  0.097019  0.188423  -0.00029  4.113511  0.0
C  C44  1  0.67282975  0.76798339  0.12833873  1  0.045126  -0.001234  -0.095928  -0.278792  -0.000834  4.024028  -0.001
C  C45  1  0.17287955  0.73205698  0.37164363  1  0.044725  0.001235  -0.095912  -0.278565  0.000834  4.023198  0.001
C  C46  1  0.32723613  0.23202564  0.87164662  1  0.044627  -0.001236  -0.095755  -0.278432  -0.000834  4.02338  -0.001
C  C47  1  0.82720208  0.26798518  0.62834987  1  0.045845  0.001235  -0.095859  -0.278696  0.000834  4.023514  0.001
C  C48  1  0.72157325  0.74207316  0.22129657  1  0.539628  0.000249  0.092774  0.189778  0.000182  4.096223  0.0
C  C49  1  0.22159664  0.75796456  0.27867528  1  0.539436  -0.000248  0.093099  0.189981  -0.000182  4.095753  0.0
C  C50  1  0.27846484  0.25792417  0.77869550  1  0.540429  0.000249  0.092764  0.189595  0.000182  4.096347  0.0
C  C51  1  0.77842849  0.24208408  0.72130070  1  0.539102  -0.000248  0.092742  0.189763  -0.000182  4.096059  0.0
C  C52  1  0.68833636  0.79111045  0.29474064  1  0.565036  -0.001436  0.095685  0.162155  -0.001056  4.06139  -0.001
C  C53  1  0.18836174  0.70891208  0.20524274  1  0.563352  0.001436  0.095884  0.162582  0.001056  4.061514  0.001
C  C54  1  0.31166561  0.20886800  0.70525899  1  0.565368  -0.001436  0.095474  0.162076  -0.001056  4.061354  -0.001
C  C55  1  0.81164394  0.29113048  0.79474421  1  0.565189  0.001436  0.095566  0.161861  0.001056  4.06135  0.001
C  C56  1  0.72347892  0.95146446  0.56945142  1  1.563079  -0.010998  0.224276  0.581891  -0.008675  4.096224  -0.008
C  C57  1  0.22349815  0.54852380  0.93056032  1  1.562045  0.010997  0.224377  0.582103  0.008674  4.096135  0.008
C  C58  1  0.27647859  0.04847710  0.43057058  1  1.561453  -0.010997  0.224277  0.581851  -0.008674  4.096432  -0.008
C  C59  1  0.77649178  0.45151268  0.06945429  1  1.561655  0.010998  0.224308  0.582047  0.008675  4.09643  0.008
C  C60  1  0.85115920  0.92154183  0.60195278  1  0.114886  0.000189  -0.026854  -0.214289  -0.0002  4.003514  0.0
C  C61  1  0.35117907  0.57845604  0.89805715  1  0.115058  -0.000188  -0.026842  -0.214252  0.0002  4.003436  0.0
C  C62  1  0.14879923  0.07841452  0.39807332  1  0.113368  0.000189  -0.026657  -0.214054  -0.0002  4.003407  0.0
C  C63  1  0.64881086  0.42157724  0.10195969  1  0.115411  -0.000189  -0.026818  -0.213909  0.0002  4.002867  0.0
C  C64  1  0.94026072  0.98881661  0.61845409  1  0.492601  -0.002194  0.093471  0.155574  -0.001629  4.072436  -0.002
C  C65  1  0.44028724  0.51118464  0.88156686  1  0.492096  0.002194  0.093514  0.155746  0.001629  4.072425  0.002
C  C66  1  0.05967919  0.01115743  0.38156736  1  0.493883  -0.002193  0.09347  0.155697  -0.001629  4.072178  -0.002
C  C67  1  0.55969805  0.48883874  0.11846682  1  0.491319  0.002193  0.093606  0.155593  0.001629  4.072398  0.002
C  C68  1  0.05960854  0.96106418  0.64918064  1  0.611434  0.00064  0.088452  0.186679  0.000489  4.114202  0.001
C  C69  1  0.55963621  0.53894057  0.85084187  1  0.612403  -0.00064  0.088194  0.186294  -0.000489  4.114107  -0.001
C  C70  1  0.94033878  0.03893072  0.35083829  1  0.612171  0.00064  0.08848  0.186533  0.000489  4.114079  0.001
C  C71  1  0.44035464  0.46107100  0.14919925  1  0.612912  -0.00064  0.088551  0.186913  -0.000489  4.114241  -0.001
C  C72  1  0.09641853  0.86589602  0.66274452  1  0.045611  -0.002359  -0.087111  -0.25901  -0.001703  3.9685  -0.001
C  C73  1  0.59644129  0.63411205  0.83726571  1  0.044872  0.002358  -0.086866  -0.258473  0.001703  3.967943  0.001
C  C74  1  0.90355195  0.13410446  0.33728302  1  0.045188  -0.002357  -0.087008  -0.25873  -0.001702  3.968225  -0.001
C  C75  1  0.40356252  0.36589663  0.16276749  1  0.045089  0.002357  -0.087147  -0.259104  0.001702  3.968765  0.001
C  C76  1  0.00969933  0.79839885  0.64629642  1  0.559462  0.000605  0.096776  0.190164  0.000542  4.104106  0.001
C  C77  1  0.50971454  0.70160697  0.85370021  1  0.55988  -0.000604  0.096882  0.190263  -0.000541  4.10404  -0.001
C  C78  1  0.99028967  0.20158416  0.35373866  1  0.559241  0.000604  0.096917  0.190357  0.000541  4.103959  0.001
C  C79  1  0.49029484  0.29841231  0.14631614  1  0.560071  -0.000604  0.096741  0.190049  -0.000541  4.104337  -0.001
C  C80  1  0.88894248  0.82499477  0.61688987  1  0.500538  -0.002285  0.101619  0.168967  -0.00165  4.040796  -0.002
C  C81  1  0.38895601  0.67500674  0.88311008  1  0.500801  0.002285  0.101461  0.168667  0.00165  4.040532  0.002
C  C82  1  0.11104003  0.17496564  0.38314559  1  0.502215  -0.002285  0.101264  0.168512  -0.00165  4.041371  -0.002
C  C83  1  0.61104781  0.32502457  0.11690171  1  0.50187  0.002285  0.101454  0.168735  0.00165  4.040453  0.002
C  C84  1  0.62764798  0.28603567  0.42389350  1  1.520753  0.020185  0.302587  0.422739  0.015375  4.245518  0.017
C  C85  1  0.12764057  0.21395726  0.07609157  1  1.519551  -0.020186  0.302737  0.422955  -0.015376  4.245763  -0.017
C  C86  1  0.37233732  0.71390317  0.57608215  1  1.518355  0.020188  0.302589  0.422433  0.015375  4.245866  0.017
C  C87  1  0.87235769  0.78607246  0.92389633  1  1.519241  -0.020181  0.302766  0.423099  -0.015376  4.245641  -0.017
C  C88  1  0.57897145  0.43158441  0.47141370  1  0.539097  -0.034962  0.116379  0.198138  -0.024585  4.054731  -0.018
C  C89  1  0.07896303  0.06840612  0.02856601  1  0.539922  0.034953  0.116376  0.197995  0.024581  4.05438  0.018
C  C90  1  0.42101478  0.56836580  0.52853638  1  0.540393  -0.034967  0.116147  0.19743  -0.024589  4.054694  -0.018
C  C91  1  0.92102319  0.93161863  0.97142632  1  0.54057  0.034955  0.116304  0.198055  0.024582  4.054608  0.018
C  C92  1  0.44987180  0.41435759  0.48267367  1  -0.076531  -0.006554  -0.098458  -0.241903  -0.00497  3.945235  -0.002
C  C93  1  0.94986637  0.08562828  0.01729081  1  -0.077219  0.006556  -0.098268  -0.241557  0.004968  3.945336  0.002
C  C94  1  0.55011165  0.58559422  0.51726696  1  -0.076825  -0.006554  -0.098172  -0.241239  -0.004966  3.945602  -0.002
C  C95  1  0.05011986  0.91439552  0.98270299  1  -0.077013  0.006551  -0.098327  -0.24164  0.004966  3.945481  0.002
C  C96  1  0.62997820  0.51982323  0.48970241  1  -0.005918  -0.020003  -0.000249  0.129209  -0.014291  3.950615  -0.011
C  C97  1  0.12997560  0.98017282  0.01027249  1  -0.006383  0.019997  -0.00027  0.129355  0.014287  3.950509  0.011
C  C98  1  0.37000711  0.48013392  0.51023160  1  -0.006729  -0.019993  -0.000402  0.128906  -0.014287  3.950305  -0.011
C  C99  1  0.87001063  0.01985135  0.98971912  1  -0.007008  0.019998  -0.000371  0.129138  0.014286  3.950362  0.011
C  C100  1  0.76571613  0.53904106  0.48024735  1  -0.064525  0.00078  -0.255928  -0.434343  0.000698  3.998269  0.001
C  C101  1  0.26571386  0.96096757  0.01972466  1  -0.064207  -0.000781  -0.255935  -0.434363  -0.000698  3.998273  -0.001
C  C102  1  0.23427010  0.46092144  0.51968005  1  -0.062976  0.000781  -0.255647  -0.433906  0.000698  3.998372  0.001
C  C103  1  0.73427422  0.03905804  0.98026258  1  -0.063047  -0.000781  -0.255852  -0.434162  -0.000699  3.99846  -0.001
N  N104  1  0.61248720  0.20933048  0.40147451  1  -1.201949  -0.020828  -0.410221  -0.509121  -0.015804  3.152906  -0.026
N  N105  1  0.11248871  0.29065403  0.09852742  1  -1.202248  0.020816  -0.410311  -0.509167  0.015798  3.152914  0.026
N  N106  1  0.38748790  0.79060317  0.59851935  1  -1.201001  -0.020842  -0.409983  -0.508714  -0.015809  3.152488  -0.026
N  N107  1  0.88751418  0.70936961  0.90147146  1  -1.202263  0.020834  -0.410209  -0.509245  0.015803  3.152789  0.026
N  N108  1  0.65740502  0.36612100  0.44438691  1  -1.268411  -0.026931  -0.286201  -0.313726  -0.017976  3.456464  -0.02
N  N109  1  0.15739545  0.13387592  0.05558631  1  -1.267155  0.026925  -0.286249  -0.313886  0.017972  3.456697  0.02
N  N110  1  0.34258028  0.63382669  0.55556974  1  -1.267128  -0.026927  -0.28633  -0.313437  -0.017975  3.457064  -0.02
N  N111  1  0.84259449  0.86615280  0.94439507  1  -1.266789  0.02692  -0.286337  -0.31406  0.01797  3.457154  0.02
O  O112  1  0.58242017  0.00904797  0.34249999  1  -1.025862  0.037092  -0.282108  -0.430724  0.026768  2.418322  0.026
O  O113  1  0.08243806  0.49095905  0.15751111  1  -1.025279  -0.037094  -0.282003  -0.430526  -0.026769  2.41849  -0.026
O  O114  1  0.41755308  0.99091957  0.65750998  1  -1.025184  0.037093  -0.282035  -0.430734  0.026769  2.418763  0.026
O  O115  1  0.91756483  0.50906953  0.84250436  1  -1.025862  -0.03709  -0.281991  -0.430759  -0.026766  2.418394  -0.026
O  O116  1  0.51364197  0.86705435  0.42817446  1  -1.061982  0.028585  -0.2836  -0.452278  0.020952  2.432243  0.022
O  O117  1  0.01365591  0.63294333  0.07183120  1  -1.061742  -0.028581  -0.283557  -0.452194  -0.020949  2.432156  -0.022
O  O118  1  0.48633221  0.13290926  0.57182542  1  -1.06161  0.028583  -0.28353  -0.452189  0.020954  2.432382  0.022
O  O119  1  0.98633587  0.36708169  0.92818868  1  -1.061494  -0.028579  -0.283386  -0.452239  -0.02095  2.432301  -0.022
O  O120  1  0.70913990  0.03288583  0.51302669  1  -1.066937  0.033841  -0.288195  -0.462758  0.02493  2.441555  0.025
O  O121  1  0.20915783  0.46710357  0.98698692  1  -1.066028  -0.033841  -0.288101  -0.462797  -0.024929  2.441218  -0.025
O  O122  1  0.29082131  0.96705422  0.48699171  1  -1.066418  0.033847  -0.288055  -0.462822  0.024934  2.440893  0.025
O  O123  1  0.79083580  0.53293290  0.01302769  1  -1.066468  -0.033845  -0.28806  -0.462946  -0.024934  2.440915  -0.025
O  O124  1  0.63442994  0.89362402  0.59929574  1  -1.047651  0.038916  -0.284238  -0.433338  0.028219  2.410433  0.028
O  O125  1  0.13444951  0.60635937  0.90071372  1  -1.047447  -0.038912  -0.284478  -0.433613  -0.028215  2.410615  -0.028
O  O126  1  0.36552849  0.10631462  0.40072269  1  -1.047154  0.038918  -0.28444  -0.433301  0.028215  2.411016  0.028
O  O127  1  0.86553949  0.39367569  0.09930091  1  -1.047119  -0.038924  -0.284501  -0.433555  -0.028219  2.411274  -0.028
F  F128  1  0.48330177  0.97178908  0.16134858  1  -0.617597  7.8e-05  -0.066234  -0.08258  5.4e-05  1.441758  0.0
F  F129  1  0.98335433  0.52823362  0.33867624  1  -0.618702  -7.7e-05  -0.066478  -0.082742  -5.3e-05  1.441486  0.0
F  F130  1  0.51672243  0.02819477  0.83863574  1  -0.61775  7.6e-05  -0.065927  -0.082306  5.3e-05  1.441845  0.0
F  F131  1  0.01675044  0.47178297  0.66138511  1  -0.61802  -7.6e-05  -0.065986  -0.08233  -5.3e-05  1.441826  0.0
F  F132  1  0.53801209  0.86848360  0.02078839  1  -0.614364  -3e-06  -0.071095  -0.095687  -1.7e-05  1.427812  0.0
F  F133  1  0.03807445  0.63154887  0.47921503  1  -0.614938  3e-06  -0.071156  -0.0956  1.8e-05  1.428123  0.0
F  F134  1  0.46206769  0.13153253  0.97919249  1  -0.614242  -3e-06  -0.071091  -0.095544  -1.7e-05  1.427888  0.0
F  F135  1  0.96205904  0.36847584  0.52081501  1  -0.614306  3e-06  -0.071023  -0.095489  1.7e-05  1.428142  0.0
F  F136  1  0.80225405  0.66789403  0.24140489  1  -0.634754  -6.9e-05  -0.087131  -0.10689  -1.4e-05  1.384483  0.0
F  F137  1  0.30226583  0.83215245  0.25855059  1  -0.635033  6.9e-05  -0.087381  -0.107154  1.4e-05  1.384535  0.0
F  F138  1  0.19778312  0.33210281  0.75859008  1  -0.63437  -7e-05  -0.087046  -0.106815  -1.4e-05  1.38481  0.0
F  F139  1  0.69772596  0.16791462  0.74139970  1  -0.634669  7e-05  -0.087146  -0.106887  1.5e-05  1.384388  0.0
F  F140  1  0.73875777  0.76593675  0.38429536  1  -0.623614  -3.2e-05  -0.075347  -0.09963  -1.3e-05  1.426477  0.0
F  F141  1  0.23877157  0.73408021  0.11568215  1  -0.623189  3.2e-05  -0.075418  -0.099788  1.3e-05  1.426453  0.0
F  F142  1  0.26121456  0.23402609  0.61571323  1  -0.623764  -3.2e-05  -0.075194  -0.099516  -1.3e-05  1.426559  0.0
F  F143  1  0.76118502  0.26597000  0.88428873  1  -0.623944  3.2e-05  -0.075239  -0.099446  1.3e-05  1.426529  0.0
F  F144  1  0.91177868  0.08284020  0.60713391  1  -0.622959  -1.7e-05  -0.079417  -0.102175  -1.6e-05  1.457127  0.0
F  F145  1  0.41181136  0.41715904  0.89289133  1  -0.622739  1.7e-05  -0.079348  -0.102147  1.6e-05  1.457125  0.0
F  F146  1  0.08813344  0.91712890  0.39288762  1  -0.623129  -1.7e-05  -0.079522  -0.102269  -1.6e-05  1.457076  0.0
F  F147  1  0.58816559  0.58286634  0.10714304  1  -0.623264  1.7e-05  -0.07954  -0.102239  1.6e-05  1.457183  0.0
F  F148  1  0.13988509  0.02973009  0.66526020  1  -0.627281  0.000438  -0.091549  -0.114048  0.000231  1.392626  0.0
F  F149  1  0.63991986  0.47027430  0.83477896  1  -0.627458  -0.000438  -0.091446  -0.114038  -0.000231  1.392816  0.0
F  F150  1  0.86004000  0.97027930  0.33475631  1  -0.627698  0.00044  -0.091552  -0.114078  0.000232  1.392802  0.0
F  F151  1  0.36006358  0.52972438  0.16528414  1  -0.627831  -0.00044  -0.091534  -0.114094  -0.000232  1.392843  0.0
F  F152  1  0.04210895  0.70527188  0.65815672  1  -0.609676  0.000159  -0.08174  -0.100999  0.000122  1.384912  0.0
F  F153  1  0.54212242  0.79473705  0.84182484  1  -0.609811  -0.000159  -0.08181  -0.101095  -0.000122  1.384867  0.0
F  F154  1  0.95790968  0.29471803  0.34188332  1  -0.609392  0.000156  -0.081814  -0.101102  0.000121  1.384637  0.0
F  F155  1  0.45789993  0.20527934  0.15818359  1  -0.609507  -0.000156  -0.081659  -0.100876  -0.000121  1.384899  0.0
F  F156  1  0.81049842  0.75596607  0.60034484  1  -0.618366  0.000122  -0.076774  -0.089836  7.6e-05  1.393774  0.0
F  F157  1  0.31050814  0.74403313  0.89964993  1  -0.618848  -0.000121  -0.076694  -0.089709  -7.6e-05  1.393715  0.0
F  F158  1  0.18950261  0.24397514  0.39970834  1  -0.619204  0.000123  -0.076484  -0.089533  7.6e-05  1.394078  0.0
F  F159  1  0.68950124  0.25600565  0.10035521  1  -0.619354  -0.000123  -0.076549  -0.089699  -7.6e-05  1.393579  0.0
