# generated using pymatgen
data_CoH16C18(NO3)2
_symmetry_space_group_name_H-M   'P 1'
_cell_length_a   7.34449229
_cell_length_b   10.42164165
_cell_length_c   11.29519485
_cell_angle_alpha   90.01135228
_cell_angle_beta   89.98858668
_cell_angle_gamma   91.54764757
_symmetry_Int_Tables_number   1
_chemical_formula_structural   CoH16C18(NO3)2
_chemical_formula_sum   'Co2 H32 C36 N4 O12'
_cell_volume   864.23762728
_cell_formula_units_Z   2
loop_
 _symmetry_equiv_pos_site_id
 _symmetry_equiv_pos_as_xyz
  1  'x, y, z'
loop_
 _atom_site_type_symbol
 _atom_site_label
 _atom_site_symmetry_multiplicity
 _atom_site_fract_x
 _atom_site_fract_y
 _atom_site_fract_z
 _atom_site_occupancy
 _atom_site_hle17_ddec_charge
 _atom_site_hle17_ddec_spin_density
 _atom_site_hle17_ddec_sum_bond_order
 _atom_site_hle17_magmom
 _atom_site_hse06_10hf_ddec_charge
 _atom_site_hse06_10hf_ddec_spin_density
 _atom_site_hse06_10hf_ddec_sum_bond_order
 _atom_site_hse06_10hf_magmom
 _atom_site_hse06_ddec_charge
 _atom_site_hse06_ddec_spin_density
 _atom_site_hse06_ddec_sum_bond_order
 _atom_site_hse06_magmom
 _atom_site_pbe_cm5_charge
 _atom_site_pbe_ddec_charge
 _atom_site_pbe_ddec_spin_density
 _atom_site_pbe_ddec_sum_bond_order
 _atom_site_pbe_magmom
Co  Co0  1  0.25185396  0.25004706  0.27977510  1  0.982383  -2.844332  1.954204  -2.588  0.95602  -2.845782  2.344951  -2.655  1.026941  -2.8844  2.28292  -2.727  0.647808  0.890552  -2.811114  2.407103  -2.587
Co  Co1  1  0.75186324  0.75006178  0.72024303  1  0.982454  -2.844456  1.954327  -2.588  0.955876  -2.845866  2.345339  -2.655  1.026894  -2.884444  2.283127  -2.727  0.647707  0.890464  -2.811232  2.407402  -2.587
H  H2  1  0.36811939  0.43475702  0.08574470  1  0.086525  -0.000223  0.958013  -0.001  0.094605  -0.000151  1.022344  -0.001  0.096678  -4.3e-05  1.020561  -0.001  0.115581  0.093051  -0.000266  1.023885  -0.001
H  H3  1  0.13656452  0.06990532  0.08701834  1  0.086725  -0.000241  0.957008  -0.001  0.094454  -0.000255  1.022035  -0.001  0.0966  -0.000158  1.020109  -0.001  0.115417  0.092813  -0.000342  1.023733  -0.001
H  H4  1  0.63657354  0.56997864  0.91291478  1  0.086871  -0.000243  0.957334  -0.001  0.094606  -0.000257  1.022247  -0.001  0.096742  -0.000159  1.020342  -0.001  0.115541  0.092964  -0.000343  1.023937  -0.001
H  H5  1  0.86812741  0.93478935  0.91433609  1  0.086155  -0.000224  0.958449  -0.001  0.094378  -0.000152  1.022652  -0.001  0.09644  -4.3e-05  1.020883  -0.001  0.115568  0.092823  -0.000267  1.024186  -0.001
H  H6  1  0.84351402  0.34896636  0.86514190  1  0.088895  7e-06  0.945165  0.0  0.101561  -2.7e-05  1.002909  0.0  0.104953  -1e-05  1.000942  0.0  0.099574  0.099301  -4.9e-05  1.004121  0.0
H  H7  1  0.64941114  0.14608377  0.86589889  1  0.089933  9e-06  0.944766  0.0  0.102445  1.2e-05  1.00257  0.0  0.105981  2.1e-05  1.000467  0.0  0.099674  0.100051  2e-06  1.003931  0.0
H  H8  1  0.14918276  0.64595933  0.13404604  1  0.089853  9e-06  0.94438  0.0  0.102314  1.2e-05  1.002259  0.0  0.105877  2.1e-05  1.00012  0.0  0.099648  0.099923  2e-06  1.003627  0.0
H  H9  1  0.34334711  0.84882261  0.13488352  1  0.089067  8e-06  0.945049  0.0  0.101848  -2.7e-05  1.00269  0.0  0.105198  -9e-06  1.000782  0.0  0.099748  0.099591  -4.9e-05  1.003908  0.0
H  H10  1  0.55397340  0.41784125  0.31087990  1  0.414016  7.6e-05  0.904613  0.0  0.380032  -0.000253  0.975265  0.0  0.392072  -0.000129  0.958398  0.0  0.279702  0.371555  -0.000395  0.98701  -0.001
H  H11  1  0.94804585  0.08350507  0.31198697  1  0.414861  -1.5e-05  0.90271  0.0  0.381086  -0.00038  0.972829  -0.001  0.393028  -0.000219  0.956131  0.0  0.280733  0.372643  -0.000546  0.984494  -0.001
H  H12  1  0.44807202  0.58355873  0.68799017  1  0.414897  -1.4e-05  0.902576  0.0  0.381095  -0.00038  0.972693  -0.001  0.393039  -0.000222  0.955992  0.0  0.280732  0.372651  -0.000546  0.984358  -0.001
H  H13  1  0.05407065  0.91773642  0.68918849  1  0.413864  7.7e-05  0.904838  0.0  0.379777  -0.000253  0.975639  0.0  0.391839  -0.00013  0.95875  0.0  0.279533  0.371291  -0.000396  0.987395  -0.001
H  H14  1  0.38069383  0.43983874  0.86346178  1  0.113993  -0.000263  0.963904  0.0  0.12224  -0.000332  1.027844  0.0  0.125532  -0.000228  1.026917  0.0  0.107083  0.119453  -0.000436  1.029407  0.0
H  H15  1  0.12175227  0.06341839  0.86490793  1  0.113659  -0.000281  0.963537  0.0  0.12157  -0.000321  1.028242  0.0  0.124772  -0.000221  1.027466  0.0  0.107027  0.11889  -0.000423  1.02965  0.0
H  H16  1  0.62173906  0.56338165  0.13501800  1  0.113651  -0.000282  0.963184  0.0  0.121714  -0.000321  1.027723  0.0  0.124948  -0.000221  1.026843  0.0  0.107141  0.11903  -0.000423  1.029152  0.0
H  H17  1  0.88069210  0.93982436  0.13662358  1  0.114456  -0.000262  0.963458  0.0  0.122583  -0.000332  1.027489  0.0  0.125855  -0.000228  1.026583  0.0  0.107204  0.119842  -0.000435  1.028993  0.0
H  H18  1  0.54171205  0.28662467  0.69701913  1  0.100726  -0.000279  0.947156  0.0  0.114204  -0.000393  1.002917  0.0  0.116832  -0.000276  1.002364  0.0  0.107821  0.112191  -0.000522  1.003817  0.0
H  H19  1  0.96045715  0.21551612  0.69785396  1  0.100572  -0.00027  0.948102  0.0  0.113717  -0.000371  1.004185  0.0  0.116343  -0.000258  1.00362  0.0  0.1078  0.111707  -0.000499  1.005079  0.0
H  H20  1  0.46045703  0.71545932  0.30223700  1  0.10056  -0.000269  0.948151  0.0  0.113766  -0.00037  1.004156  0.0  0.1164  -0.000257  1.003574  0.0  0.107808  0.111753  -0.000499  1.005066  0.0
H  H21  1  0.04168033  0.78662386  0.30288156  1  0.100922  -0.000279  0.947421  0.0  0.114331  -0.000392  1.003173  0.0  0.116954  -0.000276  1.002619  0.0  0.107949  0.112325  -0.000522  1.00407  0.0
H  H22  1  0.35884007  0.47752917  0.34060084  1  0.419979  0.00066  0.821739  0.001  0.405827  -0.000126  0.873437  0.0  0.41481  -1.4e-05  0.863479  0.0  0.318796  0.399381  -0.000214  0.88028  0.0
H  H23  1  0.14366778  0.02550630  0.34384794  1  0.422288  0.001129  0.819719  0.001  0.407179  0.000581  0.872592  0.0  0.41619  0.000657  0.862575  0.0  0.319279  0.400719  0.000486  0.879474  0.0
H  H24  1  0.64376561  0.52559712  0.65613393  1  0.422327  0.001133  0.819701  0.001  0.407211  0.000583  0.872568  0.0  0.416216  0.000658  0.862554  0.0  0.319234  0.400754  0.000488  0.879454  0.0
H  H25  1  0.85893054  0.97748632  0.65950998  1  0.420154  0.000658  0.82175  0.001  0.405989  -0.000128  0.873458  0.0  0.414966  -1.6e-05  0.863504  0.0  0.318867  0.399533  -0.000217  0.880314  0.0
H  H26  1  0.53138017  0.27791722  0.47624816  1  0.086773  -0.000251  0.950862  -0.001  0.092601  -0.000335  1.016863  -0.001  0.09517  -0.000207  1.014055  -0.001  0.118861  0.090366  -0.000466  1.019412  -0.001
H  H27  1  0.96987199  0.22184355  0.47690863  1  0.087496  -0.000223  0.950509  -0.001  0.093756  -0.00027  1.01562  -0.001  0.096478  -0.000146  1.012626  -0.001  0.11935  0.091452  -0.000401  1.01827  -0.001
H  H28  1  0.46994482  0.72179060  0.52316363  1  0.087457  -0.000221  0.951072  -0.001  0.093751  -0.000269  1.016073  -0.001  0.096471  -0.000145  1.013082  -0.001  0.119321  0.09145  -0.000398  1.018722  -0.001
H  H29  1  0.03140343  0.77794239  0.52365676  1  0.086416  -0.000249  0.951075  -0.001  0.092245  -0.000334  1.017077  -0.001  0.094907  -0.000207  1.01416  -0.001  0.118678  0.089989  -0.000465  1.019644  -0.001
H  H30  1  0.94684772  0.44259349  0.05719810  1  0.084693  4.7e-05  0.982562  0.0  0.096577  6.8e-05  1.044653  0.0  0.09891  6.6e-05  1.044038  0.0  0.098685  0.094522  6.9e-05  1.04621  0.0
H  H31  1  0.54757102  0.05356796  0.05874970  1  0.084208  3.5e-05  0.982378  0.0  0.095929  1.9e-05  1.044139  0.0  0.098392  2.7e-05  1.043333  0.0  0.098731  0.093831  1.5e-05  1.045767  0.0
H  H32  1  0.04739990  0.55356160  0.94112754  1  0.084311  3.5e-05  0.982555  0.0  0.096007  1.9e-05  1.044329  0.0  0.098459  2.7e-05  1.043539  0.0  0.098727  0.093891  1.5e-05  1.045982  0.0
H  H33  1  0.44668858  0.94253463  0.94288088  1  0.08471  4.8e-05  0.98256  0.0  0.096564  6.8e-05  1.044666  0.0  0.098901  6.7e-05  1.044041  0.0  0.098635  0.094508  6.9e-05  1.046225  0.0
C  C34  1  0.87085163  0.36626627  0.27688973  1  0.663718  0.00219  3.892005  0.001  0.614722  -0.002027  4.199965  -0.004  0.650737  -0.001529  4.191372  -0.003  0.211223  0.588978  -0.002794  4.204033  -0.004
C  C35  1  0.62651787  0.13082259  0.27793839  1  0.663818  0.000538  3.884678  0.0  0.614759  -0.003747  4.194982  -0.005  0.649989  -0.002589  4.186932  -0.004  0.211929  0.589828  -0.005176  4.198435  -0.006
C  C36  1  0.12649417  0.63079065  0.72199177  1  0.663988  0.000535  3.886178  0.0  0.615244  -0.00374  4.196159  -0.005  0.650455  -0.002583  4.188145  -0.004  0.21216  0.59033  -0.005168  4.199604  -0.006
C  C37  1  0.37083543  0.86628446  0.72314493  1  0.663649  0.002196  3.89152  0.001  0.614846  -0.002023  4.199194  -0.004  0.650869  -0.001525  4.190581  -0.003  0.211247  0.589081  -0.002788  4.203299  -0.004
C  C38  1  0.18635864  0.15024491  0.03339320  1  0.131247  0.010353  3.690332  0.006  0.101651  0.002783  3.949959  0.001  0.109433  0.002541  3.968007  0.001  0.04667  0.096362  0.003644  3.93791  0.002
C  C39  1  0.31796583  0.35413208  0.03266783  1  0.136324  0.010913  3.688102  0.007  0.10683  0.003683  3.94696  0.002  0.114474  0.003792  3.965184  0.002  0.048948  0.101703  0.003951  3.934754  0.002
C  C40  1  0.81794044  0.85414618  0.96738576  1  0.137166  0.010938  3.689155  0.007  0.107438  0.003693  3.948097  0.002  0.115108  0.003796  3.966317  0.002  0.04915  0.102309  0.003964  3.935907  0.002
C  C41  1  0.68635408  0.65029140  0.96657331  1  0.130694  0.010358  3.69226  0.006  0.10115  0.002789  3.951738  0.001  0.108931  0.002545  3.969804  0.001  0.046492  0.095873  0.003648  3.93968  0.002
C  C42  1  0.40709538  0.26656635  0.52847483  1  0.145631  0.010213  3.679536  0.006  0.117492  0.001932  3.933515  0.001  0.127324  0.002015  3.948346  0.001  0.053486  0.110036  0.002819  3.924462  0.001
C  C43  1  0.09441742  0.23331754  0.52886416  1  0.146154  0.0106  3.680735  0.007  0.118222  0.002495  3.933893  0.001  0.128017  0.00258  3.948669  0.001  0.054154  0.110707  0.003415  3.924924  0.002
C  C44  1  0.59442722  0.73328941  0.47116892  1  0.145656  0.010599  3.680854  0.007  0.117761  0.002491  3.933882  0.001  0.127557  0.002576  3.94865  0.001  0.053888  0.110252  0.003409  3.924921  0.001
C  C45  1  0.90711934  0.76658047  0.47145067  1  0.146112  0.010187  3.680601  0.006  0.117919  0.001922  3.934543  0.001  0.127688  0.002005  3.949332  0.001  0.053598  0.110486  0.002806  3.925495  0.001
C  C46  1  0.25139484  0.25148951  0.84612671  1  0.097559  0.008928  3.760651  0.005  0.105792  0.003781  3.993666  0.002  0.110713  0.002784  4.013904  0.002  0.012728  0.101175  0.006059  3.981459  0.003
C  C47  1  0.75136819  0.75149144  0.15388022  1  0.097944  0.00894  3.760314  0.005  0.106055  0.003789  3.993574  0.002  0.110961  0.00279  4.013806  0.002  0.012631  0.101433  0.006066  3.98139  0.003
C  C48  1  0.80506926  0.30326425  0.16389704  1  -0.075795  -0.000599  3.728922  -0.002  -0.058107  -0.000388  3.957992  -0.001  -0.062946  -9.6e-05  3.978533  -0.001  -0.013286  -0.054375  -0.000914  3.943493  -0.002
C  C49  1  0.68940880  0.19382505  0.16433137  1  -0.078426  0.000866  3.730475  0.0  -0.064083  0.000713  3.963395  0.0  -0.068645  0.000958  3.98357  0.0  -0.014726  -0.060675  0.00038  3.949176  0.0
C  C50  1  0.18928563  0.69380544  0.83563184  1  -0.078255  0.000877  3.730803  0.0  -0.064397  0.000713  3.964337  0.0  -0.068964  0.000955  3.984536  0.0  -0.014708  -0.06099  0.000383  3.950094  0.0
C  C51  1  0.30494029  0.80326877  0.83610674  1  -0.075708  -0.000602  3.72871  -0.002  -0.057957  -0.000386  3.957857  -0.001  -0.062799  -9.6e-05  3.978403  -0.001  -0.013263  -0.054207  -0.000911  3.943343  -0.002
C  C52  1  0.17979756  0.14702689  0.91050350  1  -0.160734  -0.004338  3.700858  -0.006  -0.177125  -0.00156  3.94856  -0.002  -0.185107  -0.00146  3.969519  -0.002  -0.081981  -0.172575  -0.00145  3.937005  -0.003
C  C53  1  0.32330914  0.35647326  0.90975659  1  -0.161838  -0.004573  3.703819  -0.007  -0.178397  -0.001738  3.950987  -0.003  -0.186357  -0.001612  3.971872  -0.002  -0.081642  -0.173833  -0.001608  3.939412  -0.003
C  C54  1  0.82328661  0.85646825  0.09029848  1  -0.162519  -0.004579  3.704214  -0.007  -0.178909  -0.001741  3.951661  -0.003  -0.186845  -0.001614  3.972548  -0.002  -0.081589  -0.174378  -0.001613  3.940056  -0.003
C  C55  1  0.67976955  0.64704477  0.08944648  1  -0.160896  -0.004341  3.700753  -0.006  -0.177346  -0.001562  3.948479  -0.002  -0.185307  -0.00146  3.969451  -0.002  -0.082035  -0.172803  -0.001452  3.936933  -0.003
C  C56  1  0.63592920  0.13890788  0.05631947  1  -0.084103  -0.000239  3.771465  0.0  -0.106746  -0.000214  4.022574  0.0  -0.107948  -0.000141  4.043911  0.0  -0.091664  -0.105683  -0.00033  4.008758  -0.001
C  C57  1  0.85809698  0.35746038  0.05548678  1  -0.08565  0.000618  3.770345  0.0  -0.109829  0.000347  4.021818  0.0  -0.110996  0.00046  4.043131  0.0  -0.092528  -0.108848  0.00022  4.00807  0.0
C  C58  1  0.35792037  0.85741732  0.94455507  1  -0.085647  0.000628  3.770112  0.0  -0.10973  0.000347  4.021591  0.0  -0.110899  0.000459  4.042904  0.0  -0.092671  -0.108751  0.000222  4.007849  0.0
C  C59  1  0.13575693  0.63886461  0.94360116  1  -0.084103  -0.000241  3.772058  0.0  -0.106629  -0.000212  4.023296  0.0  -0.107812  -0.000139  4.044617  0.0  -0.091631  -0.105564  -0.000328  4.009473  -0.001
C  C60  1  0.25115325  0.25091401  0.71555079  1  0.10823  0.008375  3.750398  0.005  0.119942  0.002172  3.982297  0.001  0.124245  0.001626  4.003297  0.001  0.016898  0.116555  0.00457  3.969883  0.002
C  C61  1  0.75115328  0.75088429  0.28446049  1  0.108354  0.008368  3.749658  0.005  0.119934  0.002167  3.981811  0.001  0.124234  0.001624  4.00282  0.001  0.017028  0.116554  0.00456  3.969405  0.002
C  C62  1  0.41244940  0.27043379  0.65132264  1  -0.144592  -0.004426  3.691097  -0.006  -0.16293  -0.001464  3.934409  -0.002  -0.169926  -0.001334  3.953302  -0.002  -0.078117  -0.159332  -0.001478  3.924023  -0.002
C  C63  1  0.08958608  0.23083834  0.65175280  1  -0.144956  -0.004523  3.692136  -0.006  -0.163432  -0.001485  3.935718  -0.002  -0.170523  -0.001311  3.95471  -0.002  -0.078332  -0.159743  -0.001582  3.925316  -0.002
C  C64  1  0.58957485  0.73078107  0.34828313  1  -0.144714  -0.00452  3.692133  -0.006  -0.163267  -0.001483  3.935764  -0.002  -0.170354  -0.001309  3.954746  -0.002  -0.07836  -0.159588  -0.00158  3.925378  -0.002
C  C65  1  0.91248254  0.77042440  0.34862498  1  -0.145058  -0.004422  3.692185  -0.006  -0.163219  -0.001463  3.935483  -0.002  -0.170221  -0.001334  3.954411  -0.002  -0.078251  -0.159627  -0.001477  3.9251  -0.002
C  C66  1  0.69217380  0.19178146  0.94867340  1  -0.078773  0.000564  3.783599  0.0  -0.095279  0.000244  4.043289  0.0  -0.096839  0.000332  4.063398  0.0  -0.096635  -0.093944  0.000139  4.029128  0.0
C  C67  1  0.80114691  0.30384534  0.94827869  1  -0.07579  -0.000262  3.782222  0.0  -0.092151  -0.000277  4.042242  0.0  -0.093461  -0.000216  4.062286  0.0  -0.096456  -0.090984  -0.000376  4.028083  0.0
C  C68  1  0.30097081  0.80374717  0.05173278  1  -0.07619  -0.000266  3.7829  0.0  -0.092712  -0.000277  4.042996  0.0  -0.094  -0.000217  4.063053  0.0  -0.096565  -0.091546  -0.000375  4.028853  0.0
C  C69  1  0.19200349  0.69168796  0.05128466  1  -0.078558  0.000573  3.783713  0.0  -0.09494  0.000244  4.043246  0.0  -0.096521  0.000331  4.063361  0.0  -0.096585  -0.093606  0.00014  4.029083  0.0
N  N70  1  0.25064274  0.24940260  0.46768334  1  -0.321721  -0.033655  3.306023  -0.056  -0.272185  -0.024089  3.584868  -0.038  -0.295239  -0.019698  3.601607  -0.032  -0.325731  -0.25461  -0.027447  3.573257  -0.042
N  N71  1  0.75069044  0.74941909  0.53231711  1  -0.321521  -0.03365  3.304931  -0.056  -0.2719  -0.024082  3.583701  -0.038  -0.294972  -0.019691  3.600477  -0.032  -0.325455  -0.254334  -0.027441  3.572083  -0.042
N  N72  1  0.25282485  0.25231830  0.09437515  1  -0.323298  -0.033597  3.317797  -0.057  -0.274519  -0.024569  3.603325  -0.038  -0.297674  -0.020096  3.621581  -0.032  -0.328166  -0.256691  -0.028002  3.589594  -0.043
N  N73  1  0.75280148  0.75235084  0.90566449  1  -0.323357  -0.033601  3.319488  -0.057  -0.274471  -0.024572  3.604944  -0.038  -0.297671  -0.020096  3.623231  -0.032  -0.328436  -0.256653  -0.028009  3.591211  -0.043
O  O74  1  0.04314543  0.37756129  0.29087731  1  -0.6315  -0.038175  2.064363  -0.067  -0.60216  -0.028953  2.337164  -0.046  -0.638083  -0.021141  2.325638  -0.034  -0.324411  -0.569678  -0.038389  2.341999  -0.061
O  O75  1  0.45471680  0.11627375  0.29425527  1  -0.634345  -0.035706  2.046624  -0.063  -0.60573  -0.025191  2.318771  -0.04  -0.640536  -0.018323  2.307183  -0.029  -0.326992  -0.574479  -0.033608  2.323864  -0.053
O  O76  1  0.95469459  0.61622021  0.70564977  1  -0.634693  -0.035702  2.047091  -0.063  -0.60615  -0.025189  2.319113  -0.04  -0.64093  -0.018323  2.307444  -0.029  -0.327239  -0.574916  -0.033602  2.3242  -0.053
O  O77  1  0.54312626  0.87759392  0.70916413  1  -0.631494  -0.038107  2.064347  -0.067  -0.60218  -0.028912  2.337081  -0.046  -0.638089  -0.021116  2.325511  -0.034  -0.32431  -0.569735  -0.03833  2.341943  -0.061
O  O78  1  0.42147642  0.42545205  0.28270380  1  -0.827306  -0.021472  1.94503  -0.043  -0.794974  -0.020198  2.155351  -0.034  -0.818967  -0.016246  2.123868  -0.028  -0.56525  -0.775089  -0.024058  2.17769  -0.04
O  O79  1  0.08077720  0.07612715  0.28495981  1  -0.826275  -0.022884  1.946297  -0.046  -0.792737  -0.021867  2.156488  -0.037  -0.817314  -0.017581  2.125394  -0.031  -0.564892  -0.77238  -0.025987  2.178557  -0.043
O  O80  1  0.58081367  0.57619343  0.71503571  1  -0.826235  -0.022917  1.946553  -0.046  -0.792614  -0.021888  2.156911  -0.037  -0.817219  -0.017597  2.125805  -0.031  -0.564775  -0.772255  -0.026013  2.178966  -0.043
O  O81  1  0.92149588  0.92537585  0.71739138  1  -0.827549  -0.021513  1.945145  -0.043  -0.795114  -0.020227  2.155672  -0.034  -0.81914  -0.016266  2.124152  -0.028  -0.565314  -0.775225  -0.024092  2.178041  -0.04
O  O82  1  0.75485665  0.40777628  0.34944777  1  -0.608001  -0.00638  1.940717  -0.012  -0.562235  -0.004552  2.15848  -0.008  -0.587545  -0.002989  2.148596  -0.006  -0.319695  -0.543668  -0.00652  2.16508  -0.011
O  O83  1  0.74519141  0.09236315  0.35003488  1  -0.607342  -0.008884  1.937617  -0.016  -0.560682  -0.00749  2.155998  -0.013  -0.586624  -0.005169  2.146729  -0.01  -0.317465  -0.541308  -0.010343  2.161877  -0.018
O  O84  1  0.24523569  0.59235288  0.64993315  1  -0.607288  -0.008872  1.938662  -0.016  -0.56068  -0.007476  2.156924  -0.013  -0.586627  -0.00516  2.147677  -0.01  -0.317425  -0.541317  -0.010326  2.162808  -0.018
O  O85  1  0.25485342  0.90777309  0.65058551  1  -0.607858  -0.006364  1.940485  -0.012  -0.562101  -0.004546  2.158158  -0.008  -0.587422  -0.002987  2.148263  -0.006  -0.319611  -0.543533  -0.006511  2.164777  -0.011
