# generated using pymatgen
data_CdH18C18(N2O3)2
_symmetry_space_group_name_H-M   'P 1'
_cell_length_a   9.82068254
_cell_length_b   10.57192710
_cell_length_c   11.18106030
_cell_angle_alpha   73.21758804
_cell_angle_beta   65.69108430
_cell_angle_gamma   63.75260563
_symmetry_Int_Tables_number   1
_chemical_formula_structural   CdH18C18(N2O3)2
_chemical_formula_sum   'Cd2 H36 C36 N8 O12'
_cell_volume   940.73728936
_cell_formula_units_Z   2
loop_
 _symmetry_equiv_pos_site_id
 _symmetry_equiv_pos_as_xyz
  1  'x, y, z'
loop_
 _atom_site_type_symbol
 _atom_site_label
 _atom_site_symmetry_multiplicity
 _atom_site_fract_x
 _atom_site_fract_y
 _atom_site_fract_z
 _atom_site_occupancy
 _atom_site_hle17_bader_spin_density
 _atom_site_hle17_ddec_charge
 _atom_site_hle17_ddec_spin_density
 _atom_site_hle17_ddec_sum_bond_order
 _atom_site_hle17_magmom
 _atom_site_hse06_10hf_bader_spin_density
 _atom_site_hse06_10hf_ddec_charge
 _atom_site_hse06_10hf_ddec_spin_density
 _atom_site_hse06_10hf_ddec_sum_bond_order
 _atom_site_hse06_10hf_magmom
 _atom_site_hse06_bader_spin_density
 _atom_site_hse06_ddec_charge
 _atom_site_hse06_ddec_spin_density
 _atom_site_hse06_ddec_sum_bond_order
 _atom_site_hse06_magmom
 _atom_site_pbe_bader_spin_density
 _atom_site_pbe_cm5_charge
 _atom_site_pbe_ddec_charge
 _atom_site_pbe_ddec_spin_density
 _atom_site_pbe_ddec_sum_bond_order
 _atom_site_pbe_magmom
Cd  Cd0  1  0.46867139  0.17886425  0.22069266  1  0  1.170358  0  1.626438  0  0  0.994834  0  2.06725  0  0  1.052354  0  2.011372  0  0  0.771595  0.950259  0  2.108142  0
Cd  Cd1  1  0.53132595  0.82113534  0.77930769  1  0  1.170352  0  1.626377  0  0  0.994821  0  2.067205  0  0  1.052338  0  2.011321  0  0  0.771619  0.950245  0  2.108094  0
H  H2  1  0.55574235  0.12261746  0.95440498  1  0  0.41825  0  0.886462  0  0  0.387056  0  0.950163  0  0  0.397749  0  0.934844  0  0  0.286691  0.379438  0  0.96101  0
H  H3  1  0.44425499  0.87738216  0.04559268  1  0  0.418149  0  0.886594  0  0  0.386998  0  0.95023  0  0  0.397691  0  0.934914  0  0  0.286645  0.379381  0  0.961077  0
H  H4  1  0.59531152  0.99320636  0.06415792  1  0  0.404343  0  0.91122  0  0  0.370842  0  0.979926  0  0  0.382787  0  0.962703  0  0  0.279869  0.362441  0  0.991938  0
H  H5  1  0.40468695  0.00679327  0.93583755  1  0  0.404374  0  0.911185  0  0  0.370873  0  0.979888  0  0  0.382819  0  0.962663  0  0  0.279884  0.362472  0  0.991899  0
H  H6  1  0.26069836  0.44752990  0.58541298  1  0  0.103396  0  0.949944  0  0  0.111304  0  1.017425  0  0  0.114811  0  1.014968  0  0  0.104536  0.109015  0  1.018742  0
H  H7  1  0.73931055  0.55246323  0.41459301  1  0  0.103355  0  0.949968  0  0  0.111292  0  1.017402  0  0  0.114799  0  1.014945  0  0  0.104521  0.109004  0  1.01872  0
H  H8  1  0.48566332  0.63633562  0.20270581  1  0  0.106007  0  0.948964  0  0  0.114095  0  1.015028  0  0  0.118387  0  1.010967  0  0  0.106464  0.111011  0  1.018181  0
H  H9  1  0.51434091  0.36365544  0.79729703  1  0  0.10604  0  0.948863  0  0  0.11412  0  1.014943  0  0  0.118401  0  1.010903  0  0  0.106459  0.111033  0  1.018103  0
H  H10  1  0.28967447  0.85576122  0.54062992  1  0  0.109332  0  0.963124  0  0  0.117886  0  1.027478  0  0  0.121169  0  1.025304  0  0  0.106994  0.115652  0  1.028768  0
H  H11  1  0.71032935  0.14423625  0.45936689  1  0  0.109285  0  0.963117  0  0  0.117857  0  1.027456  0  0  0.121136  0  1.025288  0  0  0.10699  0.115623  0  1.028744  0
H  H12  1  0.26165142  0.57897824  0.78204312  1  0  0.101391  0  0.932435  0  0  0.114254  0  0.99987  0  0  0.115004  0  0.999074  0  0  0.118808  0.113964  0  0.999414  0
H  H13  1  0.73835126  0.42101918  0.21796038  1  0  0.101387  0  0.932448  0  0  0.1142  0  0.999924  0  0  0.114949  0  0.999134  0  0  0.118799  0.113908  0  0.999471  0
H  H14  1  0.15577705  0.76244452  0.75181105  1  0  0.104362  0  0.935009  0  0  0.114686  0  1.005994  0  0  0.116168  0  1.00385  0  0  0.121439  0.113627  0  1.006899  0
H  H15  1  0.84422990  0.23755610  0.24818739  1  0  0.10433  0  0.935074  0  0  0.114636  0  1.006081  0  0  0.116118  0  1.003942  0  0  0.121408  0.113577  0  1.006985  0
H  H16  1  0.24007905  0.34006305  0.84860230  1  0  0.119432  0  0.97281  0  0  0.123665  0  1.042298  0  0  0.126946  0  1.041177  0  0  0.104213  0.12104  0  1.04374  0
H  H17  1  0.75991272  0.65993661  0.15139376  1  0  0.11951  0  0.972685  0  0  0.123644  0  1.042276  0  0  0.126944  0  1.041134  0  0  0.104194  0.121019  0  1.043721  0
H  H18  1  0.11485776  0.16079025  0.95949509  1  0  0.097948  0  0.945523  0  0  0.111585  0  1.002521  0  0  0.11408  0  1.001678  0  0  0.105266  0.109682  0  1.003367  0
H  H19  1  0.88512666  0.83921897  0.04050285  1  0  0.098077  0  0.945584  0  0  0.111699  0  1.002574  0  0  0.114197  0  1.001728  0  0  0.105319  0.109797  0  1.003422  0
H  H20  1  0.82231842  0.22371623  0.01581112  1  0  0.103291  0  0.950313  0  0  0.114889  0  1.009383  0  0  0.117747  0  1.008159  0  0  0.105905  0.11283  0  1.010519  0
H  H21  1  0.17766825  0.77629829  0.98418641  1  0  0.103235  0  0.950383  0  0  0.11486  0  1.009433  0  0  0.117716  0  1.008211  0  0  0.105917  0.112793  0  1.010582  0
H  H22  1  0.64463441  0.46970917  0.95512742  1  0  0.125982  0  0.95323  0  0  0.135413  0  1.012075  0  0  0.138887  0  1.009436  0  0  0.110854  0.132879  0  1.014222  0
H  H23  1  0.35536543  0.53030845  0.04487084  1  0  0.126033  0  0.953168  0  0  0.135465  0  1.01201  0  0  0.138937  0  1.009373  0  0  0.110865  0.132928  0  1.014161  0
H  H24  1  0.68647019  0.89593869  0.38485177  1  0  0.060177  0  0.920566  0  0  0.070057  0  0.985821  0  0  0.071982  0  0.981084  0  0  0.127959  0.068474  0  0.989328  0
H  H25  1  0.31352849  0.10406302  0.61514844  1  0  0.060138  0  0.92057  0  0  0.069971  0  0.985871  0  0  0.071893  0  0.981137  0  0  0.127935  0.068388  0  0.989376  0
H  H26  1  0.00468167  0.01909877  0.15899951  1  0  0.106804  0  0.949828  0  0  0.126128  0  1.013822  0  0  0.127541  0  1.012483  0  0  0.108549  0.125035  0  1.014779  0
H  H27  1  0.99531677  0.98090080  0.84100314  1  0  0.106806  0  0.949814  0  0  0.126137  0  1.013823  0  0  0.12755  0  1.012485  0  0  0.108551  0.125045  0  1.014779  0
H  H28  1  0.15474321  0.85284300  0.19202227  1  0  0.101906  0  0.952322  0  0  0.121642  0  1.018266  0  0  0.121538  0  1.019698  0  0  0.102894  0.121529  0  1.017503  0
H  H29  1  0.84525411  0.14715656  0.80798168  1  0  0.101948  0  0.952293  0  0  0.121695  0  1.018227  0  0  0.121592  0  1.019657  0  0  0.102938  0.121582  0  1.017464  0
H  H30  1  0.07253033  0.98869980  0.29431917  1  0  0.099749  0  0.935238  0  0  0.116543  0  1.004587  0  0  0.116836  0  1.004535  0  0  0.102108  0.115987  0  1.004955  0
H  H31  1  0.92746654  0.01130082  0.70568555  1  0  0.099789  0  0.935248  0  0  0.116599  0  1.00458  0  0  0.116891  0  1.00453  0  0  0.102141  0.116044  0  1.004946  0
H  H32  1  0.85985168  0.72109937  0.46513933  1  0  0.122944  0  0.975426  0  0  0.139338  0  1.041518  0  0  0.141558  0  1.039637  0  0  0.106327  0.137653  0  1.042918  0
H  H33  1  0.14014588  0.27890234  0.53486217  1  0  0.122953  0  0.975412  0  0  0.139342  0  1.041513  0  0  0.141564  0  1.03963  0  0  0.106332  0.137651  0  1.042921  0
H  H34  1  0.00837488  0.76590291  0.47790476  1  0  0.096836  0  0.950777  0  0  0.112709  0  1.019245  0  0  0.112836  0  1.020535  0  0  0.097023  0.112465  0  1.018422  0
H  H35  1  0.99162244  0.23409666  0.52209829  1  0  0.096794  0  0.950773  0  0  0.112664  0  1.019256  0  0  0.11279  0  1.020545  0  0  0.097019  0.11242  0  1.01843  0
H  H36  1  0.06149445  0.66695708  0.34981483  1  0  0.094463  0  0.944899  0  0  0.112394  0  1.009998  0  0  0.112251  0  1.012094  0  0  0.096422  0.112253  0  1.0089  0
H  H37  1  0.93850288  0.33304250  0.65018732  1  0  0.094409  0  0.944931  0  0  0.11234  0  1.010035  0  0  0.112197  0  1.012132  0  0  0.0964  0.112199  0  1.008935  0
C  C38  1  0.26307687  0.65379557  0.58030517  1  0  0.062474  0  3.753226  0  0  0.084337  0  4.002781  0  0  0.081338  0  4.024105  0  0  -0.010502  0.086418  0  3.986554  0
C  C39  1  0.73693229  0.34619971  0.41969659  1  0  0.062531  0  3.753056  0  0  0.084256  0  4.002777  0  0  0.081254  0  4.024111  0  0  -0.010521  0.086334  0  3.986556  0
C  C40  1  0.29527973  0.53669793  0.52467320  1  0  -0.094166  0  3.680183  0  0  -0.131392  0  3.931066  0  0  -0.128925  0  3.949107  0  0  -0.075781  -0.132297  0  3.918359  0
C  C41  1  0.70472338  0.46329841  0.47533222  1  0  -0.094111  0  3.680134  0  0  -0.13128  0  3.931055  0  0  -0.128807  0  3.949094  0  0  -0.075716  -0.132186  0  3.918349  0
C  C42  1  0.37501450  0.53045461  0.38901474  1  0  -0.063874  0  3.782785  0  0  -0.033167  0  4.011605  0  0  -0.042702  0  4.035507  0  0  -0.018035  -0.027276  0  3.996794  0
C  C43  1  0.62499263  0.46953748  0.61098947  1  0  -0.063916  0  3.782928  0  0  -0.033286  0  4.011853  0  0  -0.04283  0  4.03575  0  0  -0.018024  -0.027392  0  3.99704  0
C  C44  1  0.42340599  0.64198862  0.30836053  1  0  -0.07817  0  3.709482  0  0  -0.118002  0  3.962372  0  0  -0.114886  0  3.980753  0  0  -0.078083  -0.120429  0  3.951318  0
C  C45  1  0.57660315  0.35800136  0.69164084  1  0  -0.078054  0  3.709492  0  0  -0.117872  0  3.962429  0  0  -0.114746  0  3.980797  0  0  -0.078048  -0.120305  0  3.951375  0
C  C46  1  0.39259910  0.75901782  0.36310963  1  0  -0.07015  0  3.772648  0  0  -0.042491  0  4.009146  0  0  -0.052516  0  4.033584  0  0  -0.018627  -0.036026  0  3.993081  0
C  C47  1  0.60740181  0.24097860  0.63688761  1  0  -0.070409  0  3.772836  0  0  -0.042735  0  4.009343  0  0  -0.052762  0  4.033775  0  0  -0.018691  -0.036268  0  3.993275  0
C  C48  1  0.31149225  0.76461087  0.49910919  1  0  -0.088344  0  3.669369  0  0  -0.123363  0  3.913315  0  0  -0.121201  0  3.931869  0  0  -0.074515  -0.123805  0  3.89999  0
C  C49  1  0.68851624  0.23538336  0.50089129  1  0  -0.088291  0  3.669301  0  0  -0.123271  0  3.913252  0  0  -0.121105  0  3.931806  0  0  -0.074505  -0.123712  0  3.899925  0
C  C50  1  0.18238657  0.65906386  0.72740092  1  0  -0.059905  0  3.644375  0  0  -0.139242  0  3.892093  0  0  -0.12488  0  3.904628  0  0  -0.04284  -0.142012  0  3.885455  0
C  C51  1  0.81762014  0.34093463  0.27259907  1  0  -0.059909  0  3.644413  0  0  -0.139087  0  3.892077  0  0  -0.12477  0  3.904608  0  0  -0.042795  -0.141858  0  3.88544  0
C  C52  1  0.84368528  0.54415842  0.86633903  1  0  0.113602  0  3.837623  0  0  0.110701  0  4.091012  0  0  0.111931  0  4.11198  0  0  0.089806  0.109911  0  4.074774  0
C  C53  1  0.15631544  0.45585178  0.13365910  1  0  0.113718  0  3.837394  0  0  0.110799  0  4.090767  0  0  0.112029  0  4.111748  0  0  0.0898  0.110014  0  4.074518  0
C  C54  1  0.00978720  0.50781478  0.83795276  1  0  0.089401  0  3.805604  0  0  0.064516  0  4.049469  0  0  0.078878  0  4.074122  0  0  0.103094  0.062261  0  4.034007  0
C  C55  1  0.99021440  0.49218800  0.16204433  1  0  0.089339  0  3.805554  0  0  0.064526  0  4.049385  0  0  0.078835  0  4.074048  0  0  0.103096  0.06227  0  4.033922  0
C  C56  1  0.11191316  0.36969903  0.87009076  1  0  -0.150649  0  3.737293  0  0  -0.169131  0  4.001833  0  0  -0.173625  0  4.020524  0  0  -0.095669  -0.166386  0  3.988223  0
C  C57  1  0.88807882  0.63030271  0.12991004  1  0  -0.150726  0  3.737184  0  0  -0.169125  0  4.001705  0  0  -0.173634  0  4.020397  0  0  -0.09566  -0.166381  0  3.9881  0
C  C58  1  0.04013055  0.26979219  0.93266334  1  0  -0.046607  0  3.72884  0  0  -0.070583  0  3.992293  0  0  -0.07078  0  4.013769  0  0  -0.087201  -0.070202  0  3.977891  0
C  C59  1  0.95985721  0.73021173  0.06733302  1  0  -0.046833  0  3.729081  0  0  -0.070803  0  3.992517  0  0  -0.071005  0  4.014  0  0  -0.087289  -0.070422  0  3.978115  0
C  C60  1  0.87324929  0.30546103  0.96366612  1  0  -0.070272  0  3.73855  0  0  -0.087262  0  3.998159  0  0  -0.090067  0  4.019894  0  0  -0.089882  -0.085679  0  3.984189  0
C  C61  1  0.12673691  0.69455452  0.03633487  1  0  -0.069994  0  3.738536  0  0  -0.087009  0  3.998122  0  0  -0.089807  0  4.019852  0  0  -0.089825  -0.085421  0  3.984152  0
C  C62  1  0.77258714  0.44216998  0.93136548  1  0  -0.115989  0  3.703918  0  0  -0.134855  0  3.9534  0  0  -0.135698  0  3.971726  0  0  -0.08212  -0.134534  0  3.942036  0
C  C63  1  0.22740781  0.55784877  0.06862887  1  0  -0.116258  0  3.703624  0  0  -0.135123  0  3.953173  0  0  -0.135966  0  3.971495  0  0  -0.082175  -0.134806  0  3.941814  0
C  C64  1  0.76960397  0.95025830  0.31839393  1  0  0.388702  0  3.802481  0  0  0.312775  0  4.091167  0  0  0.341257  0  4.091671  0  0  0.173717  0.293611  0  4.090513  0
C  C65  1  0.23039713  0.04973489  0.68160857  1  0  0.388749  0  3.802725  0  0  0.312879  0  4.091357  0  0  0.341367  0  4.091854  0  0  0.1737  0.293712  0  4.090709  0
C  C66  1  0.04502258  0.93942628  0.23723047  1  0  -0.174077  0  3.652429  0  0  -0.278279  0  3.903701  0  0  -0.274135  0  3.913736  0  0  -0.138214  -0.280545  0  3.896826  0
C  C67  1  0.95497721  0.06057541  0.76277114  1  0  -0.174156  0  3.652579  0  0  -0.278404  0  3.903893  0  0  -0.274263  0  3.913933  0  0  -0.138326  -0.280669  0  3.897016  0
C  C68  1  0.96465771  0.75149258  0.40863361  1  0  -0.183927  0  3.649123  0  0  -0.2818  0  3.893506  0  0  -0.279326  0  3.904816  0  0  -0.140144  -0.283047  0  3.885884  0
C  C69  1  0.03533850  0.24850699  0.59136983  1  0  -0.183778  0  3.649154  0  0  -0.28165  0  3.893546  0  0  -0.279173  0  3.904856  0  0  -0.140135  -0.282891  0  3.885925  0
C  C70  1  0.41128148  0.40343062  0.33107463  1  0  0.621216  0  3.942063  0  0  0.573196  0  4.228627  0  0  0.607379  0  4.224599  0  0  0.189176  0.54949  0  4.231391  0
C  C71  1  0.58872184  0.59656253  0.66893066  1  0  0.621232  0  3.94203  0  0  0.573211  0  4.228642  0  0  0.607404  0  4.224597  0  0  0.189123  0.549505  0  4.231406  0
C  C72  1  0.44858030  0.87704035  0.27824357  1  0  0.656328  0  3.899022  0  0  0.601996  0  4.191844  0  0  0.636953  0  4.185137  0  0  0.213714  0.577878  0  4.196067  0
C  C73  1  0.55142374  0.12295396  0.72175042  1  0  0.656651  0  3.898478  0  0  0.602296  0  4.191323  0  0  0.637253  0  4.184615  0  0  0.2139  0.578178  0  4.195544  0
N  N74  1  0.91988305  0.88331428  0.32128576  1  0  -0.084168  0  3.516901  0  0  0.022593  0  3.74674  0  0  0.002289  0  3.772641  0  0  -0.28131  0.035936  0  3.728694  0
N  N75  1  0.08011183  0.11668849  0.67871642  1  0  -0.08437  0  3.517036  0  0  0.022409  0  3.746846  0  0  0.002103  0  3.772746  0  0  -0.28131  0.035755  0  3.7288  0
N  N76  1  0.03329535  0.63281510  0.77920797  1  0  0.006398  0  3.534804  0  0  0.120758  0  3.724399  0  0  0.077828  0  3.786064  0  0  -0.122012  0.128254  0  3.708587  0
N  N77  1  0.96670981  0.36718447  0.22079050  1  0  0.006594  0  3.53472  0  0  0.120796  0  3.724469  0  0  0.077999  0  3.785989  0  0  -0.121994  0.128294  0  3.708655  0
N  N78  1  0.89481423  0.73871200  0.76975219  1  0  -0.054117  0  2.864012  0  0  -0.071957  0  3.137415  0  0  -0.053629  0  3.153187  0  0  -0.070944  -0.076951  0  3.130472  0
N  N79  1  0.10519095  0.26129288  0.23024486  1  0  -0.054083  0  2.863996  0  0  -0.071857  0  3.137403  0  0  -0.053569  0  3.153153  0  0  -0.070845  -0.076851  0  3.13046  0
N  N80  1  0.78028859  0.68702105  0.82183401  1  0  -0.282523  0  3.14056  0  0  -0.233444  0  3.440309  0  0  -0.246674  0  3.449326  0  0  -0.205204  -0.223736  0  3.431134  0
N  N81  1  0.21971524  0.31298700  0.17816536  1  0  -0.282687  0  3.140712  0  0  -0.233615  0  3.440477  0  0  -0.246852  0  3.449511  0  0  -0.205299  -0.223909  0  3.431302  0
O  O82  1  0.36046863  0.30585180  0.40607169  1  0  -0.642061  0  1.962604  0  0  -0.583269  0  2.200519  0  0  -0.611745  0  2.191718  0  0  -0.329349  -0.562304  0  2.207216  0
O  O83  1  0.63952935  0.69414352  0.59393225  1  0  -0.642063  0  1.962589  0  0  -0.583265  0  2.20051  0  0  -0.611742  0  2.191701  0  0  -0.329317  -0.562301  0  2.207209  0
O  O84  1  0.49251224  0.39701800  0.20803803  1  0  -0.646056  0  1.959078  0  0  -0.583396  0  2.199647  0  0  -0.613163  0  2.192043  0  0  -0.328726  -0.561601  0  2.203659  0
O  O85  1  0.50749778  0.60296983  0.79196719  1  0  -0.646091  0  1.959039  0  0  -0.583414  0  2.199591  0  0  -0.613197  0  2.192014  0  0  -0.328733  -0.56162  0  2.203606  0
O  O86  1  0.41128965  0.98236424  0.33413390  1  0  -0.630783  0  2.000597  0  0  -0.566455  0  2.251794  0  0  -0.595702  0  2.23991  0  0  -0.322005  -0.544756  0  2.260455  0
O  O87  1  0.58871396  0.01763115  0.66585818  1  0  -0.630924  0  2.000376  0  0  -0.566598  0  2.251609  0  0  -0.595836  0  2.239697  0  0  -0.322076  -0.544901  0  2.260267  0
O  O88  1  0.53228740  0.86265257  0.15644523  1  0  -0.661012  0  2.028038  0  0  -0.589384  0  2.241316  0  0  -0.615641  0  2.230416  0  0  -0.316082  -0.570531  0  2.248242  0
O  O89  1  0.46771575  0.13733857  0.84354814  1  0  -0.661095  0  2.027746  0  0  -0.589461  0  2.241051  0  0  -0.615714  0  2.230144  0  0  -0.316186  -0.570607  0  2.247977  0
O  O90  1  0.72479963  0.06642317  0.24676797  1  0  -0.555695  0  2.073946  0  0  -0.494318  0  2.338421  0  0  -0.520821  0  2.330103  0  0  -0.314738  -0.476003  0  2.344201  0
O  O91  1  0.27519728  0.93358281  0.75322905  1  0  -0.555584  0  2.074326  0  0  -0.494216  0  2.338769  0  0  -0.520721  0  2.330456  0  0  -0.314683  -0.475903  0  2.344547  0
O  O92  1  0.61106638  0.08603175  0.02158592  1  0  -0.832539  0  1.857379  0  0  -0.768388  0  2.046747  0  0  -0.792349  0  2.0131  0  0  -0.591438  -0.750852  0  2.069908  0
O  O93  1  0.38892716  0.91396893  0.97841371  1  0  -0.832455  0  1.857472  0  0  -0.768329  0  2.046795  0  0  -0.79229  0  2.013146  0  0  -0.591402  -0.750792  0  2.069951  0
