# generated using pymatgen
data_H16PbC22(BrN)2
_symmetry_space_group_name_H-M   'P 1'
_cell_length_a   4.27843270
_cell_length_b   16.11769382
_cell_length_c   16.22707934
_cell_angle_alpha   117.53139953
_cell_angle_beta   97.61932685
_cell_angle_gamma   89.97938755
_symmetry_Int_Tables_number   1
_chemical_formula_structural   H16PbC22(BrN)2
_chemical_formula_sum   'H32 Pb2 C44 Br4 N4'
_cell_volume   981.15007825
_cell_formula_units_Z   2
loop_
 _symmetry_equiv_pos_site_id
 _symmetry_equiv_pos_as_xyz
  1  'x, y, z'
loop_
 _atom_site_type_symbol
 _atom_site_label
 _atom_site_symmetry_multiplicity
 _atom_site_fract_x
 _atom_site_fract_y
 _atom_site_fract_z
 _atom_site_occupancy
 _atom_site_hle17_bader_spin_density
 _atom_site_hle17_ddec_charge
 _atom_site_hle17_ddec_spin_density
 _atom_site_hle17_ddec_sum_bond_order
 _atom_site_hle17_magmom
 _atom_site_hse06_10hf_bader_spin_density
 _atom_site_hse06_10hf_ddec_charge
 _atom_site_hse06_10hf_ddec_spin_density
 _atom_site_hse06_10hf_ddec_sum_bond_order
 _atom_site_hse06_10hf_magmom
 _atom_site_hse06_bader_spin_density
 _atom_site_hse06_ddec_charge
 _atom_site_hse06_ddec_spin_density
 _atom_site_hse06_ddec_sum_bond_order
 _atom_site_hse06_magmom
 _atom_site_pbe_bader_spin_density
 _atom_site_pbe_cm5_charge
 _atom_site_pbe_ddec_charge
 _atom_site_pbe_ddec_spin_density
 _atom_site_pbe_ddec_sum_bond_order
 _atom_site_pbe_magmom
H  H0  1  0.78867142  0.90539324  0.93492272  1  0  0.072453  0  0.952678  0  0  0.077893  0  1.022689  0  0  0.080844  0  1.019986  0  0  0.103587  0.075722  0  1.024675  0
H  H1  1  0.85426756  0.59513105  0.06514004  1  0  0.072615  0  0.952406  0  0  0.078299  0  1.02216  0  0  0.08125  0  1.019467  0  0  0.10356  0.07613  0  1.024131  0
H  H2  1  0.21126574  0.09460444  0.06505039  1  0  0.072528  0  0.952553  0  0  0.078038  0  1.022537  0  0  0.080985  0  1.019849  0  0  0.103605  0.075868  0  1.024516  0
H  H3  1  0.14555367  0.40493754  0.93490236  1  0  0.072723  0  0.952112  0  0  0.078381  0  1.02181  0  0  0.081333  0  1.019121  0  0  0.103601  0.076204  0  1.023802  0
H  H4  1  0.74256764  0.96818330  0.82265364  1  0  0.104258  0  1.006711  0  0  0.111047  0  1.075265  0  0  0.114877  0  1.073051  0  0  0.087797  0.108237  0  1.077129  0
H  H5  1  0.92044260  0.53198246  0.17710925  1  0  0.103279  0  1.008366  0  0  0.110624  0  1.076374  0  0  0.114361  0  1.074269  0  0  0.087622  0.107789  0  1.078232  0
H  H6  1  0.25797181  0.03188115  0.17739030  1  0  0.104179  0  1.006613  0  0  0.111029  0  1.075089  0  0  0.114865  0  1.072862  0  0  0.087648  0.108168  0  1.077008  0
H  H7  1  0.07959830  0.46802538  0.82288491  1  0  0.10344  0  1.008336  0  0  0.110817  0  1.076305  0  0  0.114554  0  1.074198  0  0  0.087631  0.10799  0  1.078144  0
H  H8  1  0.28343671  0.74016686  0.65077880  1  0  0.098252  0  0.967391  0  0  0.109507  0  1.029073  0  0  0.112547  0  1.02848  0  0  0.101868  0.107319  0  1.029688  0
H  H9  1  0.63357273  0.75984680  0.34957040  1  0  0.098327  0  0.967485  0  0  0.108794  0  1.030145  0  0  0.111816  0  1.029564  0  0  0.101958  0.106648  0  1.030662  0
H  H10  1  0.71666640  0.25980284  0.34921850  1  0  0.098215  0  0.967729  0  0  0.109497  0  1.029342  0  0  0.112535  0  1.028751  0  0  0.101877  0.107315  0  1.029944  0
H  H11  1  0.36654476  0.24013456  0.65041962  1  0  0.098171  0  0.967649  0  0  0.108698  0  1.030229  0  0  0.111701  0  1.029684  0  0  0.101942  0.106554  0  1.030757  0
H  H12  1  0.30005571  0.68639402  0.77139365  1  0  0.073229  0  0.948883  0  0  0.079889  0  1.0178  0  0  0.082558  0  1.015654  0  0  0.105296  0.077862  0  1.01947  0
H  H13  1  0.52984547  0.81389086  0.22915275  1  0  0.072811  0  0.948392  0  0  0.079215  0  1.017704  0  0  0.081962  0  1.015433  0  0  0.105201  0.077186  0  1.019383  0
H  H14  1  0.69979637  0.31356063  0.22858087  1  0  0.07306  0  0.949025  0  0  0.079699  0  1.018004  0  0  0.082363  0  1.015857  0  0  0.105073  0.07767  0  1.019676  0
H  H15  1  0.47036811  0.18607767  0.77082136  1  0  0.07304  0  0.948316  0  0  0.079434  0  1.017564  0  0  0.08219  0  1.015278  0  0  0.105289  0.07738  0  1.019292  0
H  H16  1  0.79812323  0.02922607  0.74594387  1  0  0.089798  0  0.982631  0  0  0.096568  0  1.053226  0  0  0.099758  0  1.050715  0  0  0.092055  0.094239  0  1.055147  0
H  H17  1  0.05021247  0.47104775  0.25419007  1  0  0.090396  0  0.982545  0  0  0.096888  0  1.053428  0  0  0.100124  0  1.050862  0  0  0.091765  0.094534  0  1.055373  0
H  H18  1  0.20201820  0.97077781  0.25406004  1  0  0.089794  0  0.982584  0  0  0.096468  0  1.053242  0  0  0.099657  0  1.050735  0  0  0.09203  0.094138  0  1.055166  0
H  H19  1  0.94951397  0.52897678  0.74583753  1  0  0.09048  0  0.982606  0  0  0.096746  0  1.05375  0  0  0.100012  0  1.051194  0  0  0.09167  0.094354  0  1.05571  0
H  H20  1  0.79543668  0.09537498  0.63991122  1  0  0.078543  0  0.993699  0  0  0.089488  0  1.058008  0  0  0.091786  0  1.057806  0  0  0.094216  0.087851  0  1.05824  0
H  H21  1  0.15387156  0.40489855  0.36026220  1  0  0.078201  0  0.993874  0  0  0.089222  0  1.05795  0  0  0.091419  0  1.05787  0  0  0.094001  0.087656  0  1.058102  0
H  H22  1  0.20437276  0.90462048  0.36008852  1  0  0.078794  0  0.993562  0  0  0.089721  0  1.057872  0  0  0.092019  0  1.057673  0  0  0.094352  0.088085  0  1.058102  0
H  H23  1  0.84590145  0.59514427  0.63977697  1  0  0.07839  0  0.993733  0  0  0.089385  0  1.057827  0  0  0.091588  0  1.057737  0  0  0.094022  0.087814  0  1.05799  0
H  H24  1  0.20043951  0.84898884  0.44379771  1  0  0.080547  0  0.989288  0  0  0.090926  0  1.055532  0  0  0.093417  0  1.054889  0  0  0.094473  0.089125  0  1.056082  0
H  H25  1  0.75739973  0.65087821  0.55619191  1  0  0.080088  0  0.989239  0  0  0.0901  0  1.055904  0  0  0.092655  0  1.0552  0  0  0.094184  0.088302  0  1.056443  0
H  H26  1  0.79931848  0.15100921  0.55616010  1  0  0.080406  0  0.989089  0  0  0.090823  0  1.055364  0  0  0.093295  0  1.054742  0  0  0.094457  0.089072  0  1.055859  0
H  H27  1  0.24271969  0.34910179  0.44376614  1  0  0.080043  0  0.989276  0  0  0.09011  0  1.055885  0  0  0.092665  0  1.05518  0  0  0.094155  0.088306  0  1.056424  0
H  H28  1  0.20365965  0.78253528  0.54997716  1  0  0.081104  0  0.984491  0  0  0.092185  0  1.049307  0  0  0.094624  0  1.048698  0  0  0.095525  0.090499  0  1.049665  0
H  H29  1  0.65421766  0.71736931  0.45002767  1  0  0.081506  0  0.983695  0  0  0.09222  0  1.048813  0  0  0.094552  0  1.048377  0  0  0.095646  0.090533  0  1.049212  0
H  H30  1  0.79655141  0.21748495  0.45001114  1  0  0.081102  0  0.984663  0  0  0.092208  0  1.049434  0  0  0.094644  0  1.048816  0  0  0.095559  0.090518  0  1.049796  0
H  H31  1  0.34581736  0.28261280  0.54993209  1  0  0.081477  0  0.983603  0  0  0.092096  0  1.04882  0  0  0.094472  0  1.048343  0  0  0.095589  0.090408  0  1.049216  0
Pb  Pb32  1  0.07939804  0.74986113  0.99994376  1  0  0.983803  0  1.802329  0  0  0.785308  0  2.272686  0  0  0.842812  0  2.23471  0  0  0.406273  0.74522  0  2.297833  0
Pb  Pb33  1  0.92036224  0.25010381  0.00009130  1  0  0.983575  0  1.802396  0  0  0.78502  0  2.272774  0  0  0.842543  0  2.234841  0  0  0.40617  0.744873  0  2.298047  0
C  C34  1  0.89503258  0.87046159  0.87061846  1  0  0.129098  0  3.730158  0  0  0.101331  0  3.980644  0  0  0.10804  0  3.999633  0  0  0.042882  0.097009  0  3.967725  0
C  C35  1  0.02511344  0.62990656  0.12947648  1  0  0.12734  0  3.732618  0  0  0.099457  0  3.982983  0  0  0.106132  0  4.002021  0  0  0.042681  0.09516  0  3.970026  0
C  C36  1  0.10501827  0.12952750  0.12937575  1  0  0.128886  0  3.730566  0  0  0.100967  0  3.981066  0  0  0.107668  0  4.000066  0  0  0.042918  0.096654  0  3.968127  0
C  C37  1  0.97488631  0.37010697  0.87052370  1  0  0.127264  0  3.732834  0  0  0.099446  0  3.983274  0  0  0.106112  0  4.002318  0  0  0.042717  0.095155  0  3.970297  0
C  C38  1  0.87143673  0.90563636  0.80669199  1  0  -0.147332  0  3.700527  0  0  -0.166177  0  3.948762  0  0  -0.173238  0  3.968692  0  0  -0.087933  -0.161699  0  3.935507  0
C  C39  1  0.06560058  0.59450169  0.19319867  1  0  -0.146095  0  3.703711  0  0  -0.165254  0  3.950994  0  0  -0.172277  0  3.970998  0  0  -0.08775  -0.160723  0  3.937744  0
C  C40  1  0.12884690  0.09438136  0.19330943  1  0  -0.146998  0  3.70039  0  0  -0.165868  0  3.948333  0  0  -0.172941  0  3.968255  0  0  -0.087817  -0.161355  0  3.935111  0
C  C41  1  0.93450518  0.40548014  0.80678068  1  0  -0.146326  0  3.703545  0  0  -0.165541  0  3.950767  0  0  -0.172568  0  3.970789  0  0  -0.087844  -0.161003  0  3.937492  0
C  C42  1  0.01090332  0.86083333  0.72452403  1  0  0.104975  0  3.741711  0  0  0.114597  0  3.973336  0  0  0.120052  0  3.994609  0  0  0.010364  0.111157  0  3.958826  0
C  C43  1  0.28692824  0.63924820  0.27552829  1  0  0.104751  0  3.743003  0  0  0.114671  0  3.973932  0  0  0.120165  0  3.995111  0  0  0.010188  0.111211  0  3.959445  0
C  C44  1  0.98932897  0.13917615  0.27548181  1  0  0.104591  0  3.741651  0  0  0.114568  0  3.972808  0  0  0.120063  0  3.994014  0  0  0.010576  0.111126  0  3.958295  0
C  C45  1  0.71306864  0.36075265  0.72446371  1  0  0.104867  0  3.742774  0  0  0.114881  0  3.973525  0  0  0.120375  0  3.99469  0  0  0.010312  0.111424  0  3.959038  0
C  C46  1  0.16488260  0.77927880  0.71169460  1  0  -0.17441  0  3.719324  0  0  -0.189496  0  3.966181  0  0  -0.196991  0  3.986353  0  0  -0.089847  -0.184658  0  3.952615  0
C  C47  1  0.45399097  0.72082992  0.28859112  1  0  -0.175235  0  3.719229  0  0  -0.189838  0  3.966119  0  0  -0.19732  0  3.986256  0  0  -0.090403  -0.185003  0  3.952581  0
C  C48  1  0.83528633  0.22072157  0.28830747  1  0  -0.174582  0  3.720468  0  0  -0.189781  0  3.967141  0  0  -0.197287  0  3.987291  0  0  -0.090013  -0.184942  0  3.953581  0
C  C49  1  0.54607975  0.27917403  0.71141590  1  0  -0.175126  0  3.718945  0  0  -0.189825  0  3.965863  0  0  -0.197301  0  3.985987  0  0  -0.090585  -0.184998  0  3.952329  0
C  C50  1  0.17659774  0.74843476  0.77916093  1  0  0.119483  0  3.751558  0  0  0.090828  0  4.004576  0  0  0.097888  0  4.023309  0  0  0.038656  0.086306  0  3.991776  0
C  C51  1  0.39836320  0.75185094  0.22124221  1  0  0.12054  0  3.751774  0  0  0.09194  0  4.004784  0  0  0.09899  0  4.023496  0  0  0.039146  0.087394  0  3.992013  0
C  C52  1  0.82342470  0.25155375  0.22083881  1  0  0.119923  0  3.752196  0  0  0.091234  0  4.005176  0  0  0.098308  0  4.023911  0  0  0.039059  0.086709  0  3.992375  0
C  C53  1  0.60177340  0.24813137  0.77875999  1  0  0.120328  0  3.751544  0  0  0.091762  0  4.004541  0  0  0.098815  0  4.023239  0  0  0.039298  0.087221  0  3.991749  0
C  C54  1  0.00148885  0.89969124  0.65785512  1  0  0.038726  0  3.755638  0  0  0.05536  0  3.984486  0  0  0.053185  0  4.008401  0  0  -0.009724  0.056776  0  3.968202  0
C  C55  1  0.34332815  0.60035099  0.34218710  1  0  0.038757  0  3.757181  0  0  0.055512  0  3.985602  0  0  0.053371  0  4.009414  0  0  -0.009965  0.056933  0  3.969328  0
C  C56  1  0.99870165  0.10032109  0.34215424  1  0  0.03842  0  3.756072  0  0  0.054761  0  3.98509  0  0  0.052563  0  4.009015  0  0  -0.01006  0.056183  0  3.968799  0
C  C57  1  0.65662409  0.39964007  0.65780148  1  0  0.038502  0  3.757459  0  0  0.055367  0  3.98563  0  0  0.05323  0  4.009449  0  0  -0.010061  0.056783  0  3.96935  0
C  C58  1  0.88654429  0.98826944  0.67970550  1  0  -0.078714  0  3.724987  0  0  -0.100108  0  3.973742  0  0  -0.100989  0  3.994431  0  0  -0.084355  -0.099354  0  3.959628  0
C  C59  1  0.20557082  0.51190679  0.32038039  1  0  -0.079479  0  3.724528  0  0  -0.100852  0  3.973455  0  0  -0.101759  0  3.994124  0  0  -0.084538  -0.100098  0  3.95938  0
C  C60  1  0.11349919  0.01172878  0.32029373  1  0  -0.078498  0  3.724987  0  0  -0.099694  0  3.973731  0  0  -0.100582  0  3.99445  0  0  -0.084264  -0.09894  0  3.959607  0
C  C61  1  0.79433010  0.48810755  0.67962534  1  0  -0.079492  0  3.724882  0  0  -0.10076  0  3.973737  0  0  -0.101722  0  3.99436  0  0  -0.084519  -0.099961  0  3.959691  0
C  C62  1  0.88607728  0.02646906  0.61864185  1  0  -0.104985  0  3.736894  0  0  -0.122159  0  3.979699  0  0  -0.126071  0  4.001882  0  0  -0.09094  -0.119503  0  3.96457  0
C  C63  1  0.26635830  0.47369487  0.38144551  1  0  -0.104768  0  3.736406  0  0  -0.122008  0  3.979388  0  0  -0.125836  0  4.001601  0  0  -0.090295  -0.119409  0  3.964239  0
C  C64  1  0.11377754  0.97352909  0.38135388  1  0  -0.105242  0  3.737327  0  0  -0.122428  0  3.980084  0  0  -0.126345  0  4.002265  0  0  -0.090943  -0.119773  0  3.96496  0
C  C65  1  0.73349958  0.52632723  0.61856586  1  0  -0.104997  0  3.736696  0  0  -0.122174  0  3.979566  0  0  -0.125998  0  4.001787  0  0  -0.090082  -0.119576  0  3.964408  0
C  C66  1  0.99891695  0.97898302  0.53194933  1  0  0.054389  0  3.768436  0  0  0.069491  0  3.996809  0  0  0.070301  0  4.020564  0  0  -0.006057  0.069053  0  3.980556  0
C  C67  1  0.46668452  0.52104060  0.46805271  1  0  0.054932  0  3.769212  0  0  0.069958  0  3.997648  0  0  0.070775  0  4.021393  0  0  -0.006073  0.06952  0  3.981407  0
C  C68  1  0.00096228  0.02101904  0.46803356  1  0  0.05442  0  3.767907  0  0  0.06952  0  3.996318  0  0  0.070334  0  4.020059  0  0  -0.006147  0.069079  0  3.980079  0
C  C69  1  0.53321982  0.47897852  0.53194909  1  0  0.05481  0  3.768876  0  0  0.069874  0  3.997282  0  0  0.070682  0  4.021029  0  0  -0.006291  0.069433  0  3.981039  0
C  C70  1  0.10992489  0.88975141  0.50971105  1  0  -0.114717  0  3.746855  0  0  -0.134048  0  3.996012  0  0  -0.137481  0  4.017378  0  0  -0.09373  -0.131681  0  3.981471  0
C  C71  1  0.60043607  0.61021645  0.49030071  1  0  -0.114083  0  3.747999  0  0  -0.133044  0  3.99699  0  0  -0.136532  0  4.018352  0  0  -0.093348  -0.130666  0  3.982427  0
C  C72  1  0.88992310  0.11025875  0.49026079  1  0  -0.114103  0  3.745619  0  0  -0.133457  0  3.994816  0  0  -0.136866  0  4.016173  0  0  -0.093331  -0.131132  0  3.980249  0
C  C73  1  0.39951505  0.38979063  0.50968999  1  0  -0.113946  0  3.74745  0  0  -0.132988  0  3.99639  0  0  -0.136476  0  4.017761  0  0  -0.093307  -0.130605  0  3.98182  0
C  C74  1  0.11213068  0.85145868  0.57095282  1  0  -0.100314  0  3.747563  0  0  -0.119102  0  3.993292  0  0  -0.1207  0  4.014671  0  0  -0.090281  -0.117827  0  3.978659  0
C  C75  1  0.54129478  0.64852735  0.42908636  1  0  -0.10094  0  3.749002  0  0  -0.119308  0  3.994619  0  0  -0.12089  0  4.016045  0  0  -0.09029  -0.118049  0  3.979982  0
C  C76  1  0.88795343  0.14855261  0.42904005  1  0  -0.100374  0  3.74821  0  0  -0.119168  0  3.994073  0  0  -0.120757  0  4.015441  0  0  -0.090404  -0.117893  0  3.979448  0
C  C77  1  0.45868184  0.35147774  0.57090866  1  0  -0.100772  0  3.748838  0  0  -0.11909  0  3.994416  0  0  -0.120711  0  4.015821  0  0  -0.09017  -0.11783  0  3.979771  0
Br  Br78  1  0.61152375  0.89445436  0.09814608  1  0  -0.547286  0  0.975349  0  0  -0.466469  0  1.262271  0  0  -0.490897  0  1.244984  0  0  -0.205112  -0.448969  0  1.274026  0
Br  Br79  1  0.51313718  0.60522259  0.90165466  1  0  -0.547758  0  0.975901  0  0  -0.467224  0  1.263043  0  0  -0.491603  0  1.245752  0  0  -0.20534  -0.44977  0  1.274793  0
Br  Br80  1  0.38822618  0.10551810  0.90181675  1  0  -0.547237  0  0.975379  0  0  -0.46638  0  1.262323  0  0  -0.490831  0  1.245071  0  0  -0.205031  -0.448854  0  1.274093  0
Br  Br81  1  0.48677296  0.39471484  0.09849361  1  0  -0.547652  0  0.975836  0  0  -0.467079  0  1.262964  0  0  -0.491479  0  1.245661  0  0  -0.205282  -0.449595  0  1.274749  0
N  N82  1  0.04547541  0.79312390  0.85801407  1  0  -0.348526  0  3.229466  0  0  -0.273621  0  3.483284  0  0  -0.294324  0  3.506503  0  0  -0.311501  -0.259481  0  3.467222  0
N  N83  1  0.18810802  0.70735667  0.14237358  1  0  -0.347614  0  3.231459  0  0  -0.272709  0  3.485192  0  0  -0.29342  0  3.508427  0  0  -0.311488  -0.258582  0  3.469151  0
N  N84  1  0.95439450  0.20683648  0.14196915  1  0  -0.348419  0  3.230068  0  0  -0.27346  0  3.483895  0  0  -0.294176  0  3.507134  0  0  -0.311754  -0.259307  0  3.467816  0
N  N85  1  0.81189999  0.29266198  0.85763901  1  0  -0.347604  0  3.231916  0  0  -0.272754  0  3.485669  0  0  -0.293464  0  3.508907  0  0  -0.311619  -0.25862  0  3.469612  0
