# generated using pymatgen
data_CuMoH4C6NO4
_symmetry_space_group_name_H-M   'P 1'
_cell_length_a   7.54199708
_cell_length_b   9.26749226
_cell_length_c   13.48953176
_cell_angle_alpha   71.87479279
_cell_angle_beta   86.41450970
_cell_angle_gamma   71.25530573
_symmetry_Int_Tables_number   1
_chemical_formula_structural   CuMoH4C6NO4
_chemical_formula_sum   'Cu4 Mo4 H16 C24 N4 O16'
_cell_volume   847.80869847
_cell_formula_units_Z   4
loop_
 _symmetry_equiv_pos_site_id
 _symmetry_equiv_pos_as_xyz
  1  'x, y, z'
loop_
 _atom_site_type_symbol
 _atom_site_label
 _atom_site_symmetry_multiplicity
 _atom_site_fract_x
 _atom_site_fract_y
 _atom_site_fract_z
 _atom_site_occupancy
 _atom_site_pbe_bader_charge
 _atom_site_pbe_bader_spin_density
 _atom_site_pbe_cm5_charge
 _atom_site_pbe_ddec_charge
 _atom_site_pbe_ddec_spin_density
 _atom_site_pbe_ddec_sum_bond_order
 _atom_site_pbe_magmom
Cu  Cu0  1  0.37827363  0.94222451  0.10110667  1  1.135919  0.579853  0.711127  1.024432  0.726525  2.28937  0.578
Cu  Cu1  1  0.62173182  0.05777839  0.89889566  1  1.135989  0.579867  0.711109  1.024429  0.726544  2.289434  0.578
Cu  Cu2  1  0.80514272  0.32985630  0.93461779  1  1.17183  0.597909  0.736156  1.087249  0.74944  2.202765  0.596
Cu  Cu3  1  0.19486494  0.67014178  0.06537735  1  1.171796  0.597902  0.736142  1.087255  0.749441  2.202619  0.596
Mo  Mo4  1  0.29091557  0.31571930  0.98903365  1  2.548015  0.025559  1.490635  2.118286  0.022506  4.758503  0.031
Mo  Mo5  1  0.70909324  0.68427520  0.01096518  1  2.547767  0.025563  1.490572  2.11821  0.022511  4.758537  0.031
Mo  Mo6  1  0.86053800  0.99658990  0.12002686  1  2.532817  0.027069  1.477408  2.104693  0.02375  4.766242  0.03
Mo  Mo7  1  0.13947805  0.00341294  0.87997603  1  2.532714  0.027071  1.477419  2.104734  0.023747  4.765838  0.03
H  H8  1  0.33134911  0.92710484  0.48169206  1  0.0727  0.001225  0.11171  0.119261  0.000627  0.995193  0.001
H  H9  1  0.66862178  0.07287315  0.51831312  1  0.072408  0.001225  0.111655  0.11919  0.000627  0.995176  0.001
H  H10  1  0.92736256  0.29450959  0.73094433  1  0.15071  0.002425  0.115469  0.093125  0.001088  1.059159  0.002
H  H11  1  0.07264110  0.70549568  0.26905011  1  0.151057  0.002427  0.115487  0.093127  0.001089  1.059121  0.002
H  H12  1  0.25046659  0.04067130  0.29018679  1  0.121676  0.001879  0.125383  0.113932  0.000821  0.980509  0.001
H  H13  1  0.74949909  0.95931631  0.70982315  1  0.12206  0.00188  0.125345  0.113931  0.000821  0.980074  0.001
H  H14  1  0.65452391  0.65869929  0.22837233  1  0.149957  0.001997  0.11898  0.094064  0.000953  1.047821  0.002
H  H15  1  0.34548180  0.34132153  0.77162329  1  0.149893  0.001994  0.119011  0.094133  0.000951  1.047822  0.002
H  H16  1  0.51078654  0.63569981  0.82742554  1  0.16644  0.001927  0.127118  0.111222  0.000912  1.006646  0.002
H  H17  1  0.48920464  0.36428764  0.17258027  1  0.16645  0.001925  0.127149  0.111249  0.000911  1.006664  0.002
H  H18  1  0.40248346  0.79969340  0.64622985  1  0.093442  0.001196  0.113473  0.125602  0.000604  0.997444  0.001
H  H19  1  0.59750160  0.20029646  0.35377408  1  0.09345  0.001196  0.113507  0.125679  0.000604  0.99729  0.001
H  H20  1  0.95765569  0.29960322  0.55186766  1  0.110159  0.000188  0.111254  0.122399  7.7e-05  0.983623  0.0
H  H21  1  0.04235464  0.70040560  0.44812593  1  0.110295  0.000188  0.111245  0.122476  7.7e-05  0.983634  0.0
H  H22  1  0.85559648  0.43614099  0.36252994  1  0.095924  0.000167  0.114192  0.125016  6.1e-05  0.970277  0.0
H  H23  1  0.14441381  0.56387500  0.63746363  1  0.095694  0.000167  0.11419  0.124994  6.1e-05  0.970391  0.0
C  C24  1  0.40680019  0.86206480  0.42903189  1  -0.007963  0.005139  -0.080381  -0.168091  0.003427  3.966335  0.004
C  C25  1  0.59317840  0.13791917  0.57098525  1  -0.006798  0.005133  -0.080321  -0.168156  0.003424  3.96694  0.004
C  C26  1  0.81085428  0.40624710  0.70924932  1  0.512957  -0.002357  0.062311  0.069923  -0.003079  3.870934  -0.001
C  C27  1  0.18915111  0.59374980  0.29074685  1  0.512652  -0.002356  0.062239  0.06982  -0.003078  3.871388  -0.001
C  C28  1  0.35906855  0.92636674  0.32348441  1  0.4415  0.000336  0.045913  0.086619  -8e-06  3.928157  0.001
C  C29  1  0.64088970  0.07364356  0.67650534  1  0.441198  0.000341  0.045958  0.086841  -3e-06  3.928408  0.001
C  C30  1  0.58562224  0.71362318  0.28705654  1  0.508689  -0.002208  0.064757  0.082612  -0.002929  3.871193  -0.001
C  C31  1  0.41436987  0.28639532  0.71293683  1  0.508419  -0.002208  0.064635  0.082473  -0.002929  3.871333  -0.001
C  C32  1  0.75475248  0.48509758  0.60331600  1  0.016683  0.005498  -0.00193  0.028843  0.003594  4.002026  0.005
C  C33  1  0.24524447  0.51490415  0.39668005  1  0.016803  0.005499  -0.001899  0.028891  0.003595  4.002042  0.005
C  C34  1  0.57855877  0.59920195  0.76157821  1  0.411858  0.000551  0.050988  0.102125  8.1e-05  3.889922  0.001
C  C35  1  0.42143020  0.40078547  0.23841949  1  0.411828  0.000552  0.050976  0.102149  8.1e-05  3.889572  0.001
C  C36  1  0.51893872  0.68852460  0.65959229  1  -0.018194  0.005715  -0.078164  -0.168493  0.003784  3.942688  0.005
C  C37  1  0.48103965  0.31146531  0.34041249  1  -0.018059  0.005713  -0.078184  -0.16858  0.003783  3.942423  0.005
C  C38  1  0.60590515  0.63344400  0.57657246  1  0.011191  -0.002484  0.009235  0.049203  -0.002954  3.959224  -0.002
C  C39  1  0.39408191  0.36654823  0.42342724  1  0.010915  -0.002484  0.009164  0.04916  -0.002954  3.959243  -0.002
C  C40  1  0.84525161  0.41372287  0.52585241  1  -0.130408  0.000844  -0.080901  -0.117336  0.000539  4.004653  0.001
C  C41  1  0.15475273  0.58628361  0.47414548  1  -0.129928  0.000844  -0.080907  -0.117508  0.000538  4.004957  0.001
C  C42  1  0.64315257  0.63833592  0.39294883  1  0.052543  0.004639  0.002386  0.039168  0.003053  3.986927  0.004
C  C43  1  0.35684570  0.36166823  0.60705485  1  0.052455  0.004634  0.002452  0.039192  0.00305  3.986931  0.004
C  C44  1  0.78985775  0.48794276  0.42330745  1  -0.000659  0.000906  -0.080294  -0.120377  0.000597  3.989652  0.001
C  C45  1  0.21014723  0.51206968  0.57668622  1  -0.001121  0.000907  -0.080271  -0.120239  0.000597  3.989876  0.001
C  C46  1  0.55020335  0.71397458  0.46739288  1  -0.017459  -0.002216  0.010877  0.057133  -0.002627  3.949197  -0.001
C  C47  1  0.44977966  0.28602485  0.53260687  1  -0.018182  -0.002219  0.010832  0.057123  -0.00263  3.948744  -0.001
N  N48  1  0.72512670  0.46062155  0.78557866  1  -1.19886  0.090969  -0.332913  -0.205281  0.059257  3.564048  0.078
N  N49  1  0.27486426  0.53937784  0.21442169  1  -1.198859  0.090967  -0.332866  -0.205193  0.059256  3.564007  0.078
N  N50  1  0.44657961  0.85090580  0.25363421  1  -1.194286  0.083851  -0.339635  -0.225557  0.0546  3.604035  0.072
N  N51  1  0.55341827  0.14909236  0.74636924  1  -1.194023  0.083844  -0.339617  -0.225683  0.054595  3.603646  0.072
O  O52  1  0.09724520  0.37568701  0.90311390  1  -0.94674  0.019829  -0.568461  -0.823364  0.011122  1.804455  0.018
O  O53  1  0.90276867  0.62430146  0.09688239  1  -0.946545  0.019831  -0.568394  -0.82331  0.011123  1.804461  0.018
O  O54  1  0.28318203  0.16002773  0.10847517  1  -0.9751  0.097974  -0.581431  -0.839248  0.061386  1.945861  0.083
O  O55  1  0.71682069  0.83997878  0.89152793  1  -0.975055  0.097977  -0.581435  -0.83926  0.061387  1.945876  0.083
O  O56  1  0.09412596  0.87661874  0.09756375  1  -1.039346  0.065339  -0.590051  -0.957501  0.040684  2.225907  0.058
O  O57  1  0.90588675  0.12338049  0.90242809  1  -1.039327  0.065336  -0.590007  -0.957451  0.040683  2.225841  0.058
O  O58  1  0.83864411  0.20394508  0.08397898  1  -0.934009  0.086163  -0.565705  -0.790428  0.054019  1.91568  0.073
O  O59  1  0.16138003  0.79605887  0.91601389  1  -0.933724  0.086155  -0.565718  -0.790449  0.054017  1.915475  0.073
O  O60  1  0.50648276  0.26665449  0.92140531  1  -0.99069  0.094186  -0.580676  -0.882485  0.058547  2.148587  0.082
O  O61  1  0.49353587  0.73334117  0.07859978  1  -0.990488  0.094175  -0.580643  -0.882426  0.05854  2.14847  0.082
O  O62  1  0.29895701  0.48060168  0.02548461  1  -0.935065  0.088914  -0.57141  -0.795565  0.056885  2.1005  0.079
O  O63  1  0.70104751  0.51939761  0.97451107  1  -0.935079  0.08891  -0.571469  -0.795582  0.056882  2.100502  0.079
O  O64  1  0.82972605  0.93292306  0.25322995  1  -0.899331  0.021677  -0.565889  -0.732448  0.013062  1.605754  0.017
O  O65  1  0.17031114  0.06709044  0.74677405  1  -0.899336  0.021683  -0.565928  -0.732454  0.013066  1.605533  0.017
O  O66  1  0.68322288  0.96272608  0.05324877  1  -1.017045  0.095347  -0.581469  -0.92873  0.059591  2.240255  0.083
O  O67  1  0.31678987  0.03727799  0.94675763  1  -1.017172  0.095352  -0.581493  -0.928768  0.059594  2.240238  0.083
