# generated using pymatgen
data_Zn4H27C72N20Cl17O12
_symmetry_space_group_name_H-M   'P 1'
_cell_length_a   19.61116995
_cell_length_b   19.76664992
_cell_length_c   21.03365467
_cell_angle_alpha   108.38285932
_cell_angle_beta   107.12321017
_cell_angle_gamma   110.50331924
_symmetry_Int_Tables_number   1
_chemical_formula_structural   Zn4H27C72N20Cl17O12
_chemical_formula_sum   'Zn4 H27 C72 N20 Cl17 O12'
_cell_volume   6451.83429223
_cell_formula_units_Z   1
loop_
 _symmetry_equiv_pos_site_id
 _symmetry_equiv_pos_as_xyz
  1  'x, y, z'
loop_
 _atom_site_type_symbol
 _atom_site_label
 _atom_site_symmetry_multiplicity
 _atom_site_fract_x
 _atom_site_fract_y
 _atom_site_fract_z
 _atom_site_occupancy
 _atom_site_pbe_bader_charge
 _atom_site_pbe_bader_spin_density
 _atom_site_pbe_cm5_charge
 _atom_site_pbe_ddec_charge
 _atom_site_pbe_ddec_spin_density
 _atom_site_pbe_ddec_sum_bond_order
 _atom_site_pbe_magmom
Zn  Zn0  1  0.61123988  0.60185713  0.49719912  1  1.212718  0  0.743672  0.66555  0  2.417877  0
Zn  Zn1  1  0.40383117  0.40729600  0.51002502  1  1.210154  0  0.752502  0.677576  0  2.366054  0
Zn  Zn2  1  0.50042452  0.60566374  0.59006834  1  1.19242  0  0.744406  0.651349  0  2.457324  0
Zn  Zn3  1  0.50849012  0.39544074  0.41133397  1  1.214544  0  0.747281  0.69382  0  2.345071  0
H  H4  1  0.23544958  0.37498742  0.38712870  1  0.109316  0  0.118401  0.111411  0  1.007622  0
H  H5  1  0.50633706  0.01042977  0.56521466  1  0.086013  0  0.110643  0.128577  0  0.969869  0
H  H6  1  0.49463574  0.46198585  0.08324603  1  0.081106  0  0.111296  0.129183  0  0.995678  0
H  H7  1  0.30591093  0.50811129  0.18470552  1  0.092587  0  0.115884  0.143932  0  0.967821  0
H  H8  1  0.92536410  0.89585822  0.91633694  1  0.101283  0  0.113827  0.133438  0  1.005295  0
H  H9  1  0.14949266  0.18026963  0.22971332  1  0.07046  0  0.103447  0.113485  0  1.000361  0
H  H10  1  0.02398415  0.06480043  0.11275182  1  0.097401  0  0.11394  0.121373  0  0.979297  0
H  H11  1  0.54441564  0.85410803  0.67051784  1  0.626745  0  0.348546  0.387442  0  0.85214  0
H  H12  1  0.17325685  0.18163152  0.35322100  1  0.613251  0  0.342177  0.377263  0  0.867489  0
H  H13  1  0.94150912  0.53684727  0.48563304  1  0.600546  0  0.326887  0.362038  0  0.887574  0
H  H14  1  0.75722547  0.19945217  0.80846668  1  0.621115  0  0.332144  0.366556  0  0.880019  0
H  H15  1  0.68948514  0.79780450  0.53014185  1  0.115619  0  0.121616  0.114596  0  0.985927  0
H  H16  1  0.55293405  0.05542768  0.45146412  1  0.584638  0  0.336595  0.367103  0  0.876289  0
H  H17  1  0.45619292  0.69082964  0.70809382  1  0.62862  0  0.336291  0.372802  0  0.873457  0
H  H18  1  0.52418843  0.65372402  0.98125592  1  0.612573  0  0.307547  0.337279  0  0.944602  0
H  H19  1  0.55464628  0.45372142  0.19244763  1  0.608192  0  0.339868  0.370917  0  0.862342  0
H  H20  1  0.27991650  0.49865579  0.00517150  1  0.633055  0  0.298298  0.29541  0  1.052362  0
H  H21  1  0.06814669  0.85339513  0.07144362  1  0.632627  0  0.29656  0.292204  0  1.057106  0
H  H22  1  0.30509587  0.35424041  0.65100562  1  0.622634  0  0.304048  0.34671  0  0.954057  0
H  H23  1  0.67229728  0.33346221  0.52776812  1  0.623829  0  0.342373  0.379423  0  0.861323  0
H  H24  1  0.37492390  0.63804044  0.47916286  1  0.137888  0  0.120721  0.114281  0  0.988601  0
H  H25  1  0.09533375  0.64215942  0.42570385  1  0.10227  0  0.110119  0.115074  0  0.969952  0
H  H26  1  0.50024617  0.37616406  0.63837154  1  0.137669  0  0.125078  0.123714  0  0.983238  0
H  H27  1  0.95727569  0.58325100  0.28809139  1  0.06505  0  0.102989  0.093172  0  0.988344  0
H  H28  1  0.97686759  0.44633107  0.22223472  1  0.067793  0  0.103312  0.094526  0  0.986868  0
H  H29  1  0.87269927  0.35845173  0.27023389  1  0.073269  0  0.106032  0.109437  0  0.977091  0
H  H30  1  0.72551010  0.09335297  0.56476005  1  0.102595  0  0.112175  0.131134  0  0.96721  0
C  C31  1  0.72377984  0.62388226  0.64476178  1  0.602014  0  0.109007  0.188653  0  4.112548  0
C  C32  1  0.65006779  0.78362198  0.55638013  1  0.480837  0  0.017173  -0.023235  0  3.997581  0
C  C33  1  0.40873150  0.42864089  0.29770907  1  0.577436  0  0.112696  0.192374  0  4.094729  0
C  C34  1  0.52968734  0.38077588  0.60237071  1  0.440511  0  0.024015  -0.009754  0  3.937075  0
C  C35  1  0.35313109  0.57354909  0.46250692  1  0.409923  0  0.014162  -0.044681  0  3.929244  0
C  C36  1  0.42682036  0.49260463  0.27894807  1  0.111174  0  -0.04318  -0.151255  0  4.047201  0
C  C37  1  0.27311537  0.50694984  0.41580718  1  0.053905  0  -0.030154  0.039961  0  4.191097  0
C  C38  1  0.62536782  0.83395804  0.59663428  1  0.12647  0  -0.049394  -0.101345  0  4.249833  0
C  C39  1  0.28080883  0.17885872  0.30724185  1  0.098128  0  -0.060901  -0.247589  0  4.117032  0
C  C40  1  0.99760414  0.45380784  0.37991032  1  0.123753  0  0.014462  0.048458  0  3.695519  0
C  C41  1  0.98896213  0.53143739  0.41737939  1  0.607633  0  0.086185  0.244533  0  3.762578  0
C  C42  1  0.58789084  0.35685040  0.59469250  1  0.107478  0  -0.04821  -0.107861  0  4.228976  0
C  C43  1  0.78253706  0.49353959  0.35777027  1  -0.461431  0  -0.070917  -0.096411  0  4.251854  0
C  C44  1  0.19924285  0.50781484  0.38590019  1  -0.030261  0  -0.057353  -0.09642  0  4.2031  0
C  C45  1  0.92249098  0.42155042  0.30420815  1  -0.011833  0  -0.07505  -0.111361  0  3.656228  0
C  C46  1  0.41929753  0.58181901  0.69521007  1  1.052753  0  0.178983  0.375766  0  4.174375  0
C  C47  1  0.91048291  0.49699626  0.34044453  1  0.096503  0  -0.005807  0.063076  0  3.838616  0
C  C48  1  0.97971924  0.47056134  0.27793669  1  -0.018013  0  -0.071818  -0.073406  0  3.63512  0
C  C49  1  0.05740229  0.50366714  0.35393987  1  0.090634  0  0.004202  0.117693  0  3.806996  0
C  C50  1  0.96948664  0.54642576  0.31447690  1  -0.022275  0  -0.070206  -0.068461  0  3.638317  0
C  C51  1  0.04528142  0.57926361  0.39041692  1  -0.046204  0  -0.072642  -0.13456  0  3.61547  0
C  C52  1  0.83811073  0.49402738  0.34238742  1  0.124643  0  -0.060211  -0.124015  0  4.142984  0
C  C53  1  0.38582036  0.51753659  0.71169624  1  0.082909  0  -0.07003  -0.285396  0  4.07089  0
C  C54  1  0.13357460  0.50673314  0.36587237  1  -0.296329  0  -0.073157  -0.14833  0  4.155081  0
C  C55  1  0.68404803  0.13503848  0.70239033  1  0.632395  0  0.081866  0.198612  0  3.774404  0
C  C56  1  0.72518795  0.18710823  0.66772701  1  0.124205  0  0.01224  0.059751  0  3.75139  0
C  C57  1  0.61667578  0.31059371  0.62110780  1  -0.355915  0  -0.05109  -0.0665  0  4.212981  0
C  C58  1  0.65185151  0.42859758  0.36817143  1  0.62085  0  0.118203  0.195485  0  4.09521  0
C  C59  1  0.63968435  0.91308595  0.61061789  1  -0.504329  0  -0.066548  -0.100852  0  4.254731  0
C  C60  1  0.60413226  0.14108032  0.66803225  1  0.129227  0  0.015312  0.069573  0  3.724323  0
C  C61  1  0.64636857  0.19538085  0.63450793  1  0.095972  0  -0.003649  0.020913  0  3.818962  0
C  C62  1  0.56867930  0.06145493  0.59411272  1  -0.047955  0  -0.083511  -0.201268  0  3.632584  0
C  C63  1  0.64800105  0.05404639  0.62755924  1  0.089409  0  0.001542  0.10738  0  3.826917  0
C  C64  1  0.72155917  0.49458671  0.37910200  1  0.166128  0  -0.039752  -0.086196  0  4.197003  0
C  C65  1  0.61126738  0.11351110  0.56043485  1  0.591202  0  0.08737  0.292493  0  3.756161  0
C  C66  1  0.69071161  0.10747767  0.59395666  1  -0.070106  0  -0.080246  -0.194438  0  3.618944  0
C  C67  1  0.63916225  0.26368524  0.63368302  1  0.043521  0  -0.075246  -0.13253  0  4.147014  0
C  C68  1  0.64619159  0.97995668  0.62119893  1  0.160736  0  -0.064708  -0.122413  0  4.135762  0
C  C69  1  0.40915240  0.48706403  0.20390147  1  0.035065  0  -0.006215  0.045824  0  4.016775  0
C  C70  1  0.37763002  0.45016758  0.65314717  1  1.076862  0  0.178749  0.365946  0  4.157117  0
C  C71  1  0.34686564  0.49709118  0.16259772  1  0.02726  0  -0.097066  -0.239737  0  3.940686  0
C  C72  1  0.33570280  0.49339619  0.09221789  1  0.532694  0  0.096763  0.275334  0  4.025375  0
C  C73  1  0.39099451  0.48139992  0.06454567  1  0.460411  0  0.077593  0.064469  0  4.071729  0
C  C74  1  0.45352017  0.47059045  0.10644296  1  -0.005529  0  -0.103805  -0.277148  0  4.016811  0
C  C75  1  0.48695364  0.56028865  0.34841840  1  0.576638  0  0.111182  0.191181  0  4.101609  0
C  C76  1  0.46242421  0.47257175  0.17468798  1  0.457564  0  0.067096  0.23856  0  4.103105  0
C  C77  1  0.41924492  0.56311139  0.91175806  1  0.54484  0  0.082136  0.195075  0  4.096632  0
C  C78  1  0.42959285  0.57007622  0.85041429  1  0.078684  0  -0.005027  -0.026987  0  4.003541  0
C  C79  1  0.34527193  0.50096120  0.89849002  1  0.473619  0  0.07503  0.031331  0  4.044413  0
C  C80  1  0.36941851  0.51706188  0.77508434  1  0.12635  0  -0.012883  0.055201  0  4.026137  0
C  C81  1  0.29414309  0.45856856  0.76418158  1  0.102485  0  -0.00669  0.012075  0  4.018028  0
C  C82  1  0.71784349  0.56277558  0.42291589  1  0.607325  0  0.113894  0.183878  0  4.119994  0
C  C83  1  0.28200542  0.45085970  0.82460255  1  0.071993  0  0.005617  0.028139  0  4.069378  0
C  C84  1  0.79921983  0.69197775  0.79079511  1  0.118122  0  -0.016178  -0.000572  0  4.004843  0
C  C85  1  0.82942032  0.66035240  0.83686936  1  0.165167  0  0.011908  0.056696  0  4.022459  0
C  C86  1  0.28182055  0.43883891  0.41523984  1  0.473083  0  0.018351  -0.035029  0  3.918527  0
C  C87  1  0.89347497  0.71241434  0.91060171  1  0.056873  0  0.010594  0.019128  0  4.001876  0
C  C88  1  0.92689550  0.79773962  0.93918667  1  0.408432  0  0.087629  0.149876  0  4.045998  0
C  C89  1  0.89804908  0.82985616  0.89344724  1  0.095471  0  -0.094009  -0.215655  0  3.970074  0
C  C90  1  0.83568735  0.77783110  0.82082660  1  0.021633  0  0.015969  0.12146  0  4.033936  0
C  C91  1  0.12952462  0.96318941  0.14736357  1  0.677367  0  0.100422  0.230683  0  4.010354  0
C  C92  1  0.19986075  0.02890498  0.21336281  1  0.017996  0  -0.001871  -0.01541  0  3.986639  0
C  C93  1  0.06641905  0.97809649  0.11051686  1  0.387751  0  0.077217  0.047749  0  4.071246  0
C  C94  1  0.60173247  0.37627258  0.53877020  1  1.073334  0  0.193722  0.371747  0  4.080604  0
C  C95  1  0.20763999  0.10715879  0.24274807  1  0.01894  0  -0.009362  0.084863  0  4.055835  0
C  C96  1  0.14197406  0.11887974  0.20734633  1  0.014651  0  -0.11084  -0.177844  0  4.045603  0
C  C97  1  0.57402695  0.78237200  0.61586278  1  1.041714  0  0.187595  0.354387  0  4.123458  0
C  C98  1  0.07326977  0.05597484  0.14252007  1  -0.053454  0  -0.083089  -0.117108  0  4.022689  0
C  C99  1  0.64659182  0.61613013  0.70184406  1  0.556607  0  0.108402  0.186046  0  4.112628  0
C  C100  1  0.72815761  0.64072953  0.71616651  1  0.111875  0  -0.056191  -0.17143  0  4.123892  0
C  C101  1  0.36186875  0.21710994  0.31825034  1  0.625178  0  0.106121  0.191086  0  4.178479  0
C  C102  1  0.28322921  0.23631583  0.36947653  1  1.059193  0  0.186201  0.366398  0  4.12912  0
N  N103  1  0.64645481  0.59279562  0.59293191  1  -0.752533  0  -0.278366  -0.232526  0  3.554995  0
N  N104  1  0.33415810  0.49046323  0.95882411  1  -0.523317  0  -0.162405  -0.129117  0  3.341529  0
N  N105  1  0.99073474  0.84968021  0.01285565  1  -0.555761  0  -0.16545  -0.139668  0  3.361166  0
N  N106  1  0.51111444  0.41082739  0.55482458  1  -0.780849  0  -0.286934  -0.188823  0  3.625116  0
N  N107  1  0.99905674  0.92157071  0.04204025  1  -0.525731  0  -0.154364  -0.102893  0  3.30363  0
N  N108  1  0.43085202  0.55567613  0.63425867  1  -0.826834  0  -0.305548  -0.331402  0  3.555174  0
N  N109  1  0.61177106  0.45525241  0.40240751  1  -0.805932  0  -0.261222  -0.213757  0  3.484364  0
N  N110  1  0.40387344  0.47223845  0.60750643  1  -0.838582  0  -0.29016  -0.284465  0  3.500388  0
N  N111  1  0.65358024  0.53938342  0.43708480  1  -0.737923  0  -0.268736  -0.228785  0  3.539438  0
N  N112  1  0.55614017  0.40873706  0.51557393  1  -0.836441  0  -0.295421  -0.296038  0  3.522741  0
N  N113  1  0.59809165  0.58863429  0.62870744  1  -0.767126  0  -0.276522  -0.234329  0  3.54112  0
N  N114  1  0.36022630  0.46401604  0.45902254  1  -0.79114  0  -0.280345  -0.182412  0  3.630743  0
N  N115  1  0.50304538  0.53855175  0.40331249  1  -0.778295  0  -0.280117  -0.238734  0  3.569195  0
N  N116  1  0.56851977  0.70886015  0.58948057  1  -0.845491  0  -0.285714  -0.280452  0  3.501349  0
N  N117  1  0.40737351  0.28986436  0.38012222  1  -0.79164  0  -0.280176  -0.250418  0  3.522456  0
N  N118  1  0.35796361  0.30090293  0.41342862  1  -0.823672  0  -0.275974  -0.269077  0  3.451274  0
N  N119  1  0.61597058  0.70956563  0.55193948  1  -0.782384  0  -0.27615  -0.184867  0  3.578192  0
N  N120  1  0.45488366  0.45553531  0.37161085  1  -0.750979  0  -0.27593  -0.247312  0  3.513878  0
N  N121  1  0.40413132  0.54649516  0.48805188  1  -0.79639  0  -0.284669  -0.189599  0  3.624926  0
N  N122  1  0.39168183  0.48334442  0.99963896  1  -0.50089  0  -0.151401  -0.089872  0  3.281963  0
Cl  Cl123  1  0.80281889  0.64088841  0.62255075  1  -0.183663  0  0.009149  -0.052614  0  1.544418  0
Cl  Cl124  1  0.27411404  0.00933166  0.25763146  1  -0.181872  0  -0.016954  -0.057396  0  1.530873  0
Cl  Cl125  1  0.61854059  0.32730815  0.31963504  1  -0.176123  0  0.009751  -0.060236  0  1.522746  0
Cl  Cl126  1  0.80103092  0.82029782  0.76689944  1  -0.197836  0  -0.008955  -0.064532  0  1.480116  0
Cl  Cl127  1  0.92911513  0.67341457  0.96679064  1  -0.164967  0  -0.001617  -0.052225  0  1.522886  0
Cl  Cl128  1  0.78546876  0.55619018  0.80170309  1  -0.179567  0  0.002816  -0.044997  0  1.551423  0
Cl  Cl129  1  0.78269845  0.66336938  0.45598282  1  -0.182121  0  0.006345  -0.06598  0  1.506358  0
Cl  Cl130  1  0.61074831  0.62030129  0.76648683  1  -0.181442  0  0.010947  -0.057595  0  1.693962  0
Cl  Cl131  1  0.53914788  0.65832731  0.36456115  1  -0.194942  0  0.009735  -0.064107  0  1.515402  0
Cl  Cl132  1  0.40148705  0.18549848  0.26037791  1  -0.181615  0  -0.000249  -0.072444  0  1.596081  0
Cl  Cl133  1  0.33826819  0.32876019  0.23709984  1  -0.177686  0  0.016424  -0.048167  0  1.580636  0
Cl  Cl134  1  0.01564555  0.39463618  0.42172157  1  -0.235526  0  -0.063076  -0.132291  0  1.369686  0
Cl  Cl135  1  0.82498567  0.26769678  0.71793045  1  -0.225929  0  -0.046961  -0.117906  0  1.373353  0
Cl  Cl136  1  0.55056518  0.16360017  0.71631047  1  -0.219131  0  -0.04921  -0.112306  0  1.374214  0
Cl  Cl137  1  0.52450367  0.64565225  0.87322971  1  -0.198773  0  0.022425  -0.038895  0  1.67333  0
Cl  Cl138  1  0.21461744  0.39387145  0.67380572  1  -0.200284  0  0.014069  -0.05737  0  1.601855  0
Cl  Cl139  1  0.19114813  0.37747709  0.80983784  1  -0.176619  0  -0.007767  -0.055429  0  1.521861  0
O  O140  1  0.53205757  0.79734507  0.65456505  1  -1.155559  0  -0.347383  -0.467771  0  2.247584  0
O  O141  1  0.12273595  0.88920357  0.11988498  1  -1.123895  0  -0.328389  -0.384886  0  2.34014  0
O  O142  1  0.35174487  0.37168317  0.64004370  1  -1.163137  0  -0.358921  -0.460971  0  2.284911  0
O  O143  1  0.65017437  0.36368725  0.50766036  1  -1.135408  0  -0.339712  -0.448724  0  2.275454  0
O  O144  1  0.22310085  0.23321696  0.38985826  1  -1.132939  0  -0.343202  -0.450148  0  2.251126  0
O  O145  1  0.99448623  0.56654496  0.48768985  1  -1.125425  0  -0.37451  -0.47261  0  2.2355  0
O  O146  1  0.72122586  0.14174003  0.77198571  1  -1.144075  0  -0.369504  -0.458612  0  2.25703  0
O  O147  1  0.57619321  0.11049500  0.49151102  1  -1.107411  0  -0.374743  -0.484345  0  2.228356  0
O  O148  1  0.43725552  0.66001576  0.73343029  1  -1.147911  0  -0.346667  -0.449584  0  2.288026  0
O  O149  1  0.47830562  0.61484365  0.98349267  1  -1.120358  0  -0.343207  -0.402617  0  2.324294  0
O  O150  1  0.52229387  0.46273678  0.21815943  1  -1.126951  0  -0.354935  -0.444042  0  2.284613  0
O  O151  1  0.27491363  0.50261006  0.05289071  1  -1.136791  0  -0.341374  -0.404085  0  2.275488  0
