# generated using pymatgen
data_Al2H17C26O10F
_symmetry_space_group_name_H-M   'P 1'
_cell_length_a   7.24083130
_cell_length_b   11.09215264
_cell_length_c   15.00722286
_cell_angle_alpha   81.72580912
_cell_angle_beta   77.65969177
_cell_angle_gamma   71.58883525
_symmetry_Int_Tables_number   1
_chemical_formula_structural   Al2H17C26O10F
_chemical_formula_sum   'Al2 H17 C26 O10 F1'
_cell_volume   1113.40514399
_cell_formula_units_Z   1
loop_
 _symmetry_equiv_pos_site_id
 _symmetry_equiv_pos_as_xyz
  1  'x, y, z'
loop_
 _atom_site_type_symbol
 _atom_site_label
 _atom_site_symmetry_multiplicity
 _atom_site_fract_x
 _atom_site_fract_y
 _atom_site_fract_z
 _atom_site_occupancy
 _atom_site_pbe_bader_charge
 _atom_site_pbe_bader_spin_density
 _atom_site_pbe_cm5_charge
 _atom_site_pbe_ddec_charge
 _atom_site_pbe_ddec_spin_density
 _atom_site_pbe_ddec_sum_bond_order
 _atom_site_pbe_magmom
Al  Al0  1  0.50508397  0.48550749  0.49958120  1  2.511486  0  0.424192  1.643461  0  2.505235  0
Al  Al1  1  0.00522688  0.48466421  0.50110696  1  2.511913  0  0.424685  1.646084  0  2.510653  0
H  H2  1  0.21390556  0.63107842  0.43120042  1  0.611279  0  0.327326  0.40485  0  0.891486  0
H  H3  1  0.75509664  0.38428430  0.60463234  1  0.594198  0  0.326793  0.401994  0  0.892979  0
H  H4  1  0.14505995  0.09688703  0.51939788  1  0.107548  0  0.11185  0.119973  0  0.995623  0
H  H5  1  0.74357112  0.11461756  0.47514552  1  0.121337  0  0.120254  0.149711  0  0.981748  0
H  H6  1  0.27387871  0.85854046  0.52017321  1  0.117112  0  0.111214  0.118146  0  1.002117  0
H  H7  1  0.80984176  0.56885495  0.75870614  1  0.080043  0  0.105765  0.117519  0  1.000468  0
H  H8  1  0.42441709  0.45549630  0.78237018  1  0.063425  0  0.104041  0.112357  0  1.007008  0
H  H9  1  0.13808324  0.54883629  0.23736362  1  0.093969  0  0.109224  0.122274  0  1.00053  0
H  H10  1  0.62716752  0.43975764  0.22093539  1  0.083892  0  0.107673  0.119882  0  0.997578  0
H  H11  1  0.60613592  0.65781228  0.98564687  1  0.0622  0  0.098765  0.101556  0  0.970084  0
H  H12  1  0.56611831  0.57016645  0.90569116  1  0.041726  0  0.099384  0.103854  0  1.012647  0
H  H13  1  0.32361171  0.36777568  0.01823363  1  0.025011  0  0.100642  0.103857  0  0.958179  0
H  H14  1  0.49926483  0.42959023  0.94386847  1  0.027341  0  0.098377  0.102028  0  1.050166  0
H  H15  1  0.25353135  0.65636833  0.00410459  1  0.031024  0  0.098696  0.101313  0  0.970871  0
H  H16  1  0.37862606  0.55906832  0.08994002  1  0.0422  0  0.100127  0.104299  0  1.012374  0
H  H17  1  0.80663640  0.37001515  0.98926575  1  0.028594  0  0.099442  0.103069  0  0.960308  0
H  H18  1  0.57621617  0.42325631  0.05985271  1  0.039034  0  0.099359  0.104244  0  1.048866  0
C  C19  1  0.82716693  0.48544371  0.34039712  1  1.54762  0  0.270998  0.654804  0  4.061072  0
C  C20  1  0.64761033  0.70966233  0.50052321  1  1.587134  0  0.272977  0.67392  0  4.064385  0
C  C21  1  0.17838801  0.49975314  0.66045654  1  1.571541  0  0.268504  0.654544  0  4.059177  0
C  C22  1  0.36363245  0.26230333  0.49791689  1  1.566869  0  0.275237  0.652984  0  4.063663  0
C  C23  1  0.57897357  0.85192176  0.49910964  1  0.065517  0  -0.019627  -0.1572  0  3.946573  0
C  C24  1  0.43600452  0.12010659  0.49763354  1  0.0217  0  -0.006162  -0.004241  0  3.97423  0
C  C25  1  0.70789454  0.92737115  0.48623217  1  0.433693  0  0.109927  0.286135  0  4.028915  0
C  C26  1  0.30314754  0.04804842  0.51008837  1  0.018892  0  -0.085017  -0.113277  0  3.979018  0
C  C27  1  0.63958832  0.05914313  0.48545423  1  -0.017758  0  -0.090359  -0.228525  0  3.970241  0
C  C28  1  0.37480744  0.91614347  0.51068308  1  -0.061558  0  -0.075129  -0.064677  0  3.971434  0
C  C29  1  0.66682394  0.56899407  0.95070724  1  -0.048235  0  -0.155988  -0.199378  0  3.939775  0
C  C30  1  0.34608340  0.45521933  0.97792954  1  0.009761  0  -0.162921  -0.212634  0  3.974914  0
C  C31  1  0.27711244  0.56336724  0.04452020  1  -0.014976  0  -0.157002  -0.200448  0  3.94234  0
C  C32  1  0.70313100  0.45311197  0.02426095  1  0.000159  0  -0.163141  -0.214252  0  3.973639  0
C  C33  1  0.92124015  0.55235655  0.80140482  1  -0.104449  0  -0.086414  -0.159784  0  3.955799  0
C  C34  1  0.86758395  0.55977379  0.89557242  1  -0.028227  0  -0.011153  0.080015  0  4.005707  0
C  C35  1  0.26915646  0.48747968  0.81467016  1  0.002306  0  -0.090047  -0.163986  0  3.966815  0
C  C36  1  0.21375971  0.49427898  0.90898070  1  -0.055251  0  -0.011014  0.081672  0  4.017936  0
C  C37  1  0.04156735  0.53579637  0.19519510  1  0.003693  0  -0.087835  -0.163174  0  3.95364  0
C  C38  1  0.08699620  0.54946485  0.10018560  1  -0.04036  0  -0.009528  0.083744  0  4.009237  0
C  C39  1  0.75292616  0.47289054  0.18614408  1  -0.059191  0  -0.086177  -0.162472  0  3.957697  0
C  C40  1  0.80106361  0.48583264  0.09106239  1  -0.005001  0  -0.010081  0.082997  0  4.019628  0
C  C41  1  0.12231291  0.51686552  0.76046095  1  0.054006  0  -0.020111  -0.038746  0  4.008155  0
C  C42  1  0.01429238  0.53397712  0.94864450  1  -0.01552  0  -0.007717  -0.01541  0  3.977317  0
C  C43  1  0.87248803  0.49963660  0.23845524  1  -0.047589  0  -0.01841  -0.039076  0  4.009812  0
C  C44  1  0.96211392  0.52894853  0.04863131  1  -0.022273  0  -0.010599  -0.024054  0  3.987386  0
O  O45  1  0.65444770  0.47860293  0.37785282  1  -1.251399  0  -0.236232  -0.593695  0  2.323265  0
O  O46  1  0.82994117  0.65532634  0.50327833  1  -1.253356  0  -0.236633  -0.601561  0  2.368114  0
O  O47  1  0.04120744  0.49151384  0.62225528  1  -1.268209  0  -0.240069  -0.60916  0  2.347374  0
O  O48  1  0.49443682  0.31682187  0.49791503  1  -1.253612  0  -0.229277  -0.587417  0  2.354064  0
O  O49  1  0.35757265  0.49207144  0.62301398  1  -1.268784  0  -0.24036  -0.606967  0  2.327309  0
O  O50  1  0.17912744  0.31458455  0.49896762  1  -1.260013  0  -0.228747  -0.584681  0  2.330819  0
O  O51  1  0.96676860  0.48270744  0.38099144  1  -1.263889  0  -0.235153  -0.597871  0  2.359473  0
O  O52  1  0.51501924  0.65692014  0.49864393  1  -1.262013  0  -0.237064  -0.60218  0  2.328276  0
O  O53  1  0.24577808  0.54372893  0.45826479  1  -1.42114  0  -0.459963  -0.971894  0  2.026143  0
O  O54  1  0.76289336  0.42726327  0.54350206  1  -1.408563  0  -0.460656  -0.972113  0  2.029185  0
F  F55  1  0.90783667  0.87446182  0.47258202  1  -0.644859  0  -0.09687  -0.142416  0  1.354727  0
