# generated using pymatgen
data_ErH11C18(NO3)2
_symmetry_space_group_name_H-M   'P 1'
_cell_length_a   8.83798873
_cell_length_b   9.36597892
_cell_length_c   10.66534284
_cell_angle_alpha   80.24938429
_cell_angle_beta   76.68471306
_cell_angle_gamma   73.38765411
_symmetry_Int_Tables_number   1
_chemical_formula_structural   ErH11C18(NO3)2
_chemical_formula_sum   'Er2 H22 C36 N4 O12'
_cell_volume   818.15952570
_cell_formula_units_Z   2
loop_
 _symmetry_equiv_pos_site_id
 _symmetry_equiv_pos_as_xyz
  1  'x, y, z'
loop_
 _atom_site_type_symbol
 _atom_site_label
 _atom_site_symmetry_multiplicity
 _atom_site_fract_x
 _atom_site_fract_y
 _atom_site_fract_z
 _atom_site_occupancy
 _atom_site_hle17_bader_spin_density
 _atom_site_hle17_ddec_charge
 _atom_site_hle17_ddec_spin_density
 _atom_site_hle17_ddec_sum_bond_order
 _atom_site_hle17_magmom
 _atom_site_hse06_10hf_bader_spin_density
 _atom_site_hse06_10hf_ddec_charge
 _atom_site_hse06_10hf_ddec_spin_density
 _atom_site_hse06_10hf_ddec_sum_bond_order
 _atom_site_hse06_10hf_magmom
 _atom_site_hse06_bader_spin_density
 _atom_site_hse06_ddec_charge
 _atom_site_hse06_ddec_spin_density
 _atom_site_hse06_ddec_sum_bond_order
 _atom_site_hse06_magmom
 _atom_site_pbe_bader_spin_density
 _atom_site_pbe_cm5_charge
 _atom_site_pbe_ddec_charge
 _atom_site_pbe_ddec_spin_density
 _atom_site_pbe_ddec_sum_bond_order
 _atom_site_pbe_magmom
Er  Er0  1  0.09027929  0.38392561  0.35468788  1  0  2.179455  0  1.754218  0  0  2.008717  0  2.260904  0  0  2.06453  0  2.213069  0  0  1.533567  1.964978  0  2.298143  0
Er  Er1  1  0.90972546  0.61607469  0.64531296  1  0  2.179482  0  1.754163  0  0  2.008739  0  2.260843  0  0  2.064544  0  2.213017  0  0  1.533566  1.965013  0  2.298054  0
H  H2  1  0.24825039  0.02556017  0.48823543  1  0  0.076806  0  0.97758  0  0  0.084489  0  1.044174  0  0  0.086948  0  1.042021  0  0  0.11526  0.082334  0  1.046504  0
H  H3  1  0.75174886  0.97443900  0.51176757  1  0  0.076816  0  0.977525  0  0  0.084494  0  1.04413  0  0  0.086952  0  1.041982  0  0  0.115253  0.082337  0  1.046464  0
H  H4  1  0.49100160  0.80861882  0.45601929  1  0  0.104  0  0.962824  0  0  0.115509  0  1.019646  0  0  0.117723  0  1.020617  0  0  0.105973  0.114037  0  1.018864  0
H  H5  1  0.50899392  0.19137699  0.54398211  1  0  0.10401  0  0.962871  0  0  0.115547  0  1.01965  0  0  0.117754  0  1.020629  0  0  0.105999  0.114071  0  1.018881  0
H  H6  1  0.69314588  0.81261283  0.24644139  1  0  0.104617  0  0.928014  0  0  0.119753  0  0.980347  0  0  0.122031  0  0.979396  0  0  0.113404  0.11827  0  0.980981  0
H  H7  1  0.30685166  0.18738411  0.75355851  1  0  0.104591  0  0.928035  0  0  0.119728  0  0.980368  0  0  0.122009  0  0.979411  0  0  0.1134  0.11824  0  0.981  0
H  H8  1  0.77797929  0.94903159  0.02918475  1  0  0.115036  0  0.970223  0  0  0.122876  0  1.035727  0  0  0.126097  0  1.034197  0  0  0.107137  0.120789  0  1.036178  0
H  H9  1  0.22201971  0.05096423  0.97081410  1  0  0.115039  0  0.97017  0  0  0.122886  0  1.035663  0  0  0.126111  0  1.034133  0  0  0.107145  0.120798  0  1.036111  0
H  H10  1  0.71460888  0.16335617  0.86351901  1  0  0.094318  0  0.960939  0  0  0.107223  0  1.019866  0  0  0.108809  0  1.020933  0  0  0.103011  0.105974  0  1.019819  0
H  H11  1  0.28539098  0.83664076  0.13648138  1  0  0.094303  0  0.96097  0  0  0.107206  0  1.019901  0  0  0.108792  0  1.020971  0  0  0.103006  0.105957  0  1.01985  0
H  H12  1  0.53215441  0.40586177  0.79213413  1  0  0.104237  0  0.94764  0  0  0.114747  0  1.009406  0  0  0.117312  0  1.008329  0  0  0.107943  0.11287  0  1.0103  0
H  H13  1  0.46784747  0.59413629  0.20786571  1  0  0.104244  0  0.947634  0  0  0.114756  0  1.009398  0  0  0.117339  0  1.008296  0  0  0.107949  0.112885  0  1.010281  0
H  H14  1  0.27090348  0.60267574  0.84318650  1  0  0.117534  0  0.963077  0  0  0.127137  0  1.021003  0  0  0.130379  0  1.019995  0  0  0.110273  0.124747  0  1.022081  0
H  H15  1  0.72909576  0.39732344  0.15681275  1  0  0.11756  0  0.963063  0  0  0.127158  0  1.02098  0  0  0.130397  0  1.019979  0  0  0.11026  0.124766  0  1.022057  0
H  H16  1  0.10091495  0.58592416  0.06077163  1  0  0.091986  0  0.948151  0  0  0.094446  0  1.019228  0  0  0.098392  0  1.014285  0  0  0.122022  0.091532  0  1.022466  0
H  H17  1  0.89908685  0.41407837  0.93922944  1  0  0.092006  0  0.948142  0  0  0.094457  0  1.019228  0  0  0.098403  0  1.014285  0  0  0.122038  0.091545  0  1.022463  0
H  H18  1  0.99985819  0.10893350  0.85852377  1  0  0.141989  0  0.936048  0  0  0.147627  0  0.999922  0  0  0.152541  0  0.996446  0  0  0.116387  0.143922  0  1.002902  0
H  H19  1  0.00014260  0.89106007  0.14147507  1  0  0.142025  0  0.935923  0  0  0.147679  0  0.999795  0  0  0.152594  0  0.996318  0  0  0.116369  0.143969  0  1.002783  0
H  H20  1  0.03345104  0.96691655  0.60911765  1  0  0.111286  0  0.952472  0  0  0.118203  0  1.018764  0  0  0.122363  0  1.015555  0  0  0.108441  0.115268  0  1.021229  0
H  H21  1  0.96655339  0.03308488  0.39087651  1  0  0.111186  0  0.952637  0  0  0.118202  0  1.018822  0  0  0.122364  0  1.015603  0  0  0.108405  0.115264  0  1.021285  0
H  H22  1  0.62731096  0.41656459  0.39213071  1  0  0.13887  0  0.925786  0  0  0.146697  0  0.983914  0  0  0.1514  0  0.980917  0  0  0.121398  0.143159  0  0.986382  0
H  H23  1  0.37268999  0.58343682  0.60787162  1  0  0.138873  0  0.925758  0  0  0.146745  0  0.983843  0  0  0.15145  0  0.980844  0  0  0.121416  0.143206  0  0.986306  0
C  C24  1  0.33694407  0.02254605  0.39822074  1  0  0.148066  0  3.717423  0  0  0.117892  0  3.975152  0  0  0.125792  0  3.991497  0  0  0.052771  0.112378  0  3.964428  0
C  C25  1  0.66305340  0.97745537  0.60177945  1  0  0.148074  0  3.717456  0  0  0.117896  0  3.975199  0  0  0.1258  0  3.991544  0  0  0.052783  0.112385  0  3.964477  0
C  C26  1  0.47412258  0.90143219  0.37951766  1  0  -0.127422  0  3.744907  0  0  -0.13908  0  3.997378  0  0  -0.146484  0  4.019863  0  0  -0.088801  -0.133675  0  3.982286  0
C  C27  1  0.52587464  0.09856587  0.62048213  1  0  -0.12746  0  3.745027  0  0  -0.139138  0  3.997489  0  0  -0.146544  0  4.019982  0  0  -0.088829  -0.133739  0  3.982409  0
C  C28  1  0.58536474  0.90455244  0.26514630  1  0  -0.040901  0  3.68811  0  0  -0.066295  0  3.937212  0  0  -0.064024  0  3.95644  0  0  -0.060962  -0.067483  0  3.924787  0
C  C29  1  0.41463334  0.09544674  0.73485316  1  0  -0.0408  0  3.688043  0  0  -0.066209  0  3.937166  0  0  -0.063934  0  3.95639  0  0  -0.060928  -0.067382  0  3.924729  0
C  C30  1  0.55836691  0.02846153  0.16960593  1  0  0.026982  0  3.785403  0  0  0.04356  0  4.015593  0  0  0.040806  0  4.040645  0  0  0.001285  0.046056  0  3.998962  0
C  C31  1  0.44163234  0.97153765  0.83039518  1  0  0.026907  0  3.785401  0  0  0.043456  0  4.015563  0  0  0.040705  0  4.040612  0  0  0.001249  0.045952  0  3.998929  0
C  C32  1  0.66748201  0.03799990  0.04836471  1  0  -0.097639  0  3.724788  0  0  -0.123037  0  3.983914  0  0  -0.126582  0  4.007237  0  0  -0.082971  -0.120471  0  3.968215  0
C  C33  1  0.33251755  0.96199815  0.95163651  1  0  -0.097556  0  3.724708  0  0  -0.122966  0  3.983831  0  0  -0.126515  0  4.007156  0  0  -0.08298  -0.120401  0  3.968137  0
C  C34  1  0.63293281  0.15675919  0.95667554  1  0  -0.083193  0  3.736846  0  0  -0.105947  0  3.990269  0  0  -0.108964  0  4.014129  0  0  -0.081417  -0.105417  0  3.97692  0
C  C35  1  0.36706791  0.84323887  0.04332452  1  0  -0.083142  0  3.736852  0  0  -0.105892  0  3.990281  0  0  -0.108916  0  4.014149  0  0  -0.081361  -0.105363  0  3.97694  0
C  C36  1  0.48956161  0.27512569  0.97929042  1  0  0.020485  0  3.801728  0  0  0.037517  0  4.031004  0  0  0.034881  0  4.056146  0  0  -0.000788  0.038767  0  4.015803  0
C  C37  1  0.51043942  0.72487124  0.02071069  1  0  0.020478  0  3.801796  0  0  0.037483  0  4.03113  0  0  0.034846  0  4.056272  0  0  -0.00084  0.038725  0  4.015955  0
C  C38  1  0.44993729  0.39789191  0.88508504  1  0  -0.046668  0  3.685952  0  0  -0.071869  0  3.936836  0  0  -0.070262  0  3.955991  0  0  -0.06315  -0.073473  0  3.925628  0
C  C39  1  0.55006111  0.60210614  0.11491547  1  0  -0.046668  0  3.686036  0  0  -0.071877  0  3.936922  0  0  -0.070277  0  3.956066  0  0  -0.063125  -0.073475  0  3.925716  0
C  C40  1  0.30866840  0.50755614  0.91308762  1  0  -0.104976  0  3.704117  0  0  -0.11998  0  3.958983  0  0  -0.126182  0  3.979164  0  0  -0.078541  -0.116633  0  3.946175  0
C  C41  1  0.69132937  0.49244416  0.08691174  1  0  -0.104961  0  3.704145  0  0  -0.119946  0  3.95897  0  0  -0.126152  0  3.979161  0  0  -0.078511  -0.1166  0  3.946169  0
C  C42  1  0.21008667  0.49732821  0.03647007  1  0  0.172374  0  3.670384  0  0  0.1402  0  3.932106  0  0  0.149414  0  3.945067  0  0  0.067902  0.135493  0  3.922438  0
C  C43  1  0.78991343  0.50267209  0.96353072  1  0  0.1723  0  3.670485  0  0  0.140132  0  3.932181  0  0  0.149348  0  3.945145  0  0  0.067867  0.135424  0  3.922523  0
C  C44  1  0.38133018  0.27201208  0.10038045  1  0  0.148424  0  3.739709  0  0  0.143975  0  3.976073  0  0  0.148127  0  3.996976  0  0  0.122655  0.142356  0  3.960265  0
C  C45  1  0.61866969  0.72798485  0.89962182  1  0  0.148473  0  3.739706  0  0  0.143952  0  3.976116  0  0  0.148109  0  3.997009  0  0  0.122642  0.142332  0  3.960317  0
C  C46  1  0.41525511  0.14551862  0.19672607  1  0  0.148955  0  3.728963  0  0  0.145176  0  3.964785  0  0  0.150186  0  3.984711  0  0  0.123214  0.141333  0  3.950846  0
C  C47  1  0.58474530  0.85448056  0.80327483  1  0  0.148787  0  3.729114  0  0  0.145164  0  3.964735  0  0  0.150173  0  3.984658  0  0  0.123204  0.141324  0  3.950787  0
C  C48  1  0.01113808  0.24207659  0.66543415  1  0  0.746708  0  3.839616  0  0  0.705672  0  4.125849  0  0  0.741865  0  4.113259  0  0  0.2275  0.680799  0  4.133733  0
C  C49  1  0.98886256  0.75792595  0.33456807  1  0  0.746557  0  3.839808  0  0  0.70561  0  4.125888  0  0  0.741801  0  4.113302  0  0  0.227436  0.68074  0  4.133757  0
C  C50  1  0.01331979  0.10153969  0.75516839  1  0  -0.185999  0  3.642651  0  0  -0.204008  0  3.898086  0  0  -0.21037  0  3.911148  0  0  -0.082013  -0.200203  0  3.890349  0
C  C51  1  0.98668201  0.89846285  0.24483080  1  0  -0.186005  0  3.64254  0  0  -0.204072  0  3.897981  0  0  -0.210426  0  3.911042  0  0  -0.082037  -0.200261  0  3.890237  0
C  C52  1  0.02441663  0.97164408  0.71223084  1  0  -0.15131  0  3.635171  0  0  -0.173928  0  3.890865  0  0  -0.17791  0  3.904625  0  0  -0.078196  -0.171859  0  3.882525  0
C  C53  1  0.97558455  0.02836070  0.28776532  1  0  -0.151219  0  3.635176  0  0  -0.17389  0  3.890876  0  0  -0.177873  0  3.904632  0  0  -0.078092  -0.171829  0  3.882543  0
C  C54  1  0.02594263  0.82701790  0.79765267  1  0  0.708207  0  3.895406  0  0  0.666375  0  4.190252  0  0  0.700057  0  4.179805  0  0  0.209698  0.643389  0  4.196507  0
C  C55  1  0.97405599  0.17298353  0.20234168  1  0  0.708321  0  3.89527  0  0  0.666428  0  4.190208  0  0  0.700114  0  4.17976  0  0  0.20967  0.643441  0  4.196468  0
C  C56  1  0.69608684  0.52410542  0.53081445  1  0  0.711855  0  3.888733  0  0  0.672605  0  4.169756  0  0  0.707961  0  4.158019  0  0  0.211646  0.648409  0  4.176775  0
C  C57  1  0.30391504  0.47589264  0.46918632  1  0  0.711847  0  3.888682  0  0  0.67262  0  4.169682  0  0  0.707963  0  4.157962  0  0  0.211637  0.648422  0  4.176719  0
C  C58  1  0.57921253  0.48052399  0.47547452  1  0  -0.146001  0  3.60635  0  0  -0.165968  0  3.859354  0  0  -0.170416  0  3.870378  0  0  -0.065867  -0.16292  0  3.851962  0
C  C59  1  0.42079052  0.51947407  0.52452604  1  0  -0.14605  0  3.606292  0  0  -0.166089  0  3.85929  0  0  -0.170536  0  3.870316  0  0  -0.065923  -0.163035  0  3.851893  0
N  N60  1  0.30718431  0.14153304  0.31049118  1  0  -0.435068  0  3.242286  0  0  -0.381686  0  3.507408  0  0  -0.397678  0  3.526163  0  0  -0.369911  -0.370463  0  3.494503  0
N  N61  1  0.69281610  0.85846614  0.68950784  1  0  -0.435025  0  3.24238  0  0  -0.381686  0  3.507459  0  0  -0.397664  0  3.526202  0  0  -0.3699  -0.370452  0  3.494534  0
N  N62  1  0.24578815  0.38452699  0.12841710  1  0  -0.44609  0  3.257442  0  0  -0.392928  0  3.524318  0  0  -0.409258  0  3.542391  0  0  -0.385003  -0.38169  0  3.510707  0
N  N63  1  0.75421397  0.61547443  0.87158314  1  0  -0.446086  0  3.257548  0  0  -0.392904  0  3.524419  0  0  -0.40923  0  3.542494  0  0  -0.385012  -0.38166  0  3.51081  0
O  O64  1  0.06162575  0.23101631  0.54434199  1  0  -0.741734  0  2.073414  0  0  -0.688154  0  2.32972  0  0  -0.715508  0  2.319887  0  0  -0.397412  -0.668405  0  2.335982  0
O  O65  1  0.93837396  0.76898959  0.45565898  1  0  -0.741708  0  2.073435  0  0  -0.688164  0  2.329732  0  0  -0.715521  0  2.319903  0  0  -0.397371  -0.668421  0  2.33599  0
O  O66  1  0.95740580  0.36507497  0.71661618  1  0  -0.722914  0  2.012583  0  0  -0.669663  0  2.263057  0  0  -0.695639  0  2.251457  0  0  -0.389529  -0.650372  0  2.270041  0
O  O67  1  0.04259578  0.63492421  0.28338637  1  0  -0.722812  0  2.012651  0  0  -0.669606  0  2.263096  0  0  -0.695583  0  2.251498  0  0  -0.389496  -0.650315  0  2.270075  0
O  O68  1  0.05093208  0.71279427  0.73293707  1  0  -0.821079  0  2.04296  0  0  -0.768321  0  2.315341  0  0  -0.795816  0  2.301443  0  0  -0.470069  -0.747458  0  2.32372  0
O  O69  1  0.94906941  0.28720940  0.26705921  1  0  -0.821141  0  2.042802  0  0  -0.768379  0  2.315233  0  0  -0.795877  0  2.301332  0  0  -0.470077  -0.747504  0  2.323598  0
O  O70  1  0.00885146  0.81967300  0.91734402  1  0  -0.574318  0  1.872304  0  0  -0.53164  0  2.085448  0  0  -0.552894  0  2.077258  0  0  -0.301065  -0.516217  0  2.090012  0
O  O71  1  0.99113654  0.18033740  0.08265290  1  0  -0.574356  0  1.872439  0  0  -0.531655  0  2.085612  0  0  -0.552908  0  2.077424  0  0  -0.301043  -0.516228  0  2.090171  0
O  O72  1  0.84401263  0.49576169  0.47274491  1  0  -0.812002  0  2.182321  0  0  -0.744517  0  2.433815  0  0  -0.772072  0  2.422932  0  0  -0.425666  -0.724097  0  2.439808  0
O  O73  1  0.15598716  0.50423973  0.52725390  1  0  -0.812035  0  2.182304  0  0  -0.744538  0  2.433787  0  0  -0.772093  0  2.422914  0  0  -0.425674  -0.724116  0  2.439783  0
O  O74  1  0.65073141  0.59032790  0.63264744  1  0  -0.674881  0  1.98265  0  0  -0.633358  0  2.221255  0  0  -0.657543  0  2.214149  0  0  -0.360117  -0.616022  0  2.225701  0
O  O75  1  0.34927365  0.40967127  0.36735256  1  0  -0.674854  0  1.982684  0  0  -0.633345  0  2.221251  0  0  -0.657529  0  2.214152  0  0  -0.360107  -0.616017  0  2.225718  0
