# generated using pymatgen
data_Zn2H14C10O11
_symmetry_space_group_name_H-M   'P 1'
_cell_length_a   8.25405593
_cell_length_b   8.96656901
_cell_length_c   19.17927519
_cell_angle_alpha   103.60307831
_cell_angle_beta   90.00002419
_cell_angle_gamma   90.00000443
_symmetry_Int_Tables_number   1
_chemical_formula_structural   Zn2H14C10O11
_chemical_formula_sum   'Zn8 H56 C40 O44'
_cell_volume   1379.65051481
_cell_formula_units_Z   4
loop_
 _symmetry_equiv_pos_site_id
 _symmetry_equiv_pos_as_xyz
  1  'x, y, z'
loop_
 _atom_site_type_symbol
 _atom_site_label
 _atom_site_symmetry_multiplicity
 _atom_site_fract_x
 _atom_site_fract_y
 _atom_site_fract_z
 _atom_site_occupancy
 _atom_site_hle17_bader_spin_density
 _atom_site_hle17_ddec_charge
 _atom_site_hle17_ddec_spin_density
 _atom_site_hle17_ddec_sum_bond_order
 _atom_site_hle17_magmom
 _atom_site_hse06_10hf_bader_spin_density
 _atom_site_hse06_10hf_ddec_charge
 _atom_site_hse06_10hf_ddec_spin_density
 _atom_site_hse06_10hf_ddec_sum_bond_order
 _atom_site_hse06_10hf_magmom
 _atom_site_hse06_bader_spin_density
 _atom_site_hse06_ddec_charge
 _atom_site_hse06_ddec_spin_density
 _atom_site_hse06_ddec_sum_bond_order
 _atom_site_hse06_magmom
 _atom_site_pbe_bader_spin_density
 _atom_site_pbe_cm5_charge
 _atom_site_pbe_ddec_charge
 _atom_site_pbe_ddec_spin_density
 _atom_site_pbe_ddec_sum_bond_order
 _atom_site_pbe_magmom
Zn  Zn0  1  0.12138924  0.20157923  0.87540807  1  0  1.139059  0  1.767003  0  0  0.952384  0  2.254607  0  0  1.004665  0  2.18714  0  0  0.686229  0.914887  0  2.301928  0
Zn  Zn1  1  0.62139543  0.29841765  0.62459026  1  0  1.139149  0  1.767107  0  0  0.952354  0  2.254763  0  0  1.004644  0  2.187299  0  0  0.686202  0.914867  0  2.302087  0
Zn  Zn2  1  0.87860814  0.79842554  0.12458723  1  0  1.139137  0  1.766871  0  0  0.952407  0  2.254575  0  0  1.00469  0  2.187105  0  0  0.686245  0.914906  0  2.301894  0
Zn  Zn3  1  0.37860681  0.70158030  0.37541160  1  0  1.139161  0  1.766795  0  0  0.952433  0  2.254464  0  0  1.00472  0  2.186993  0  0  0.686257  0.914927  0  2.301783  0
Zn  Zn4  1  0.27055694  0.25754392  0.50440431  1  0  1.256375  0  1.71207  0  0  1.106438  0  2.172002  0  0  1.151184  0  2.108408  0  0  0.696375  1.074418  0  2.216502  0
Zn  Zn5  1  0.77055501  0.24245301  0.99559613  1  0  1.256363  0  1.712103  0  0  1.106426  0  2.172044  0  0  1.151173  0  2.108447  0  0  0.696361  1.074409  0  2.216546  0
Zn  Zn6  1  0.72944408  0.74245633  0.49559832  1  0  1.256383  0  1.712109  0  0  1.106461  0  2.172047  0  0  1.151209  0  2.108447  0  0  0.696346  1.074445  0  2.216549  0
Zn  Zn7  1  0.22944359  0.75754605  0.00440115  1  0  1.25634  0  1.712094  0  0  1.106407  0  2.172024  0  0  1.151154  0  2.108429  0  0  0.696324  1.074389  0  2.216523  0
H  H8  1  0.14888469  0.67317714  0.57066653  1  0  0.095993  0  0.923821  0  0  0.107774  0  0.981997  0  0  0.110108  0  0.981296  0  0  0.109122  0.106093  0  0.982658  0
H  H9  1  0.64888754  0.82682142  0.92933272  1  0  0.096032  0  0.92381  0  0  0.107797  0  0.981998  0  0  0.110131  0  0.981297  0  0  0.109107  0.106117  0  0.982663  0
H  H10  1  0.85112239  0.32681736  0.42933287  1  0  0.096063  0  0.923784  0  0  0.107789  0  0.982026  0  0  0.110115  0  0.981329  0  0  0.109134  0.106152  0  0.982629  0
H  H11  1  0.35112197  0.17318224  0.07066663  1  0  0.096107  0  0.923744  0  0  0.10782  0  0.982002  0  0  0.110147  0  0.981307  0  0  0.109136  0.106179  0  0.982614  0
H  H12  1  0.04442943  0.87139468  0.66196849  1  0  0.081487  0  0.921123  0  0  0.099647  0  0.981506  0  0  0.101217  0  0.980819  0  0  0.095456  0.098379  0  0.982219  0
H  H13  1  0.54442854  0.62860729  0.83803007  1  0  0.08151  0  0.92111  0  0  0.099663  0  0.98151  0  0  0.101235  0  0.980824  0  0  0.095443  0.098393  0  0.982225  0
H  H14  1  0.95557402  0.12860210  0.33803012  1  0  0.081494  0  0.921093  0  0  0.099621  0  0.981493  0  0  0.101191  0  0.980808  0  0  0.095431  0.09835  0  0.982208  0
H  H15  1  0.45557127  0.37140324  0.16196793  1  0  0.081452  0  0.921079  0  0  0.099619  0  0.981429  0  0  0.101189  0  0.980741  0  0  0.095423  0.098349  0  0.982146  0
H  H16  1  0.08629003  0.95416443  0.58927577  1  0  0.094624  0  0.956588  0  0  0.109302  0  1.018228  0  0  0.111858  0  1.01659  0  0  0.093976  0.107303  0  1.019811  0
H  H17  1  0.58628436  0.54583640  0.91072372  1  0  0.094648  0  0.956645  0  0  0.10934  0  1.018253  0  0  0.111898  0  1.016617  0  0  0.094002  0.10734  0  1.019835  0
H  H18  1  0.91371706  0.04582547  0.41072314  1  0  0.094658  0  0.95668  0  0  0.109333  0  1.01827  0  0  0.111892  0  1.016631  0  0  0.093979  0.107332  0  1.019856  0
H  H19  1  0.41370940  0.45417414  0.08927637  1  0  0.094705  0  0.956627  0  0  0.109362  0  1.018253  0  0  0.111919  0  1.016615  0  0  0.093994  0.107362  0  1.019836  0
H  H20  1  0.16289482  0.11952747  0.70877449  1  0  0.107735  0  0.895375  0  0  0.121297  0  0.947027  0  0  0.123747  0  0.946212  0  0  0.116187  0.1194  0  0.947812  0
H  H21  1  0.66289269  0.38047288  0.79122630  1  0  0.107736  0  0.895367  0  0  0.121312  0  0.946983  0  0  0.123764  0  0.946161  0  0  0.116199  0.119412  0  0.947777  0
H  H22  1  0.83710015  0.88047158  0.29122280  1  0  0.107759  0  0.895317  0  0  0.121308  0  0.94698  0  0  0.123754  0  0.946172  0  0  0.116184  0.119411  0  0.947763  0
H  H23  1  0.33709985  0.61953080  0.20877513  1  0  0.10771  0  0.895369  0  0  0.12129  0  0.946997  0  0  0.123736  0  0.946188  0  0  0.11618  0.119392  0  0.94778  0
H  H24  1  0.23426580  0.65924569  0.68612146  1  0  0.106381  0  0.912342  0  0  0.119151  0  0.969258  0  0  0.121471  0  0.968507  0  0  0.114445  0.118069  0  0.969415  0
H  H25  1  0.73426975  0.84075287  0.81387729  1  0  0.106378  0  0.912339  0  0  0.11918  0  0.969244  0  0  0.121501  0  0.968493  0  0  0.114458  0.118097  0  0.969401  0
H  H26  1  0.76572675  0.34075457  0.31388169  1  0  0.106363  0  0.91245  0  0  0.11918  0  0.969263  0  0  0.121504  0  0.968506  0  0  0.11448  0.118091  0  0.969433  0
H  H27  1  0.26573006  0.15924732  0.18611908  1  0  0.106277  0  0.912538  0  0  0.119112  0  0.969272  0  0  0.121434  0  0.968515  0  0  0.114453  0.118025  0  0.969436  0
H  H28  1  0.48305625  0.76954941  0.74660389  1  0  0.077011  0  0.942774  0  0  0.09122  0  1.012042  0  0  0.093035  0  1.010557  0  0  0.090677  0.089874  0  1.013025  0
H  H29  1  0.98305892  0.73044692  0.75339674  1  0  0.077052  0  0.942769  0  0  0.091274  0  1.012024  0  0  0.093082  0  1.010553  0  0  0.090674  0.089931  0  1.013006  0
H  H30  1  0.51694114  0.23045430  0.25340015  1  0  0.077081  0  0.942711  0  0  0.091287  0  1.012042  0  0  0.093091  0  1.010569  0  0  0.090707  0.089954  0  1.01301  0
H  H31  1  0.01694453  0.26954983  0.24659977  1  0  0.077037  0  0.942799  0  0  0.091306  0  1.012058  0  0  0.093088  0  1.010601  0  0  0.090706  0.089959  0  1.013041  0
H  H32  1  0.53673407  0.85175267  0.67477557  1  0  0.081159  0  0.941084  0  0  0.096947  0  1.004342  0  0  0.09883  0  1.00332  0  0  0.089601  0.095738  0  1.004919  0
H  H33  1  0.03673389  0.64824587  0.82522418  1  0  0.081193  0  0.941038  0  0  0.096942  0  1.00435  0  0  0.098823  0  1.003335  0  0  0.089608  0.095735  0  1.004921  0
H  H34  1  0.46326332  0.14824643  0.32522589  1  0  0.081203  0  0.941065  0  0  0.096987  0  1.004379  0  0  0.098865  0  1.003362  0  0  0.089636  0.095781  0  1.004947  0
H  H35  1  0.96326229  0.35175434  0.17477428  1  0  0.081199  0  0.941056  0  0  0.096971  0  1.004385  0  0  0.098845  0  1.003366  0  0  0.089633  0.095764  0  1.004954  0
H  H36  1  0.22971293  0.91757150  0.76572545  1  0  0.085229  0  0.945285  0  0  0.09736  0  1.00828  0  0  0.09936  0  1.00751  0  0  0.104839  0.09584  0  1.008892  0
H  H37  1  0.72971436  0.58242592  0.73427370  1  0  0.085238  0  0.945274  0  0  0.09736  0  1.008277  0  0  0.099358  0  1.007512  0  0  0.104857  0.095841  0  1.008884  0
H  H38  1  0.77027840  0.08242987  0.23427417  1  0  0.085292  0  0.945297  0  0  0.097414  0  1.008282  0  0  0.099413  0  1.007517  0  0  0.104897  0.095902  0  1.008882  0
H  H39  1  0.27028181  0.41757430  0.26572580  1  0  0.085251  0  0.945287  0  0  0.097415  0  1.008243  0  0  0.099414  0  1.007476  0  0  0.104885  0.095901  0  1.00885  0
H  H40  1  0.05572322  0.37125286  0.60150906  1  0  0.415864  0  0.901066  0  0  0.380225  0  0.973221  0  0  0.392547  0  0.955701  0  0  0.284551  0.371534  0  0.985576  0
H  H41  1  0.55571997  0.12874290  0.89849278  1  0  0.415828  0  0.901117  0  0  0.380221  0  0.973213  0  0  0.39254  0  0.955697  0  0  0.284553  0.37153  0  0.985568  0
H  H42  1  0.94427781  0.62874626  0.39849397  1  0  0.415831  0  0.901109  0  0  0.380234  0  0.97319  0  0  0.39255  0  0.955679  0  0  0.284559  0.371542  0  0.985545  0
H  H43  1  0.44427742  0.87125388  0.10150634  1  0  0.415826  0  0.901117  0  0  0.380226  0  0.973204  0  0  0.392544  0  0.955688  0  0  0.284541  0.371534  0  0.98556  0
H  H44  1  0.94623205  0.27117160  0.53866017  1  0  0.421979  0  0.860237  0  0  0.391959  0  0.93406  0  0  0.402273  0  0.918934  0  0  0.297196  0.384494  0  0.944137  0
H  H45  1  0.44622959  0.22882423  0.96134175  1  0  0.421994  0  0.860202  0  0  0.391978  0  0.934033  0  0  0.402293  0  0.918904  0  0  0.29721  0.38451  0  0.944112  0
H  H46  1  0.05376776  0.72882865  0.46134193  1  0  0.42199  0  0.860187  0  0  0.391967  0  0.934043  0  0  0.402281  0  0.918914  0  0  0.297213  0.384498  0  0.944112  0
H  H47  1  0.55376659  0.77116912  0.03865805  1  0  0.422005  0  0.860167  0  0  0.391985  0  0.934016  0  0  0.402299  0  0.918889  0  0  0.297211  0.384516  0  0.944087  0
H  H48  1  0.28805253  0.40049497  0.39385702  1  0  0.423869  0  0.874288  0  0  0.391755  0  0.941018  0  0  0.401317  0  0.927175  0  0  0.297987  0.385003  0  0.95081  0
H  H49  1  0.78805505  0.09950120  0.10614418  1  0  0.423923  0  0.874235  0  0  0.391798  0  0.940969  0  0  0.401361  0  0.927126  0  0  0.298005  0.385047  0  0.950761  0
H  H50  1  0.71194607  0.59950643  0.60614521  1  0  0.423894  0  0.874223  0  0  0.391759  0  0.941008  0  0  0.401322  0  0.927164  0  0  0.297988  0.385007  0  0.9508  0
H  H51  1  0.21194961  0.90049328  0.89385418  1  0  0.42388  0  0.874255  0  0  0.391754  0  0.941024  0  0  0.401316  0  0.92718  0  0  0.297993  0.385002  0  0.950816  0
H  H52  1  0.12447479  0.44726528  0.43630061  1  0  0.430108  0  0.827287  0  0  0.401491  0  0.902649  0  0  0.410939  0  0.891536  0  0  0.30995  0.394525  0  0.911058  0
H  H53  1  0.62447605  0.05272969  0.06369887  1  0  0.430149  0  0.827173  0  0  0.401541  0  0.902531  0  0  0.410991  0  0.891416  0  0  0.309969  0.394576  0  0.910941  0
H  H54  1  0.87552502  0.55273267  0.56370125  1  0  0.430183  0  0.827125  0  0  0.401567  0  0.902498  0  0  0.411017  0  0.891382  0  0  0.309969  0.394601  0  0.910908  0
H  H55  1  0.37552497  0.94726708  0.93629974  1  0  0.430172  0  0.827145  0  0  0.401556  0  0.902516  0  0  0.411005  0  0.8914  0  0  0.309987  0.39459  0  0.910926  0
H  H56  1  0.21738665  0.02314757  0.38895707  1  0  0.444124  0  0.788956  0  0  0.427094  0  0.839941  0  0  0.434592  0  0.832123  0  0  0.336716  0.42168  0  0.845703  0
H  H57  1  0.71739041  0.47685203  0.11104449  1  0  0.444102  0  0.788975  0  0  0.427065  0  0.839963  0  0  0.434561  0  0.832148  0  0  0.336707  0.421651  0  0.845726  0
H  H58  1  0.78260831  0.97684809  0.61104402  1  0  0.444073  0  0.788999  0  0  0.427044  0  0.839993  0  0  0.434541  0  0.832176  0  0  0.336681  0.42163  0  0.845756  0
H  H59  1  0.28260819  0.52315279  0.88895603  1  0  0.444075  0  0.789016  0  0  0.427045  0  0.840006  0  0  0.434543  0  0.832188  0  0  0.336693  0.421631  0  0.845769  0
H  H60  1  0.22967886  0.95757482  0.45825445  1  0  0.43398  0  0.864234  0  0  0.400533  0  0.931978  0  0  0.410679  0  0.917036  0  0  0.301507  0.393266  0  0.942676  0
H  H61  1  0.72968010  0.54242184  0.04174597  1  0  0.434012  0  0.864195  0  0  0.400551  0  0.931964  0  0  0.410696  0  0.917021  0  0  0.301519  0.393283  0  0.942664  0
H  H62  1  0.77032216  0.04242314  0.54174793  1  0  0.434041  0  0.86416  0  0  0.400592  0  0.931907  0  0  0.410736  0  0.916966  0  0  0.301551  0.39333  0  0.942599  0
H  H63  1  0.27032214  0.45757837  0.95825196  1  0  0.434005  0  0.864214  0  0  0.400557  0  0.93196  0  0  0.4107  0  0.917023  0  0  0.301544  0.393291  0  0.942659  0
C  C64  1  0.35174736  0.77560228  0.53558935  1  0  0.727825  0  3.733852  0  0  0.669489  0  4.035964  0  0  0.703949  0  4.028355  0  0  0.234107  0.645748  0  4.04099  0
C  C65  1  0.85173813  0.72439863  0.96441228  1  0  0.727763  0  3.733947  0  0  0.669554  0  4.035846  0  0  0.704034  0  4.0282  0  0  0.234087  0.645811  0  4.040877  0
C  C66  1  0.64825972  0.22438767  0.46441373  1  0  0.727613  0  3.734384  0  0  0.669479  0  4.036118  0  0  0.703919  0  4.028532  0  0  0.234066  0.645746  0  4.04115  0
C  C67  1  0.14825805  0.27561305  0.03558689  1  0  0.727754  0  3.734282  0  0  0.669523  0  4.036191  0  0  0.703965  0  4.028608  0  0  0.234114  0.645783  0  4.041224  0
C  C68  1  0.23797181  0.75979784  0.59621032  1  0  -0.133139  0  3.615653  0  0  -0.139329  0  3.854418  0  0  -0.145608  0  3.869401  0  0  -0.089713  -0.135005  0  3.844284  0
C  C69  1  0.73797585  0.74020417  0.90378932  1  0  -0.133202  0  3.615661  0  0  -0.139393  0  3.854421  0  0  -0.145678  0  3.869396  0  0  -0.089693  -0.135071  0  3.84429  0
C  C70  1  0.76203163  0.24019667  0.40379117  1  0  -0.133325  0  3.615865  0  0  -0.139527  0  3.854441  0  0  -0.145789  0  3.869431  0  0  -0.089775  -0.135223  0  3.844302  0
C  C71  1  0.26203245  0.25980865  0.09620893  1  0  -0.133513  0  3.616047  0  0  -0.139713  0  3.854601  0  0  -0.145987  0  3.869606  0  0  -0.089809  -0.135408  0  3.844468  0
C  C72  1  0.14314452  0.90607149  0.63057267  1  0  -0.122323  0  3.640964  0  0  -0.175284  0  3.899283  0  0  -0.175103  0  3.911342  0  0  -0.164158  -0.175377  0  3.891329  0
C  C73  1  0.64314487  0.59393396  0.86942837  1  0  -0.122413  0  3.640955  0  0  -0.17539  0  3.899264  0  0  -0.175223  0  3.911338  0  0  -0.16418  -0.175479  0  3.891306  0
C  C74  1  0.85685772  0.09392415  0.36942686  1  0  -0.122294  0  3.64099  0  0  -0.175181  0  3.899176  0  0  -0.175012  0  3.911239  0  0  -0.164065  -0.175274  0  3.891225  0
C  C75  1  0.35685494  0.40608118  0.13057326  1  0  -0.122227  0  3.640895  0  0  -0.175146  0  3.899114  0  0  -0.174971  0  3.911179  0  0  -0.164046  -0.175242  0  3.891167  0
C  C76  1  0.24558263  0.02804910  0.68063745  1  0  -0.127489  0  3.615732  0  0  -0.131015  0  3.852217  0  0  -0.137393  0  3.866678  0  0  -0.084018  -0.126639  0  3.84249  0
C  C77  1  0.74558175  0.47195240  0.81936244  1  0  -0.127424  0  3.615797  0  0  -0.13091  0  3.852192  0  0  -0.137281  0  3.866651  0  0  -0.083987  -0.126536  0  3.842467  0
C  C78  1  0.75441597  0.97195226  0.31936165  1  0  -0.127476  0  3.615748  0  0  -0.130986  0  3.85224  0  0  -0.137358  0  3.866694  0  0  -0.083995  -0.126605  0  3.842511  0
C  C79  1  0.25441321  0.52805472  0.18063936  1  0  -0.127467  0  3.61566  0  0  -0.131037  0  3.85221  0  0  -0.137415  0  3.866677  0  0  -0.084044  -0.126655  0  3.842481  0
C  C80  1  0.32907735  0.69817069  0.65354862  1  0  -0.136526  0  3.629234  0  0  -0.142141  0  3.868831  0  0  -0.148516  0  3.883269  0  0  -0.086306  -0.137825  0  3.858586  0
C  C81  1  0.82908133  0.80182904  0.84645027  1  0  -0.13646  0  3.629113  0  0  -0.142142  0  3.868824  0  0  -0.148511  0  3.883257  0  0  -0.086299  -0.137827  0  3.85858  0
C  C82  1  0.67091882  0.30182613  0.34645416  1  0  -0.13649  0  3.629353  0  0  -0.141982  0  3.868808  0  0  -0.148367  0  3.883246  0  0  -0.086289  -0.137679  0  3.858601  0
C  C83  1  0.17092454  0.19817917  0.15354540  1  0  -0.136506  0  3.62936  0  0  -0.141823  0  3.868517  0  0  -0.148204  0  3.88295  0  0  -0.086231  -0.137519  0  3.858298  0
C  C84  1  0.43350725  0.81840236  0.70375383  1  0  -0.120133  0  3.667475  0  0  -0.176964  0  3.934053  0  0  -0.176113  0  3.945493  0  0  -0.171763  -0.177175  0  3.925708  0
C  C85  1  0.93350875  0.68159279  0.79624406  1  0  -0.12023  0  3.667507  0  0  -0.177054  0  3.93415  0  0  -0.176212  0  3.945607  0  0  -0.171784  -0.177258  0  3.925789  0
C  C86  1  0.56649014  0.18159443  0.29624686  1  0  -0.120177  0  3.66743  0  0  -0.177179  0  3.93425  0  0  -0.176317  0  3.945682  0  0  -0.171851  -0.177391  0  3.925907  0
C  C87  1  0.06649106  0.31840857  0.20375399  1  0  -0.120125  0  3.667463  0  0  -0.177199  0  3.934231  0  0  -0.176308  0  3.945645  0  0  -0.171871  -0.177399  0  3.92588  0
C  C88  1  0.33037979  0.95850287  0.73711837  1  0  -0.140978  0  3.650417  0  0  -0.148073  0  3.89112  0  0  -0.153664  0  3.906096  0  0  -0.093364  -0.144377  0  3.881033  0
C  C89  1  0.83038125  0.54149687  0.76288156  1  0  -0.140923  0  3.650507  0  0  -0.148002  0  3.891202  0  0  -0.153588  0  3.906177  0  0  -0.093359  -0.144315  0  3.881146  0
C  C90  1  0.66961396  0.04149736  0.26288165  1  0  -0.141149  0  3.650685  0  0  -0.148161  0  3.891403  0  0  -0.153755  0  3.906372  0  0  -0.09346  -0.144486  0  3.88137  0
C  C91  1  0.16961372  0.45850335  0.23711741  1  0  -0.141045  0  3.650509  0  0  -0.148127  0  3.891268  0  0  -0.153721  0  3.906232  0  0  -0.093433  -0.14445  0  3.881198  0
C  C92  1  0.35580721  0.11197843  0.63883822  1  0  0.719294  0  3.780204  0  0  0.665348  0  4.077985  0  0  0.700033  0  4.070903  0  0  0.228871  0.641678  0  4.082418  0
C  C93  1  0.85579789  0.38801160  0.86115889  1  0  0.719114  0  3.780512  0  0  0.665188  0  4.078262  0  0  0.699861  0  4.071189  0  0  0.22874  0.641518  0  4.082693  0
C  C94  1  0.64419381  0.88801374  0.36115832  1  0  0.719436  0  3.780167  0  0  0.665415  0  4.078062  0  0  0.700085  0  4.070986  0  0  0.228889  0.641745  0  4.08249  0
C  C95  1  0.14419102  0.61198864  0.13884165  1  0  0.719389  0  3.780282  0  0  0.665415  0  4.078109  0  0  0.700089  0  4.071035  0  0  0.228882  0.641742  0  4.082539  0
C  C96  1  0.41356307  0.54977071  0.61816184  1  0  0.727957  0  3.771138  0  0  0.669948  0  4.070802  0  0  0.705494  0  4.061412  0  0  0.233247  0.64544  0  4.076855  0
C  C97  1  0.91356588  0.95022674  0.88183734  1  0  0.727932  0  3.771139  0  0  0.669936  0  4.070819  0  0  0.705481  0  4.061431  0  0  0.233241  0.645427  0  4.076874  0
C  C98  1  0.58643432  0.45022149  0.38183835  1  0  0.728022  0  3.770889  0  0  0.669944  0  4.07062  0  0  0.70549  0  4.061231  0  0  0.233254  0.645438  0  4.07667  0
C  C99  1  0.08643272  0.04978037  0.11816343  1  0  0.728146  0  3.770771  0  0  0.669984  0  4.070531  0  0  0.705529  0  4.061142  0  0  0.233258  0.645476  0  4.076583  0
C  C100  1  0.41546644  0.07587486  0.79608060  1  0  0.689214  0  3.816466  0  0  0.633815  0  4.126839  0  0  0.667655  0  4.119162  0  0  0.213423  0.610666  0  4.131824  0
C  C101  1  0.91546423  0.42412322  0.70391843  1  0  0.689297  0  3.816236  0  0  0.633858  0  4.12662  0  0  0.667698  0  4.118944  0  0  0.213482  0.610709  0  4.131605  0
C  C102  1  0.58453943  0.92413221  0.20391599  1  0  0.689256  0  3.816352  0  0  0.633866  0  4.126683  0  0  0.667706  0  4.119003  0  0  0.213503  0.610716  0  4.131672  0
C  C103  1  0.08453437  0.57587471  0.29608134  1  0  0.689195  0  3.816433  0  0  0.633825  0  4.126741  0  0  0.667667  0  4.119063  0  0  0.213429  0.610683  0  4.131718  0
O  O104  1  0.55652316  0.05124224  0.81556622  1  0  -0.591989  0  1.94299  0  0  -0.537202  0  2.159559  0  0  -0.562002  0  2.150602  0  0  -0.31049  -0.520234  0  2.165545  0
O  O105  1  0.05652650  0.44875695  0.68443495  1  0  -0.591987  0  1.942733  0  0  -0.537218  0  2.159374  0  0  -0.562014  0  2.150404  0  0  -0.310503  -0.520256  0  2.16537  0
O  O106  1  0.44347301  0.94875686  0.18443524  1  0  -0.591995  0  1.942796  0  0  -0.537247  0  2.159393  0  0  -0.562039  0  2.150423  0  0  -0.310535  -0.520278  0  2.165388  0
O  O107  1  0.94347573  0.55124098  0.31556482  1  0  -0.591945  0  1.942886  0  0  -0.537199  0  2.159457  0  0  -0.561988  0  2.150488  0  0  -0.31049  -0.520233  0  2.165444  0
O  O108  1  0.04143688  0.33926252  0.54681133  1  0  -0.853028  0  1.920805  0  0  -0.787411  0  2.140923  0  0  -0.811146  0  2.1048  0  0  -0.572906  -0.770315  0  2.165305  0
O  O109  1  0.54143611  0.16073324  0.95319103  1  0  -0.85303  0  1.920847  0  0  -0.787444  0  2.140955  0  0  -0.811179  0  2.104836  0  0  -0.572928  -0.770347  0  2.165336  0
O  O110  1  0.95856172  0.66073429  0.45319092  1  0  -0.853027  0  1.920873  0  0  -0.787414  0  2.140931  0  0  -0.811171  0  2.104863  0  0  -0.572925  -0.770336  0  2.165345  0
O  O111  1  0.45856249  0.83926814  0.04680911  1  0  -0.853014  0  1.920823  0  0  -0.787403  0  2.140888  0  0  -0.811157  0  2.104811  0  0  -0.572899  -0.770324  0  2.165304  0
O  O112  1  0.33291796  0.19547826  0.82829381  1  0  -0.703031  0  2.033104  0  0  -0.629937  0  2.315832  0  0  -0.658388  0  2.297217  0  0  -0.361537  -0.610003  0  2.328345  0
O  O113  1  0.83291328  0.30451525  0.67170784  1  0  -0.703175  0  2.033185  0  0  -0.629984  0  2.3159  0  0  -0.658436  0  2.297284  0  0  -0.361558  -0.610048  0  2.328411  0
O  O114  1  0.66708186  0.80451967  0.17170544  1  0  -0.703068  0  2.033069  0  0  -0.629955  0  2.315781  0  0  -0.658407  0  2.297164  0  0  -0.361554  -0.610016  0  2.328293  0
O  O115  1  0.16708411  0.69548155  0.32829338  1  0  -0.703125  0  2.033156  0  0  -0.629999  0  2.315847  0  0  -0.658451  0  2.297227  0  0  -0.361553  -0.610064  0  2.328356  0
O  O116  1  0.19676773  0.36034213  0.41746751  1  0  -0.803611  0  1.858008  0  0  -0.742226  0  2.057596  0  0  -0.762866  0  2.02885  0  0  -0.564046  -0.727593  0  2.078218  0
O  O117  1  0.69677143  0.13965285  0.08253093  1  0  -0.803722  0  1.857889  0  0  -0.74231  0  2.057402  0  0  -0.762953  0  2.02865  0  0  -0.564078  -0.727677  0  2.078024  0
O  O118  1  0.80323209  0.63965697  0.58253395  1  0  -0.803707  0  1.857826  0  0  -0.742319  0  2.057412  0  0  -0.762958  0  2.028663  0  0  -0.564053  -0.727685  0  2.078034  0
O  O119  1  0.30323201  0.86034277  0.91746650  1  0  -0.803682  0  1.857879  0  0  -0.742296  0  2.057436  0  0  -0.762936  0  2.028689  0  0  -0.564079  -0.727662  0  2.078058  0
O  O120  1  0.19261704  0.04648006  0.43999425  1  0  -0.809  0  1.910982  0  0  -0.752299  0  2.118988  0  0  -0.772341  0  2.089085  0  0  -0.555392  -0.737948  0  2.140058  0
O  O121  1  0.69261954  0.45351724  0.06000758  1  0  -0.809048  0  1.910967  0  0  -0.752316  0  2.118958  0  0  -0.772358  0  2.089059  0  0  -0.555413  -0.737964  0  2.140028  0
O  O122  1  0.80738156  0.95351675  0.56000749  1  0  -0.809002  0  1.910924  0  0  -0.752327  0  2.118955  0  0  -0.772364  0  2.089057  0  0  -0.55541  -0.737973  0  2.140019  0
O  O123  1  0.30738028  0.54648413  0.93999256  1  0  -0.808974  0  1.910999  0  0  -0.752291  0  2.119021  0  0  -0.772332  0  2.089122  0  0  -0.555414  -0.737937  0  2.140089  0
O  O124  1  0.30800765  0.12658639  0.57834109  1  0  -0.6822  0  2.106057  0  0  -0.618212  0  2.383274  0  0  -0.645212  0  2.366932  0  0  -0.321135  -0.599343  0  2.394318  0
O  O125  1  0.80800565  0.37341399  0.92166025  1  0  -0.682222  0  2.106184  0  0  -0.61821  0  2.383346  0  0  -0.645217  0  2.367021  0  0  -0.321116  -0.59934  0  2.394388  0
O  O126  1  0.69200185  0.87341155  0.42165920  1  0  -0.68239  0  2.105926  0  0  -0.618358  0  2.383171  0  0  -0.645372  0  2.366863  0  0  -0.321214  -0.599487  0  2.394216  0
O  O127  1  0.19199779  0.62659082  0.07833974  1  0  -0.68234  0  2.10594  0  0  -0.618342  0  2.383203  0  0  -0.64534  0  2.366859  0  0  -0.321196  -0.599474  0  2.394257  0
O  O128  1  0.48917439  0.16660942  0.66880611  1  0  -0.640895  0  2.051928  0  0  -0.562469  0  2.326116  0  0  -0.591884  0  2.308088  0  0  -0.314421  -0.542019  0  2.338117  0
O  O129  1  0.98916866  0.33338526  0.83119518  1  0  -0.640704  0  2.052014  0  0  -0.562364  0  2.32627  0  0  -0.591752  0  2.30823  0  0  -0.314345  -0.541913  0  2.33827  0
O  O130  1  0.51082906  0.83339655  0.33119557  1  0  -0.640795  0  2.051939  0  0  -0.562413  0  2.326225  0  0  -0.591798  0  2.308189  0  0  -0.31438  -0.54196  0  2.33822  0
O  O131  1  0.01082630  0.66660923  0.16880422  1  0  -0.640814  0  2.052032  0  0  -0.562419  0  2.326265  0  0  -0.591807  0  2.308229  0  0  -0.314377  -0.541968  0  2.338263  0
O  O132  1  0.50144953  0.77819575  0.54583249  1  0  -0.636495  0  2.109697  0  0  -0.572536  0  2.379393  0  0  -0.599546  0  2.366373  0  0  -0.294106  -0.553265  0  2.387804  0
O  O133  1  0.00144100  0.72180966  0.95416799  1  0  -0.636396  0  2.109704  0  0  -0.572482  0  2.379344  0  0  -0.599499  0  2.366312  0  0  -0.293993  -0.553208  0  2.387751  0
O  O134  1  0.49856482  0.22180567  0.45417235  1  0  -0.636293  0  2.109996  0  0  -0.572416  0  2.379621  0  0  -0.599404  0  2.366575  0  0  -0.293976  -0.553144  0  2.388024  0
O  O135  1  0.99856245  0.27819857  0.04583028  1  0  -0.636273  0  2.109943  0  0  -0.572383  0  2.379643  0  0  -0.599368  0  2.366593  0  0  -0.293953  -0.553108  0  2.38804  0
O  O136  1  0.28318589  0.77939532  0.47455794  1  0  -0.717739  0  2.115542  0  0  -0.627866  0  2.385497  0  0  -0.65748  0  2.365919  0  0  -0.32184  -0.607005  0  2.399022  0
O  O137  1  0.78318834  0.72059564  0.02544501  1  0  -0.717767  0  2.115669  0  0  -0.627946  0  2.385605  0  0  -0.657561  0  2.366005  0  0  -0.321918  -0.607084  0  2.399134  0
O  O138  1  0.71682361  0.22059692  0.52544591  1  0  -0.717751  0  2.11577  0  0  -0.627915  0  2.385568  0  0  -0.657533  0  2.366022  0  0  -0.321913  -0.607094  0  2.399133  0
O  O139  1  0.21682117  0.27940344  0.97455489  1  0  -0.71779  0  2.115636  0  0  -0.627984  0  2.38553  0  0  -0.657604  0  2.365987  0  0  -0.321985  -0.607138  0  2.39907  0
O  O140  1  0.34815035  0.46554525  0.56412521  1  0  -0.656534  0  2.132244  0  0  -0.594497  0  2.412343  0  0  -0.621523  0  2.397175  0  0  -0.311111  -0.575608  0  2.422736  0
O  O141  1  0.84815561  0.03445513  0.93587510  1  0  -0.656494  0  2.13215  0  0  -0.594462  0  2.412243  0  0  -0.62149  0  2.397076  0  0  -0.311122  -0.575573  0  2.422637  0
O  O142  1  0.65184825  0.53445157  0.43587757  1  0  -0.656576  0  2.13197  0  0  -0.594509  0  2.41209  0  0  -0.621532  0  2.396921  0  0  -0.311135  -0.57562  0  2.422487  0
O  O143  1  0.15184542  0.96554967  0.06412333  1  0  -0.656575  0  2.131922  0  0  -0.594472  0  2.412046  0  0  -0.6215  0  2.396881  0  0  -0.311103  -0.575581  0  2.422442  0
O  O144  1  0.54779285  0.51525858  0.64605859  1  0  -0.684235  0  2.097435  0  0  -0.59571  0  2.364178  0  0  -0.626165  0  2.34692  0  0  -0.318151  -0.574285  0  2.375549  0
O  O145  1  0.04779393  0.98473306  0.85393938  1  0  -0.684182  0  2.097426  0  0  -0.595688  0  2.36419  0  0  -0.626133  0  2.34691  0  0  -0.318115  -0.574267  0  2.37557  0
O  O146  1  0.45220575  0.48473134  0.35394293  1  0  -0.684229  0  2.097346  0  0  -0.595765  0  2.364184  0  0  -0.626212  0  2.346909  0  0  -0.318184  -0.574342  0  2.375557  0
O  O147  1  0.95220588  0.01526713  0.14605699  1  0  -0.684258  0  2.097337  0  0  -0.595799  0  2.364229  0  0  -0.626242  0  2.346945  0  0  -0.318196  -0.574381  0  2.375613  0
