# generated using pymatgen
data_Gd2Zn3H36(C2O3)12
_symmetry_space_group_name_H-M   'P 1'
_cell_length_a   14.56363581
_cell_length_b   14.56365861
_cell_length_c   16.05277886
_cell_angle_alpha   89.99959835
_cell_angle_beta   90.00044536
_cell_angle_gamma   120.00013384
_symmetry_Int_Tables_number   1
_chemical_formula_structural   Gd2Zn3H36(C2O3)12
_chemical_formula_sum   'Gd4 Zn6 H72 C48 O72'
_cell_volume   2948.63196271
_cell_formula_units_Z   2
loop_
 _symmetry_equiv_pos_site_id
 _symmetry_equiv_pos_as_xyz
  1  'x, y, z'
loop_
 _atom_site_type_symbol
 _atom_site_label
 _atom_site_symmetry_multiplicity
 _atom_site_fract_x
 _atom_site_fract_y
 _atom_site_fract_z
 _atom_site_occupancy
 _atom_site_pbe_bader_charge
 _atom_site_pbe_bader_spin_density
 _atom_site_pbe_cm5_charge
 _atom_site_pbe_ddec_charge
 _atom_site_pbe_ddec_spin_density
 _atom_site_pbe_ddec_sum_bond_order
 _atom_site_pbe_magmom
Gd  Gd0  1  0.33333123  0.66666904  0.74999942  1  2.208643  0  1.454617  1.943188  0  2.269507  0
Gd  Gd1  1  0.66666751  0.33333242  0.74999979  1  2.20859  0  1.454558  1.943134  0  2.269504  0
Gd  Gd2  1  0.66666664  0.33333425  0.24999913  1  2.208557  0  1.454547  1.943091  0  2.269462  0
Gd  Gd3  1  0.33333186  0.66666524  0.24999876  1  2.208586  0  1.4546  1.943105  0  2.26952  0
Zn  Zn4  1  0.99999747  0.49999736  0.00000007  1  1.359266  0  0.665474  0.994369  0  2.202917  0
Zn  Zn5  1  0.49999948  0.00000069  0.00000114  1  1.365325  0  0.665447  0.994311  0  2.202932  0
Zn  Zn6  1  0.49999903  0.49999784  0.99999651  1  1.363104  0  0.665483  0.994323  0  2.2029  0
Zn  Zn7  1  0.50000140  0.50000055  0.49999896  1  1.363098  0  0.665464  0.99432  0  2.202972  0
Zn  Zn8  1  0.50000117  0.99999938  0.49999924  1  1.359252  0  0.665466  0.994324  0  2.202949  0
Zn  Zn9  1  0.99999991  0.49999947  0.50000011  1  1.365367  0  0.665454  0.994367  0  2.202926  0
H  H10  1  0.18318259  0.64000169  0.94996622  1  0.637168  0  0.293436  0.381658  0  0.951374  0
H  H11  1  0.45681942  0.81681765  0.94996725  1  0.631653  0  0.293439  0.381621  0  0.951413  0
H  H12  1  0.35999744  0.54317838  0.94996840  1  0.643784  0  0.293431  0.381616  0  0.951429  0
H  H13  1  0.81681741  0.35999884  0.94996686  1  0.636771  0  0.29345  0.381636  0  0.951407  0
H  H14  1  0.54318155  0.18318466  0.94996645  1  0.634624  0  0.293458  0.381643  0  0.951383  0
H  H15  1  0.64000208  0.45681851  0.94996593  1  0.647174  0  0.293382  0.3816  0  0.951441  0
H  H16  1  0.54318114  0.35999904  0.55003451  1  0.647127  0  0.293423  0.381634  0  0.951386  0
H  H17  1  0.64000238  0.18318300  0.55003417  1  0.635503  0  0.293422  0.381612  0  0.951439  0
H  H18  1  0.81681596  0.45681778  0.55003392  1  0.630653  0  0.293466  0.381652  0  0.951368  0
H  H19  1  0.45681981  0.64000124  0.55003269  1  0.647398  0  0.293417  0.381641  0  0.951391  0
H  H20  1  0.35999709  0.81681739  0.55003366  1  0.636473  0  0.293455  0.38166  0  0.951376  0
H  H21  1  0.18318420  0.54318330  0.55003453  1  0.634866  0  0.29347  0.381637  0  0.951385  0
H  H22  1  0.81681628  0.35999784  0.05003420  1  0.637156  0  0.293427  0.381615  0  0.951431  0
H  H23  1  0.54318151  0.18318394  0.05003379  1  0.631622  0  0.293469  0.381653  0  0.951372  0
H  H24  1  0.64000222  0.45682036  0.05003264  1  0.643774  0  0.293393  0.381611  0  0.951422  0
H  H25  1  0.18318244  0.64000246  0.05003294  1  0.636483  0  0.293458  0.381679  0  0.951352  0
H  H26  1  0.45681760  0.81681596  0.05003521  1  0.634597  0  0.293462  0.381636  0  0.951389  0
H  H27  1  0.35999877  0.54317904  0.05003325  1  0.64721  0  0.293441  0.381658  0  0.951348  0
H  H28  1  0.45681979  0.64000255  0.44996715  1  0.647132  0  0.293418  0.381622  0  0.951411  0
H  H29  1  0.35999620  0.81681546  0.44996687  1  0.635515  0  0.293442  0.381654  0  0.951376  0
H  H30  1  0.18318359  0.54318244  0.44996712  1  0.630676  0  0.293429  0.381604  0  0.95144  0
H  H31  1  0.54318082  0.35999927  0.44996773  1  0.647412  0  0.29341  0.381631  0  0.951402  0
H  H32  1  0.64000246  0.18318283  0.44996738  1  0.636496  0  0.293469  0.381658  0  0.951375  0
H  H33  1  0.81681644  0.45681721  0.44996589  1  0.634865  0  0.29343  0.381593  0  0.951456  0
H  H34  1  0.17094046  0.35858361  0.84577577  1  0.086789  0  0.121797  0.113345  0  0.942475  0
H  H35  1  0.18764147  0.82905891  0.84577620  1  0.103291  0  0.121805  0.11334  0  0.942451  0
H  H36  1  0.64141849  0.81235947  0.84577598  1  0.08434  0  0.121815  0.113359  0  0.942464  0
H  H37  1  0.82905888  0.64141741  0.84577657  1  0.086791  0  0.121813  0.113322  0  0.942499  0
H  H38  1  0.81235776  0.17094359  0.84577676  1  0.103291  0  0.121812  0.113339  0  0.942504  0
H  H39  1  0.35858323  0.18763917  0.84577511  1  0.08447  0  0.121814  0.113362  0  0.942459  0
H  H40  1  0.81235737  0.64141546  0.65422400  1  0.084133  0  0.12182  0.113348  0  0.942493  0
H  H41  1  0.35858380  0.17094069  0.65422265  1  0.086829  0  0.121817  0.11335  0  0.942509  0
H  H42  1  0.82905790  0.18764158  0.65422488  1  0.103202  0  0.121808  0.113355  0  0.942479  0
H  H43  1  0.18764098  0.35858347  0.65422457  1  0.084474  0  0.121824  0.113373  0  0.942454  0
H  H44  1  0.64141849  0.82905981  0.65422405  1  0.086806  0  0.121821  0.113356  0  0.942466  0
H  H45  1  0.17094143  0.81235913  0.65422493  1  0.10319  0  0.121804  0.113358  0  0.942471  0
H  H46  1  0.82905949  0.64141622  0.15422340  1  0.086792  0  0.121835  0.113368  0  0.942438  0
H  H47  1  0.81235877  0.17094200  0.15422422  1  0.103292  0  0.121808  0.113341  0  0.942467  0
H  H48  1  0.35858265  0.18763917  0.15422443  1  0.084331  0  0.121807  0.113318  0  0.942499  0
H  H49  1  0.17093959  0.35858252  0.15422385  1  0.086874  0  0.121804  0.11333  0  0.942452  0
H  H50  1  0.18764208  0.82905772  0.15422553  1  0.103224  0  0.121826  0.113382  0  0.94245  0
H  H51  1  0.64141574  0.81235889  0.15422407  1  0.084461  0  0.121809  0.113349  0  0.94248  0
H  H52  1  0.18764120  0.35858299  0.34577641  1  0.084366  0  0.121811  0.11336  0  0.942454  0
H  H53  1  0.64141546  0.82905845  0.34577652  1  0.086827  0  0.121825  0.113353  0  0.942489  0
H  H54  1  0.17094136  0.81235756  0.34577616  1  0.103312  0  0.121823  0.113372  0  0.942432  0
H  H55  1  0.81235995  0.64141812  0.34577336  1  0.084628  0  0.121843  0.113385  0  0.942424  0
H  H56  1  0.35858500  0.17094197  0.34577637  1  0.086821  0  0.121823  0.113362  0  0.94249  0
H  H57  1  0.82905910  0.18764287  0.34577549  1  0.103323  0  0.121802  0.113365  0  0.94245  0
H  H58  1  0.07778770  0.35496076  0.77084138  1  0.072667  0  0.109856  0.088644  0  0.997355  0
H  H59  1  0.27717199  0.92221233  0.77084277  1  0.08368  0  0.109866  0.088677  0  0.997388  0
H  H60  1  0.64504043  0.72282901  0.77084221  1  0.062692  0  0.109887  0.088662  0  0.997389  0
H  H61  1  0.92221207  0.64503833  0.77084406  1  0.073005  0  0.109857  0.088644  0  0.99737  0
H  H62  1  0.72282797  0.07778932  0.77084267  1  0.083446  0  0.109849  0.088653  0  0.997364  0
H  H63  1  0.35495974  0.27716968  0.77084136  1  0.062478  0  0.109883  0.088663  0  0.997346  0
H  H64  1  0.72282708  0.64503845  0.72915774  1  0.062383  0  0.109836  0.088612  0  0.997373  0
H  H65  1  0.35496082  0.07778710  0.72915638  1  0.072667  0  0.109845  0.088659  0  0.997368  0
H  H66  1  0.92221109  0.27717246  0.72915962  1  0.083679  0  0.109861  0.088643  0  0.997449  0
H  H67  1  0.27717272  0.35496191  0.72915772  1  0.062017  0  0.109858  0.088649  0  0.997333  0
H  H68  1  0.64503967  0.92221395  0.72915783  1  0.073007  0  0.109846  0.088634  0  0.997323  0
H  H69  1  0.07778900  0.72282898  0.72915895  1  0.083681  0  0.109871  0.088651  0  0.997415  0
H  H70  1  0.92221128  0.64503730  0.22915779  1  0.07272  0  0.109866  0.088672  0  0.997328  0
H  H71  1  0.72282825  0.07778858  0.22915889  1  0.083674  0  0.109859  0.088631  0  0.997373  0
H  H72  1  0.35496266  0.27717316  0.22915571  1  0.06251  0  0.109878  0.088648  0  0.997355  0
H  H73  1  0.07778719  0.35496081  0.22915822  1  0.073013  0  0.109846  0.088616  0  0.997336  0
H  H74  1  0.27717267  0.92221119  0.22916023  1  0.08368  0  0.109859  0.088646  0  0.997372  0
H  H75  1  0.64503884  0.72282877  0.22915905  1  0.062313  0  0.109866  0.088641  0  0.99737  0
H  H76  1  0.27717150  0.35496000  0.27084205  1  0.062406  0  0.109872  0.088646  0  0.997354  0
H  H77  1  0.64503776  0.92221136  0.27084279  1  0.072704  0  0.109858  0.088651  0  0.99736  0
H  H78  1  0.07778886  0.72282736  0.27084329  1  0.083703  0  0.109872  0.088662  0  0.997382  0
H  H79  1  0.72282929  0.64503997  0.27083896  1  0.062078  0  0.109876  0.088634  0  0.997393  0
H  H80  1  0.35496047  0.07778844  0.27084321  1  0.073045  0  0.109865  0.088692  0  0.997309  0
H  H81  1  0.92221153  0.27717301  0.27084146  1  0.083695  0  0.109872  0.088677  0  0.997391  0
C  C82  1  0.13157475  0.48102871  0.86080566  1  1.621881  0  0.224435  0.630688  0  4.165623  0
C  C83  1  0.34944780  0.86841983  0.86080270  1  1.618963  0  0.224322  0.630449  0  4.165721  0
C  C84  1  0.51899104  0.65055130  0.86081147  1  1.609977  0  0.224324  0.630618  0  4.165803  0
C  C85  1  0.86843713  0.51898864  0.86081437  1  1.622059  0  0.224352  0.630479  0  4.166013  0
C  C86  1  0.65054762  0.13157552  0.86081047  1  1.619473  0  0.224366  0.630591  0  4.165709  0
C  C87  1  0.48101355  0.34944449  0.86080731  1  1.609629  0  0.224383  0.630581  0  4.165558  0
C  C88  1  0.65054410  0.51897924  0.63918717  1  1.610378  0  0.224302  0.630465  0  4.166091  0
C  C89  1  0.48102201  0.13157274  0.63919217  1  1.621848  0  0.224284  0.630434  0  4.165821  0
C  C90  1  0.86842530  0.34945338  0.63919222  1  1.619432  0  0.224426  0.630724  0  4.165547  0
C  C91  1  0.34944632  0.48101113  0.63919121  1  1.609626  0  0.224297  0.630535  0  4.165678  0
C  C92  1  0.51898568  0.86843331  0.63918871  1  1.621995  0  0.224338  0.630488  0  4.165917  0
C  C93  1  0.13157964  0.65054992  0.63919613  1  1.619375  0  0.224385  0.630642  0  4.165602  0
C  C94  1  0.86842467  0.51897851  0.13919414  1  1.621662  0  0.224378  0.630539  0  4.165522  0
C  C95  1  0.65054816  0.13156887  0.13919024  1  1.619454  0  0.224308  0.630501  0  4.165961  0
C  C96  1  0.48102006  0.34944699  0.13918646  1  1.610524  0  0.224377  0.630564  0  4.165837  0
C  C97  1  0.13157312  0.48102149  0.13919228  1  1.622042  0  0.224378  0.630522  0  4.165618  0
C  C98  1  0.34945305  0.86841947  0.13919555  1  1.619448  0  0.22439  0.630512  0  4.16593  0
C  C99  1  0.51897639  0.65054612  0.13918812  1  1.609993  0  0.224391  0.630551  0  4.166009  0
C  C100  1  0.34944906  0.48101776  0.36080888  1  1.610061  0  0.224351  0.630602  0  4.165739  0
C  C101  1  0.51898011  0.86842766  0.36080887  1  1.621688  0  0.224258  0.630381  0  4.165853  0
C  C102  1  0.13157491  0.65055305  0.36080820  1  1.61935  0  0.224321  0.63044  0  4.165766  0
C  C103  1  0.65055601  0.51898632  0.36080422  1  1.609065  0  0.224321  0.630462  0  4.165539  0
C  C104  1  0.48102388  0.13157613  0.36080672  1  1.622029  0  0.224373  0.630546  0  4.165665  0
C  C105  1  0.86842179  0.34944980  0.36080553  1  1.61942  0  0.224459  0.630735  0  4.16548  0
C  C106  1  0.15071775  0.40768361  0.80580614  1  0.402988  0  -0.056929  -0.11175  0  3.911415  0
C  C107  1  0.25696232  0.84928179  0.80580448  1  0.369688  0  -0.05688  -0.111655  0  3.911531  0
C  C108  1  0.59231861  0.74303548  0.80580600  1  0.417424  0  -0.056858  -0.111655  0  3.911461  0
C  C109  1  0.84928243  0.59231788  0.80580801  1  0.401469  0  -0.056814  -0.11153  0  3.911514  0
C  C110  1  0.74303609  0.15071872  0.80580593  1  0.370447  0  -0.056887  -0.111739  0  3.911402  0
C  C111  1  0.40768355  0.25696403  0.80580565  1  0.417863  0  -0.056886  -0.11171  0  3.911507  0
C  C112  1  0.74303470  0.59231702  0.69419456  1  0.417513  0  -0.05685  -0.111629  0  3.911358  0
C  C113  1  0.40768368  0.15071702  0.69419167  1  0.402919  0  -0.056829  -0.11165  0  3.911579  0
C  C114  1  0.84928148  0.25696302  0.69419663  1  0.369696  0  -0.056918  -0.111807  0  3.911504  0
C  C115  1  0.25696528  0.40768311  0.69419344  1  0.417977  0  -0.056868  -0.111702  0  3.911435  0
C  C116  1  0.59231807  0.84928408  0.69419197  1  0.401418  0  -0.056826  -0.111601  0  3.911466  0
C  C117  1  0.15071919  0.74303779  0.69419635  1  0.370285  0  -0.056903  -0.111736  0  3.911523  0
C  C118  1  0.84928043  0.59231523  0.19419366  1  0.402917  0  -0.056866  -0.111664  0  3.911608  0
C  C119  1  0.74303684  0.15071883  0.19419531  1  0.369578  0  -0.056878  -0.111674  0  3.911441  0
C  C120  1  0.40768322  0.25696385  0.19419254  1  0.417515  0  -0.056843  -0.111575  0  3.911515  0
C  C121  1  0.15071782  0.40768303  0.19419427  1  0.401385  0  -0.056835  -0.111538  0  3.911381  0
C  C122  1  0.25696426  0.84928071  0.19419636  1  0.370323  0  -0.056893  -0.11169  0  3.911417  0
C  C123  1  0.59231719  0.74303500  0.19419414  1  0.417897  0  -0.056903  -0.111734  0  3.911348  0
C  C124  1  0.25696486  0.40768321  0.30580523  1  0.417242  0  -0.05685  -0.111664  0  3.91151  0
C  C125  1  0.59231638  0.84928132  0.30580625  1  0.402903  0  -0.056871  -0.111677  0  3.911552  0
C  C126  1  0.15071818  0.74303572  0.30580566  1  0.369501  0  -0.056893  -0.111676  0  3.91149  0
C  C127  1  0.74303467  0.59231672  0.30580511  1  0.418206  0  -0.056842  -0.11155  0  3.911487  0
C  C128  1  0.40768383  0.15071929  0.30580658  1  0.401403  0  -0.056909  -0.111761  0  3.9116  0
C  C129  1  0.84928134  0.25696420  0.30580406  1  0.370124  0  -0.0569  -0.111801  0  3.911494  0
O  O130  1  0.14892840  0.64948232  0.00000282  1  -1.242699  0  -0.577478  -0.737364  0  2.043573  0
O  O131  1  0.50055259  0.85107340  0.99999975  1  -1.237495  0  -0.577419  -0.737229  0  2.043639  0
O  O132  1  0.35051767  0.49944345  0.99999660  1  -1.262196  0  -0.577442  -0.737266  0  2.043636  0
O  O133  1  0.85107104  0.35051938  0.99999635  1  -1.243  0  -0.577434  -0.737209  0  2.043616  0
O  O134  1  0.49944784  0.14893007  0.00000316  1  -1.237531  0  -0.57748  -0.737268  0  2.043634  0
O  O135  1  0.64948170  0.50055421  0.00000008  1  -1.262154  0  -0.577326  -0.737202  0  2.043637  0
O  O136  1  0.49944677  0.35051989  0.49999944  1  -1.265722  0  -0.577397  -0.73725  0  2.043618  0
O  O137  1  0.64948104  0.14892755  0.49999936  1  -1.241013  0  -0.577432  -0.737254  0  2.043652  0
O  O138  1  0.85107090  0.50055164  0.50000082  1  -1.236777  0  -0.577432  -0.737216  0  2.043644  0
O  O139  1  0.50055416  0.64948171  0.50000098  1  -1.26571  0  -0.5774  -0.737249  0  2.043577  0
O  O140  1  0.35051616  0.85106953  0.50000292  1  -1.241013  0  -0.577461  -0.73729  0  2.043623  0
O  O141  1  0.14892677  0.49944908  0.50000084  1  -1.236789  0  -0.577417  -0.737211  0  2.043689  0
O  O142  1  0.05354985  0.43524783  0.90885827  1  -1.168888  0  -0.304762  -0.53342  0  2.287457  0
O  O143  1  0.38168943  0.94644748  0.90886154  1  -1.17256  0  -0.304739  -0.533366  0  2.287242  0
O  O144  1  0.56475220  0.61830068  0.90886074  1  -1.171271  0  -0.304614  -0.533209  0  2.288282  0
O  O145  1  0.94644733  0.56475272  0.90886599  1  -1.169215  0  -0.304668  -0.533188  0  2.288312  0
O  O146  1  0.61830655  0.05355426  0.90886210  1  -1.172972  0  -0.304739  -0.533356  0  2.287659  0
O  O147  1  0.43524656  0.38169828  0.90886165  1  -1.171115  0  -0.304764  -0.533326  0  2.287705  0
O  O148  1  0.61830225  0.56474916  0.59113791  1  -1.171305  0  -0.30464  -0.53316  0  2.288269  0
O  O149  1  0.43524688  0.05354897  0.59113640  1  -1.168989  0  -0.304747  -0.533324  0  2.287531  0
O  O150  1  0.94644751  0.38169502  0.59113903  1  -1.172927  0  -0.304753  -0.53339  0  2.287546  0
O  O151  1  0.38169848  0.43524729  0.59113873  1  -1.171149  0  -0.304679  -0.533249  0  2.287898  0
O  O152  1  0.56475465  0.94644668  0.59113464  1  -1.169103  0  -0.304694  -0.533228  0  2.287982  0
O  O153  1  0.05355103  0.61830638  0.59114073  1  -1.172807  0  -0.304825  -0.533494  0  2.28731  0
O  O154  1  0.94645029  0.56475456  0.09113654  1  -1.168914  0  -0.3048  -0.533402  0  2.287439  0
O  O155  1  0.61830647  0.05355227  0.09114075  1  -1.17304  0  -0.304643  -0.533186  0  2.288006  0
O  O156  1  0.43524731  0.38168998  0.09113158  1  -1.171352  0  -0.304692  -0.533238  0  2.287894  0
O  O157  1  0.05354937  0.43524624  0.09113629  1  -1.168978  0  -0.304758  -0.533349  0  2.287517  0
O  O158  1  0.38169535  0.94644911  0.09114268  1  -1.172808  0  -0.304823  -0.533458  0  2.287491  0
O  O159  1  0.56475022  0.61830472  0.09113752  1  -1.17118  0  -0.30475  -0.533273  0  2.288004  0
O  O160  1  0.38169831  0.43524731  0.40886251  1  -1.17103  0  -0.304677  -0.533272  0  2.287838  0
O  O161  1  0.56475329  0.94644789  0.40886152  1  -1.168964  0  -0.304661  -0.533189  0  2.287836  0
O  O162  1  0.05355793  0.61831030  0.40886512  1  -1.172908  0  -0.304788  -0.533323  0  2.287622  0
O  O163  1  0.61830429  0.56475932  0.40886293  1  -1.170969  0  -0.304718  -0.533347  0  2.287479  0
O  O164  1  0.43524443  0.05354989  0.40886453  1  -1.168928  0  -0.304785  -0.533387  0  2.28737  0
O  O165  1  0.94644362  0.38169052  0.40886467  1  -1.172867  0  -0.3048  -0.533443  0  2.287344  0
O  O166  1  0.19605663  0.58096745  0.85421605  1  -1.188409  0  -0.374125  -0.645189  0  2.278232  0
O  O167  1  0.38490877  0.80394425  0.85421601  1  -1.182542  0  -0.374085  -0.645074  0  2.278341  0
O  O168  1  0.41903467  0.61509615  0.85421985  1  -1.177715  0  -0.37418  -0.645389  0  2.277421  0
O  O169  1  0.80394493  0.41903411  0.85422245  1  -1.187939  0  -0.374165  -0.645309  0  2.2776  0
O  O170  1  0.61509525  0.19605897  0.85421938  1  -1.182619  0  -0.374092  -0.645166  0  2.278104  0
O  O171  1  0.58096728  0.38490501  0.85422053  1  -1.177886  0  -0.374096  -0.645238  0  2.277614  0
O  O172  1  0.61509041  0.41903399  0.64577999  1  -1.17793  0  -0.374126  -0.645271  0  2.277932  0
O  O173  1  0.58096699  0.19605675  0.64577934  1  -1.188327  0  -0.374037  -0.645102  0  2.277997  0
O  O174  1  0.80394211  0.38490518  0.64578326  1  -1.182539  0  -0.374124  -0.645241  0  2.278171  0
O  O175  1  0.38490404  0.58096747  0.64577867  1  -1.177865  0  -0.374103  -0.645267  0  2.277486  0
O  O176  1  0.41903474  0.80394566  0.64577995  1  -1.187991  0  -0.374137  -0.645267  0  2.277757  0
O  O177  1  0.19605825  0.61509586  0.64578537  1  -1.182656  0  -0.374024  -0.645063  0  2.278316  0
O  O178  1  0.80393967  0.41903191  0.14577751  1  -1.188114  0  -0.374055  -0.645133  0  2.277874  0
O  O179  1  0.61509216  0.19605735  0.14578191  1  -1.182423  0  -0.374128  -0.645248  0  2.277852  0
O  O180  1  0.58096380  0.38490378  0.14577870  1  -1.177991  0  -0.374155  -0.64529  0  2.277885  0
O  O181  1  0.19605798  0.58096550  0.14577983  1  -1.188129  0  -0.374092  -0.645176  0  2.277926  0
O  O182  1  0.38490687  0.80394143  0.14578415  1  -1.182758  0  -0.374056  -0.645019  0  2.278455  0
O  O183  1  0.41903494  0.61509391  0.14578176  1  -1.178027  0  -0.374089  -0.64519  0  2.278039  0
O  O184  1  0.38490738  0.58096526  0.35422105  1  -1.177846  0  -0.374138  -0.645275  0  2.277739  0
O  O185  1  0.41903220  0.80393835  0.35422170  1  -1.188159  0  -0.374094  -0.645187  0  2.277746  0
O  O186  1  0.19605766  0.61509208  0.35422089  1  -1.182468  0  -0.374026  -0.645084  0  2.277967  0
O  O187  1  0.61509285  0.41903405  0.35421926  1  -1.177837  0  -0.374127  -0.645214  0  2.277686  0
O  O188  1  0.58096579  0.19605633  0.35421985  1  -1.188156  0  -0.374046  -0.645091  0  2.277993  0
O  O189  1  0.80394463  0.38490928  0.35421941  1  -1.182646  0  -0.374115  -0.645227  0  2.278274  0
O  O190  1  0.23490684  0.46981941  0.75000032  1  -1.099021  0  -0.267653  -0.255581  0  2.760749  0
O  O191  1  0.23491022  0.76509248  0.75000000  1  -1.089311  0  -0.267718  -0.255639  0  2.7609  0
O  O192  1  0.53018264  0.76509331  0.74999918  1  -1.097953  0  -0.267718  -0.255701  0  2.760741  0
O  O193  1  0.76509081  0.53018175  0.75000075  1  -1.098  0  -0.267719  -0.255685  0  2.76083  0
O  O194  1  0.76509029  0.23490995  0.75000045  1  -1.089297  0  -0.267706  -0.25549  0  2.76079  0
O  O195  1  0.46981877  0.23490685  0.74999816  1  -1.099027  0  -0.267676  -0.255579  0  2.760665  0
O  O196  1  0.76509163  0.53018052  0.24999823  1  -1.099079  0  -0.267689  -0.255634  0  2.760801  0
O  O197  1  0.76509139  0.23490980  0.24999979  1  -1.08928  0  -0.267707  -0.255585  0  2.760849  0
O  O198  1  0.46981731  0.23490651  0.24999937  1  -1.098055  0  -0.267701  -0.255635  0  2.760868  0
O  O199  1  0.23490874  0.46981847  0.25000029  1  -1.098079  0  -0.267695  -0.255661  0  2.760861  0
O  O200  1  0.23490926  0.76509027  0.25000121  1  -1.089293  0  -0.267727  -0.255673  0  2.760903  0
O  O201  1  0.53018060  0.76509081  0.24999914  1  -1.099045  0  -0.267708  -0.255572  0  2.760719  0
