# generated using pymatgen
data_AgH19C24(NO2)2
_symmetry_space_group_name_H-M   'P 1'
_cell_length_a   9.69571764
_cell_length_b   9.58463139
_cell_length_c   12.04648698
_cell_angle_alpha   102.91095897
_cell_angle_beta   103.17096747
_cell_angle_gamma   108.64861784
_symmetry_Int_Tables_number   1
_chemical_formula_structural   AgH19C24(NO2)2
_chemical_formula_sum   'Ag2 H38 C48 N4 O8'
_cell_volume   978.08672866
_cell_formula_units_Z   2
loop_
 _symmetry_equiv_pos_site_id
 _symmetry_equiv_pos_as_xyz
  1  'x, y, z'
loop_
 _atom_site_type_symbol
 _atom_site_label
 _atom_site_symmetry_multiplicity
 _atom_site_fract_x
 _atom_site_fract_y
 _atom_site_fract_z
 _atom_site_occupancy
 _atom_site_pbe_bader_spin_density
 _atom_site_pbe_cm5_charge
 _atom_site_pbe_ddec_charge
 _atom_site_pbe_ddec_spin_density
 _atom_site_pbe_ddec_sum_bond_order
 _atom_site_pbe_magmom
Ag  Ag0  1  0.71943641  0.02858629  0.57260942  1  0  0.463538  0.354754  0  1.862292  0
Ag  Ag1  1  0.28056141  0.97140872  0.42739436  1  0  0.463497  0.354687  0  1.862295  0
H  H2  1  0.34471116  0.18873566  0.27498056  1  0  0.288247  0.348813  0  1.002619  0
H  H3  1  0.65529206  0.81126523  0.72501946  1  0  0.288268  0.348819  0  1.00267  0
H  H4  1  0.85463318  0.35606745  0.51591732  1  0  0.104266  0.108443  0  1.022988  0
H  H5  1  0.14536942  0.64393460  0.48408197  1  0  0.104267  0.108471  0  1.023013  0
H  H6  1  0.11422442  0.40177827  0.49493330  1  0  0.101047  0.100497  0  1.043963  0
H  H7  1  0.88577685  0.59822029  0.50506594  1  0  0.101045  0.100491  0  1.04394  0
H  H8  1  0.50128657  0.97186593  0.14710128  1  0  0.098339  0.099907  0  1.05027  0
H  H9  1  0.49871346  0.02813493  0.85289900  1  0  0.098346  0.099915  0  1.050322  0
H  H10  1  0.52469712  0.80832234  0.96733639  1  0  0.098581  0.099352  0  1.022981  0
H  H11  1  0.47530593  0.19168086  0.03266486  1  0  0.098598  0.099355  0  1.022929  0
H  H12  1  0.78241338  0.84817600  0.94675500  1  0  0.09782  0.096784  0  1.026625  0
H  H13  1  0.21758710  0.15182604  0.05324392  1  0  0.097843  0.096817  0  1.026602  0
H  H14  1  0.01671201  0.04611966  0.10682387  1  0  0.09682  0.099017  0  1.076918  0
H  H15  1  0.98329076  0.95388007  0.89317503  1  0  0.096823  0.099034  0  1.0769  0
H  H16  1  0.69984682  0.34470364  0.64565909  1  0  0.116469  0.09686  0  1.043241  0
H  H17  1  0.30015357  0.65529254  0.35434537  1  0  0.116476  0.096846  0  1.043314  0
H  H18  1  0.69748251  0.53144987  0.82201042  1  0  0.10869  0.121623  0  1.007873  0
H  H19  1  0.30251859  0.46855099  0.17799088  1  0  0.108701  0.1216  0  1.007943  0
H  H20  1  0.82819831  0.25990480  0.03719763  1  0  0.103572  0.111182  0  1.039351  0
H  H21  1  0.17180368  0.74009838  0.96280509  1  0  0.103588  0.111194  0  1.039338  0
H  H22  1  0.82644280  0.08430603  0.85128756  1  0  0.113238  0.086176  0  1.048098  0
H  H23  1  0.17355547  0.91569013  0.14871735  1  0  0.113209  0.086139  0  1.04818  0
H  H24  1  0.83472347  0.64333511  0.06281612  1  0  0.097544  0.099159  0  1.001527  0
H  H25  1  0.16527683  0.35666926  0.93718236  1  0  0.097526  0.09913  0  1.001637  0
H  H26  1  0.63946870  0.53117216  0.02607664  1  0  0.098769  0.101828  0  0.976405  0
H  H27  1  0.36052920  0.46882874  0.97391828  1  0  0.098772  0.101828  0  0.976408  0
H  H28  1  0.90264982  0.49893123  0.20277219  1  0  0.097581  0.107097  0  0.970724  0
H  H29  1  0.09734987  0.50107429  0.79722722  1  0  0.097573  0.10709  0  0.97074  0
H  H30  1  0.70552039  0.38049403  0.16538755  1  0  0.095808  0.098432  0  1.00941  0
H  H31  1  0.29447645  0.61950685  0.83460884  1  0  0.095816  0.098439  0  1.009385  0
H  H32  1  0.57387957  0.46330150  0.29770154  1  0  0.106203  0.125464  0  1.03567  0
H  H33  1  0.42611399  0.53669355  0.70229401  1  0  0.106223  0.12547  0  1.035701  0
H  H34  1  0.55284856  0.67606809  0.44560875  1  0  0.120373  0.103998  0  1.007289  0
H  H35  1  0.44715031  0.32392698  0.55438859  1  0  0.120375  0.103926  0  1.007342  0
H  H36  1  0.92149705  0.00913586  0.40933791  1  0  0.106411  0.068857  0  1.062943  0
H  H37  1  0.07850176  0.99086729  0.59066588  1  0  0.106393  0.068849  0  1.06308  0
H  H38  1  0.95944545  0.81231037  0.26232132  1  0  0.09838  0.099599  0  1.056794  0
H  H39  1  0.04054716  0.18769046  0.73767679  1  0  0.09838  0.099609  0  1.056706  0
C  C40  1  0.73386730  0.19213284  0.33895476  1  0  -0.008074  -0.061367  0  3.938193  0
C  C41  1  0.26613334  0.80786689  0.66104293  1  0  -0.008065  -0.061305  0  3.938082  0
C  C42  1  0.86552899  0.29301450  0.43328492  1  0  -0.092112  -0.121148  0  4.020638  0
C  C43  1  0.13447015  0.70698404  0.56671394  1  0  -0.09215  -0.121253  0  4.020846  0
C  C44  1  0.01161767  0.31860986  0.42160884  1  0  -0.087825  -0.093159  0  4.009419  0
C  C45  1  0.98838360  0.68138868  0.57839206  1  0  -0.087765  -0.093054  0  4.00952  0
C  C46  1  0.02997588  0.23830887  0.31871824  1  0  -0.019756  -0.098804  0  3.942629  0
C  C47  1  0.97002778  0.76169320  0.68128041  1  0  -0.01975  -0.098869  0  3.942821  0
C  C48  1  0.89678587  0.12432567  0.22204078  1  0  -0.005036  0.054101  0  3.955833  0
C  C49  1  0.10321539  0.87567292  0.77795515  1  0  -0.005063  0.054105  0  3.956002  0
C  C50  1  0.74648424  0.10283865  0.23245531  1  0  -0.00504  0.042044  0  3.96118  0
C  C51  1  0.25351428  0.89716106  0.76754283  1  0  -0.005096  0.041994  0  3.961223  0
C  C52  1  0.61419015  0.98683383  0.13896670  1  0  -0.090699  -0.123713  0  3.97183  0
C  C53  1  0.38581279  0.01316358  0.86103180  1  0  -0.090708  -0.123769  0  3.971739  0
C  C54  1  0.62703597  0.89560767  0.03906785  1  0  -0.094024  -0.077903  0  4.015454  0
C  C55  1  0.37296680  0.10439205  0.96093271  1  0  -0.09395  -0.077736  0  4.015254  0
C  C56  1  0.77339586  0.91845008  0.02733920  1  0  -0.095029  -0.079241  0  4.02396  0
C  C57  1  0.22660586  0.08154963  0.97266117  1  0  -0.095113  -0.079389  0  4.024097  0
C  C58  1  0.90443446  0.03022465  0.11599070  1  0  -0.102563  -0.152456  0  3.989414  0
C  C59  1  0.09557026  0.96977741  0.88400898  1  0  -0.102505  -0.152403  0  3.989473  0
C  C60  1  0.58065489  0.18090330  0.35337865  1  0  0.213039  0.58446  0  4.186887  0
C  C61  1  0.41934637  0.81909526  0.64661976  1  0  0.213037  0.584499  0  4.186792  0
C  C62  1  0.19359439  0.27811719  0.32065376  1  0  0.219861  0.572633  0  4.157787  0
C  C63  1  0.80641257  0.72189067  0.67934988  1  0  0.219912  0.572798  0  4.157634  0
C  C64  1  0.72885342  0.33011441  0.73393059  1  0  0.041323  0.084673  0  3.941291  0
C  C65  1  0.27114936  0.66988528  0.26607246  1  0  0.041362  0.084721  0  3.941388  0
C  C66  1  0.72783304  0.43441990  0.83386699  1  0  -0.088055  -0.18448  0  3.94285  0
C  C67  1  0.27216762  0.56557976  0.16613733  1  0  -0.088045  -0.184414  0  3.942739  0
C  C68  1  0.76195965  0.41308006  0.94680175  1  0  0.012693  0.164604  0  3.941968  0
C  C69  1  0.23803888  0.58691964  0.05319721  1  0  0.012689  0.164542  0  3.9419  0
C  C70  1  0.80003542  0.28539971  0.95310852  1  0  -0.088956  -0.182929  0  3.929629  0
C  C71  1  0.19996418  0.71459995  0.04689561  1  0  -0.088936  -0.182891  0  3.929712  0
C  C72  1  0.79933863  0.18561476  0.84904225  1  0  0.03808  0.080716  0  3.941858  0
C  C73  1  0.20066035  0.81438607  0.15096116  1  0  0.03804  0.080684  0  3.941834  0
C  C74  1  0.75410809  0.52610584  0.05173619  1  0  -0.152541  -0.191404  0  3.946624  0
C  C75  1  0.24588999  0.47389271  0.94826165  1  0  -0.152503  -0.191333  0  3.94661  0
C  C76  1  0.78519454  0.49617926  0.17306018  1  0  -0.155714  -0.194933  0  3.927115  0
C  C77  1  0.21480275  0.50382278  0.82693733  1  0  -0.155725  -0.194946  0  3.927001  0
C  C78  1  0.76847194  0.61871022  0.26571504  1  0  0.010942  0.167767  0  3.928921  0
C  C79  1  0.23152491  0.38129065  0.73428300  1  0  0.010925  0.167703  0  3.928888  0
C  C80  1  0.65290624  0.58313596  0.31861966  1  0  -0.087161  -0.185992  0  3.914249  0
C  C81  1  0.34709033  0.41686141  0.68137852  1  0  -0.087196  -0.185992  0  3.914259  0
C  C82  1  0.64033669  0.70146234  0.40186026  1  0  0.047325  0.102925  0  3.915382  0
C  C83  1  0.35966051  0.29853388  0.59813782  1  0  0.04729  0.102944  0  3.91525  0
C  C84  1  0.84643035  0.88694876  0.38224836  1  0  0.034296  0.076501  0  3.993118  0
C  C85  1  0.15356243  0.11304974  0.61775101  1  0  0.034262  0.076379  0  3.993142  0
C  C86  1  0.86654040  0.77544572  0.29942780  1  0  -0.092066  -0.191314  0  3.966573  0
C  C87  1  0.13345539  0.22455514  0.70057005  1  0  -0.092033  -0.191195  0  3.966449  0
N  N88  1  0.76289484  0.20545102  0.74024775  1  0  -0.350022  -0.204229  0  3.59237  0
N  N89  1  0.23710555  0.79454517  0.25975506  1  0  -0.350042  -0.204236  0  3.59222  0
N  N90  1  0.73563586  0.85186309  0.43388423  1  0  -0.351634  -0.208603  0  3.60247  0
N  N91  1  0.26435816  0.14813309  0.56611577  1  0  -0.351547  -0.20849  0  3.60224  0
O  O92  1  0.55549082  0.15806165  0.44727074  1  0  -0.317144  -0.538905  0  2.291166  0
O  O93  1  0.44451000  0.84193575  0.55272738  1  0  -0.317162  -0.538959  0  2.291182  0
O  O94  1  0.48854141  0.20010960  0.26834884  1  0  -0.316506  -0.539028  0  2.247074  0
O  O95  1  0.51146075  0.79989129  0.73165016  1  0  -0.316513  -0.539045  0  2.247047  0
O  O96  1  0.29260245  0.41088719  0.37457934  1  0  -0.294971  -0.499666  0  2.136616  0
O  O97  1  0.70740875  0.58912067  0.62542589  1  0  -0.294988  -0.499737  0  2.136633  0
O  O98  1  0.22260157  0.16048264  0.26426647  1  0  -0.334321  -0.528979  0  2.433257  0
O  O99  1  0.77740131  0.83952286  0.73573683  1  0  -0.334382  -0.529076  0  2.433278  0
