# generated using pymatgen
data_U3Ag2H12(C8O13)2
_symmetry_space_group_name_H-M   'P 1'
_cell_length_a   8.83232999
_cell_length_b   9.88193767
_cell_length_c   10.34874937
_cell_angle_alpha   112.52084012
_cell_angle_beta   100.50110183
_cell_angle_gamma   110.11736162
_symmetry_Int_Tables_number   1
_chemical_formula_structural   U3Ag2H12(C8O13)2
_chemical_formula_sum   'U3 Ag2 H12 C16 O26'
_cell_volume   730.32340899
_cell_formula_units_Z   1
loop_
 _symmetry_equiv_pos_site_id
 _symmetry_equiv_pos_as_xyz
  1  'x, y, z'
loop_
 _atom_site_type_symbol
 _atom_site_label
 _atom_site_symmetry_multiplicity
 _atom_site_fract_x
 _atom_site_fract_y
 _atom_site_fract_z
 _atom_site_occupancy
 _atom_site_hle17_bader_spin_density
 _atom_site_hle17_ddec_charge
 _atom_site_hle17_ddec_spin_density
 _atom_site_hle17_ddec_sum_bond_order
 _atom_site_hle17_magmom
 _atom_site_hse06_10hf_bader_spin_density
 _atom_site_hse06_10hf_ddec_charge
 _atom_site_hse06_10hf_ddec_spin_density
 _atom_site_hse06_10hf_ddec_sum_bond_order
 _atom_site_hse06_10hf_magmom
 _atom_site_hse06_bader_spin_density
 _atom_site_hse06_ddec_charge
 _atom_site_hse06_ddec_spin_density
 _atom_site_hse06_ddec_sum_bond_order
 _atom_site_hse06_magmom
 _atom_site_pbe_bader_spin_density
 _atom_site_pbe_cm5_charge
 _atom_site_pbe_ddec_charge
 _atom_site_pbe_ddec_spin_density
 _atom_site_pbe_ddec_sum_bond_order
 _atom_site_pbe_magmom
U  U0  1  0.33212726  0.18910306  0.72580817  1  0  2.543692  0  4.091072  0  0  2.602957  0  4.747338  0  0  2.711871  0  4.707561  0  0  2.203395  2.52629  0  4.775033  0
U  U1  1  0.66787892  0.81089091  0.27419700  1  0  2.543735  0  4.090253  0  0  2.603177  0  4.746409  0  0  2.71205  0  4.706654  0  0  2.203384  2.526453  0  4.774158  0
U  U2  1  0.00000985  0.50000444  0.50001079  1  0  2.470185  0  4.043896  0  0  2.514655  0  4.702723  0  0  2.626809  0  4.664822  0  0  2.153121  2.434723  0  4.73127  0
Ag  Ag3  1  0.35549208  0.84931149  0.90055851  1  0  0.665086  0  1.282908  0  0  0.556739  0  1.71128  0  0  0.590253  0  1.648166  0  0  0.465681  0.53397  0  1.755133  0
Ag  Ag4  1  0.64449684  0.15068031  0.09943753  1  0  0.665119  0  1.283003  0  0  0.556763  0  1.711389  0  0  0.590271  0  1.648275  0  0  0.46566  0.533989  0  1.755227  0
H  H5  1  0.21259647  0.85045590  0.46392811  1  0  0.458817  0  0.826247  0  0  0.434789  0  0.876887  0  0  0.447569  0  0.858438  0  0  0.320411  0.425852  0  0.88975  0
H  H6  1  0.78740535  0.14954811  0.53607441  1  0  0.458868  0  0.826175  0  0  0.434844  0  0.876813  0  0  0.447626  0  0.858361  0  0  0.320436  0.425907  0  0.889677  0
H  H7  1  0.11621344  0.93916413  0.39817592  1  0  0.450819  0  0.832553  0  0  0.428586  0  0.881472  0  0  0.44027  0  0.864608  0  0  0.323213  0.420324  0  0.893371  0
H  H8  1  0.88378483  0.06083496  0.60182520  1  0  0.450863  0  0.832498  0  0  0.428636  0  0.881402  0  0  0.440321  0  0.864537  0  0  0.323244  0.420374  0  0.893302  0
H  H9  1  0.52460360  0.49741823  0.62411777  1  0  0.099792  0  0.917651  0  0  0.10141  0  0.985418  0  0  0.10473  0  0.982252  0  0  0.128309  0.098995  0  0.987869  0
H  H10  1  0.47540088  0.50257959  0.37587798  1  0  0.099904  0  0.917487  0  0  0.101441  0  0.98535  0  0  0.104761  0  0.982186  0  0  0.128301  0.099042  0  0.987786  0
H  H11  1  0.70734583  0.79642804  0.62143135  1  0  0.093473  0  0.908193  0  0  0.098321  0  0.968044  0  0  0.10052  0  0.966628  0  0  0.127823  0.096917  0  0.968771  0
H  H12  1  0.29264976  0.20355878  0.37855702  1  0  0.093579  0  0.908102  0  0  0.098445  0  0.967922  0  0  0.100648  0  0.966495  0  0  0.127862  0.097042  0  0.968652  0
H  H13  1  0.95329368  0.87899375  0.90869802  1  0  0.119174  0  0.958466  0  0  0.1251  0  1.018972  0  0  0.12867  0  1.01706  0  0  0.112607  0.122588  0  1.020459  0
H  H14  1  0.04670119  0.12100790  0.09129971  1  0  0.119154  0  0.958455  0  0  0.12513  0  1.018969  0  0  0.128701  0  1.017058  0  0  0.112611  0.122618  0  1.020454  0
H  H15  1  0.88238997  0.60865785  0.84227479  1  0  0.114444  0  0.881967  0  0  0.127927  0  0.931374  0  0  0.12972  0  0.931076  0  0  0.130792  0.126713  0  0.931667  0
H  H16  1  0.11760738  0.39134864  0.15773286  1  0  0.114512  0  0.881905  0  0  0.127976  0  0.931329  0  0  0.12977  0  0.931032  0  0  0.130789  0.12676  0  0.931617  0
C  C17  1  0.65603643  0.50793383  0.64874626  1  0  0.027367  0  3.606929  0  0  -0.00113  0  3.867445  0  0  0.000933  0  3.872194  0  0  0.01005  -0.002749  0  3.864088  0
C  C18  1  0.34396285  0.49206028  0.35125314  1  0  0.027242  0  3.606937  0  0  -0.001302  0  3.867426  0  0  0.000758  0  3.872183  0  0  0.010044  -0.002928  0  3.864059  0
C  C19  1  0.80344378  0.76452402  0.66835913  1  0  0.056935  0  3.5141  0  0  0.036873  0  3.758011  0  0  0.039135  0  3.762971  0  0  0.021643  0.035311  0  3.7541  0
C  C20  1  0.19655844  0.23547380  0.33163919  1  0  0.056873  0  3.513934  0  0  0.03675  0  3.757977  0  0  0.039007  0  3.762932  0  0  0.021526  0.035174  0  3.754088  0
C  C21  1  0.81904045  0.79724661  0.83123944  1  0  -0.160959  0  3.534595  0  0  -0.171228  0  3.767265  0  0  -0.176864  0  3.776714  0  0  -0.080089  -0.167348  0  3.760799  0
C  C22  1  0.18095558  0.20275501  0.16876037  1  0  -0.160787  0  3.534451  0  0  -0.171287  0  3.767423  0  0  -0.176929  0  3.776875  0  0  -0.080061  -0.167408  0  3.760954  0
C  C23  1  0.76430968  0.62400948  0.81669375  1  0  -0.151982  0  3.583282  0  0  -0.16921  0  3.822429  0  0  -0.174465  0  3.832035  0  0  -0.065091  -0.165668  0  3.815781  0
C  C24  1  0.23568460  0.37599093  0.18330536  1  0  -0.152049  0  3.583453  0  0  -0.169312  0  3.822629  0  0  -0.17457  0  3.832221  0  0  -0.065102  -0.165754  0  3.815968  0
C  C25  1  0.65009582  0.33975601  0.59190875  1  0  0.702708  0  3.795589  0  0  0.665676  0  4.091601  0  0  0.704452  0  4.07772  0  0  0.252926  0.638912  0  4.100111  0
C  C26  1  0.34992505  0.66025645  0.40809395  1  0  0.702619  0  3.796116  0  0  0.665813  0  4.091738  0  0  0.704577  0  4.07787  0  0  0.252999  0.639041  0  4.100269  0
C  C27  1  0.97672534  0.85646174  0.66200952  1  0  0.702784  0  3.807572  0  0  0.66174  0  4.113049  0  0  0.7001  0  4.100654  0  0  0.24998  0.635078  0  4.121043  0
C  C28  1  0.02327603  0.14352491  0.33798736  1  0  0.702847  0  3.807407  0  0  0.661848  0  4.112835  0  0  0.700228  0  4.100398  0  0  0.250044  0.635191  0  4.120812  0
C  C29  1  0.70155672  0.87217473  0.88312547  1  0  0.666379  0  3.871456  0  0  0.615367  0  4.16908  0  0  0.650311  0  4.166396  0  0  0.211277  0.591447  0  4.169955  0
C  C30  1  0.29843580  0.12782448  0.11687099  1  0  0.666309  0  3.871518  0  0  0.615413  0  4.169039  0  0  0.650358  0  4.166352  0  0  0.211297  0.591494  0  4.169908  0
C  C31  1  0.67711715  0.59141485  0.92256327  1  0  0.759994  0  3.752971  0  0  0.731781  0  4.04109  0  0  0.772676  0  4.02731  0  0  0.268129  0.703453  0  4.049571  0
C  C32  1  0.32289271  0.40861004  0.07745411  1  0  0.759745  0  3.752901  0  0  0.731802  0  4.040587  0  0  0.77272  0  4.026765  0  0  0.268129  0.703469  0  4.04908  0
O  O33  1  0.43797405  0.09386315  0.80062726  1  0  -0.724952  0  1.602846  0  0  -0.739448  0  1.921052  0  0  -0.760647  0  1.900279  0  0  -0.757214  -0.727422  0  1.936472  0
O  O34  1  0.56202212  0.90614598  0.19936864  1  0  -0.724966  0  1.602107  0  0  -0.739535  0  1.920286  0  0  -0.760733  0  1.899535  0  0  -0.756976  -0.727489  0  1.935696  0
O  O35  1  0.22058637  0.27407161  0.64150813  1  0  -0.689672  0  1.588047  0  0  -0.703452  0  1.888021  0  0  -0.725872  0  1.874996  0  0  -0.744246  -0.690048  0  1.897319  0
O  O36  1  0.77941260  0.72593371  0.35849158  1  0  -0.689548  0  1.588344  0  0  -0.703367  0  1.888307  0  0  -0.72576  0  1.875281  0  0  -0.744347  -0.689962  0  1.897618  0
O  O37  1  0.12745887  0.54841386  0.68394145  1  0  -0.693799  0  1.618049  0  0  -0.695487  0  1.934024  0  0  -0.716182  0  1.913652  0  0  -0.75331  -0.683553  0  1.949529  0
O  O38  1  0.87254628  0.45158767  0.31605580  1  0  -0.693775  0  1.617457  0  0  -0.695497  0  1.9334  0  0  -0.716194  0  1.913023  0  0  -0.75306  -0.683556  0  1.9489  0
O  O39  1  0.53433964  0.22643467  0.59691759  1  0  -0.623117  0  2.041077  0  0  -0.606388  0  2.295646  0  0  -0.637355  0  2.285766  0  0  -0.336981  -0.583836  0  2.301153  0
O  O40  1  0.46565153  0.77355456  0.40308264  1  0  -0.622958  0  2.04194  0  0  -0.60632  0  2.296401  0  0  -0.637268  0  2.286513  0  0  -0.336935  -0.583766  0  2.301932  0
O  O41  1  0.76992122  0.32225041  0.54478445  1  0  -0.646982  0  2.074692  0  0  -0.613325  0  2.321853  0  0  -0.64725  0  2.312908  0  0  -0.333619  -0.58865  0  2.32659  0
O  O42  1  0.23007940  0.67774855  0.45522470  1  0  -0.647136  0  2.074371  0  0  -0.613519  0  2.321401  0  0  -0.647448  0  2.312466  0  0  -0.333737  -0.588827  0  2.326131  0
O  O43  1  0.02964826  0.00602416  0.69377067  1  0  -0.641256  0  2.03919  0  0  -0.615123  0  2.289144  0  0  -0.645876  0  2.280207  0  0  -0.317175  -0.593039  0  2.294403  0
O  O44  1  0.97035360  0.99398235  0.30622991  1  0  -0.641258  0  2.039458  0  0  -0.615118  0  2.289364  0  0  -0.645878  0  2.280421  0  0  -0.317179  -0.593024  0  2.294602  0
O  O45  1  0.06452460  0.77849149  0.63131286  1  0  -0.660782  0  2.160311  0  0  -0.652431  0  2.460823  0  0  -0.689062  0  2.454863  0  0  -0.358027  -0.626124  0  2.463988  0
O  O46  1  0.93547544  0.22150878  0.36869186  1  0  -0.66092  0  2.160022  0  0  -0.652574  0  2.460499  0  0  -0.689218  0  2.454526  0  0  -0.358083  -0.62626  0  2.463645  0
O  O47  1  0.54037028  0.77522387  0.81940758  1  0  -0.600977  0  2.057715  0  0  -0.533129  0  2.321267  0  0  -0.566069  0  2.31091  0  0  -0.311286  -0.509769  0  2.3273  0
O  O48  1  0.45962632  0.22477902  0.18058893  1  0  -0.60099  0  2.057707  0  0  -0.533144  0  2.321165  0  0  -0.566086  0  2.310812  0  0  -0.311303  -0.509783  0  2.327194  0
O  O49  1  0.77641916  0.02273074  0.98293206  1  0  -0.60295  0  2.082432  0  0  -0.533074  0  2.34577  0  0  -0.565007  0  2.334108  0  0  -0.313302  -0.510782  0  2.353064  0
O  O50  1  0.22357803  0.97727083  0.01707081  1  0  -0.60291  0  2.082489  0  0  -0.53305  0  2.345767  0  0  -0.564983  0  2.334105  0  0  -0.313298  -0.51076  0  2.353059  0
O  O51  1  0.56449724  0.44557855  0.87740028  1  0  -0.665356  0  2.099728  0  0  -0.657743  0  2.371968  0  0  -0.6959  0  2.364475  0  0  -0.368742  -0.629646  0  2.375405  0
O  O52  1  0.43549216  0.55440950  0.12259635  1  0  -0.665134  0  2.100607  0  0  -0.657589  0  2.372681  0  0  -0.695739  0  2.365169  0  0  -0.368648  -0.629497  0  2.376145  0
O  O53  1  0.72838527  0.70946170  0.05290550  1  0  -0.63265  0  2.05634  0  0  -0.621188  0  2.317788  0  0  -0.656013  0  2.30991  0  0  -0.352257  -0.595971  0  2.321853  0
O  O54  1  0.27160458  0.29052523  0.94708014  1  0  -0.632607  0  2.055251  0  0  -0.62124  0  2.316561  0  0  -0.656089  0  2.308681  0  0  -0.352296  -0.59602  0  2.320623  0
O  O55  1  0.74853431  0.59012282  0.57833623  1  0  -0.33763  0  2.270818  0  0  -0.294556  0  2.532721  0  0  -0.313419  0  2.537578  0  0  -0.200338  -0.280523  0  2.527911  0
O  O56  1  0.25147246  0.40987239  0.42166757  1  0  -0.337645  0  2.270788  0  0  -0.294462  0  2.532654  0  0  -0.313323  0  2.537511  0  0  -0.200282  -0.280425  0  2.527838  0
O  O57  1  0.21003210  0.95571214  0.48010150  1  0  -0.863609  0  1.904415  0  0  -0.837826  0  2.091813  0  0  -0.864769  0  2.05892  0  0  -0.611344  -0.818237  0  2.114003  0
O  O58  1  0.78996847  0.04428690  0.51990090  1  0  -0.863662  0  1.904235  0  0  -0.837908  0  2.091647  0  0  -0.864846  0  2.058734  0  0  -0.611356  -0.818306  0  2.113834  0
