# generated using pymatgen
data_DyH9C10(N2O5)2
_symmetry_space_group_name_H-M   'P 1'
_cell_length_a   9.22711717
_cell_length_b   10.89327383
_cell_length_c   14.23000000
_cell_angle_alpha   104.92402601
_cell_angle_beta   90.00000000
_cell_angle_gamma   90.00000000
_symmetry_Int_Tables_number   1
_chemical_formula_structural   DyH9C10(N2O5)2
_chemical_formula_sum   'Dy4 H36 C40 N16 O40'
_cell_volume   1382.06042211
_cell_formula_units_Z   4
loop_
 _symmetry_equiv_pos_site_id
 _symmetry_equiv_pos_as_xyz
  1  'x, y, z'
loop_
 _atom_site_type_symbol
 _atom_site_label
 _atom_site_symmetry_multiplicity
 _atom_site_fract_x
 _atom_site_fract_y
 _atom_site_fract_z
 _atom_site_occupancy
 _atom_site_hle17_bader_spin_density
 _atom_site_hle17_ddec_charge
 _atom_site_hle17_ddec_spin_density
 _atom_site_hle17_ddec_sum_bond_order
 _atom_site_hle17_magmom
 _atom_site_hse06_10hf_bader_spin_density
 _atom_site_hse06_10hf_ddec_charge
 _atom_site_hse06_10hf_ddec_spin_density
 _atom_site_hse06_10hf_ddec_sum_bond_order
 _atom_site_hse06_10hf_magmom
 _atom_site_hse06_bader_spin_density
 _atom_site_hse06_ddec_charge
 _atom_site_hse06_ddec_spin_density
 _atom_site_hse06_ddec_sum_bond_order
 _atom_site_hse06_magmom
 _atom_site_pbe_bader_charge
 _atom_site_pbe_bader_spin_density
 _atom_site_pbe_cm5_charge
 _atom_site_pbe_ddec_charge
 _atom_site_pbe_ddec_spin_density
 _atom_site_pbe_ddec_sum_bond_order
 _atom_site_pbe_magmom
Dy  Dy0  1  0.37240342  0.54223784  0.76479841  1  0  2.205538  0  1.716263  0  0  2.041354  0  2.214316  0  0  2.088273  0  2.172398  0  2.173324  0  1.551485  2.006345  0  2.246567  0
Dy  Dy1  1  0.87240357  0.95776257  0.73520083  1  0  2.20554  0  1.716249  0  0  2.041341  0  2.214329  0  0  2.088255  0  2.172414  0  2.173329  0  1.551485  2.006328  0  2.246585  0
Dy  Dy2  1  0.62759797  0.45776275  0.23520114  1  0  2.205521  0  1.716303  0  0  2.041368  0  2.2143  0  0  2.088283  0  2.172383  0  2.173331  0  1.551491  2.006353  0  2.246557  0
Dy  Dy3  1  0.12759565  0.04223897  0.26479681  1  0  2.205546  0  1.716278  0  0  2.041337  0  2.214385  0  0  2.088248  0  2.172479  0  2.173327  0  1.551486  2.006324  0  2.246639  0
H  H4  1  0.60550981  0.22088057  0.01607487  1  0  0.421812  0  0.848596  0  0  0.388761  0  0.927749  0  0  0.402201  0  0.913191  0  0.655187  0  0.314846  0.379184  0  0.938106  0
H  H5  1  0.10550858  0.27911830  0.48392392  1  0  0.421809  0  0.848598  0  0  0.388767  0  0.927749  0  0  0.402207  0  0.91319  0  0.655194  0  0.314849  0.37919  0  0.938106  0
H  H6  1  0.39448941  0.77911907  0.98392309  1  0  0.421816  0  0.848573  0  0  0.388774  0  0.927735  0  0  0.402215  0  0.913172  0  0.655191  0  0.31484  0.379197  0  0.938092  0
H  H7  1  0.89449281  0.72088230  0.51607352  1  0  0.421811  0  0.848584  0  0  0.38876  0  0.927736  0  0  0.402198  0  0.913182  0  0.655219  0  0.314863  0.379183  0  0.938091  0
H  H8  1  0.10858429  0.18456323  0.92579407  1  0  0.31468  0  0.870723  0  0  0.288785  0  0.94004  0  0  0.297818  0  0.932177  0  0.562642  0  0.33937  0.282263  0  0.945917  0
H  H9  1  0.60858228  0.31543469  0.57420524  1  0  0.314649  0  0.870727  0  0  0.28876  0  0.94005  0  0  0.297791  0  0.932186  0  0.562601  0  0.339363  0.282238  0  0.945927  0
H  H10  1  0.89141710  0.81543641  0.07420389  1  0  0.31464  0  0.870718  0  0  0.288764  0  0.94003  0  0  0.297797  0  0.932166  0  0.562613  0  0.339372  0.282243  0  0.945906  0
H  H11  1  0.39141803  0.68456590  0.42579431  1  0  0.314639  0  0.870761  0  0  0.288744  0  0.940082  0  0  0.297772  0  0.932223  0  0.562579  0  0.339355  0.282222  0  0.945959  0
H  H12  1  0.09383754  0.30549248  0.73129644  1  0  0.301112  0  0.93734  0  0  0.270626  0  1.013261  0  0  0.281038  0  1.00446  0  0.5724  0  0.320911  0.263311  0  1.019468  0
H  H13  1  0.59383661  0.19450544  0.76870427  1  0  0.301183  0  0.937236  0  0  0.270627  0  1.01326  0  0  0.281039  0  1.004461  0  0.572114  0  0.320915  0.263311  0  1.019468  0
H  H14  1  0.90616168  0.69450811  0.26870311  1  0  0.3011  0  0.937391  0  0  0.270665  0  1.01325  0  0  0.281077  0  1.00445  0  0.57242  0  0.320922  0.263347  0  1.019457  0
H  H15  1  0.40616153  0.80549325  0.23129561  1  0  0.301156  0  0.937326  0  0  0.270587  0  1.013361  0  0  0.280999  0  1.004564  0  0.572104  0  0.320896  0.263272  0  1.019568  0
H  H16  1  0.44410512  0.91003709  0.84267092  1  0  0.159059  0  0.945772  0  0  0.163153  0  1.011397  0  0  0.168022  0  1.007743  0  0.204455  0  0.122414  0.159718  0  1.014016  0
H  H17  1  0.94410311  0.58996143  0.65732795  1  0  0.159118  0  0.945724  0  0  0.163205  0  1.011369  0  0  0.168077  0  1.007707  0  0.204494  0  0.122391  0.159765  0  1.013997  0
H  H18  1  0.55589627  0.08996446  0.15732531  1  0  0.159096  0  0.945697  0  0  0.163173  0  1.011354  0  0  0.168044  0  1.007693  0  0.204463  0  0.122428  0.159738  0  1.013976  0
H  H19  1  0.05589937  0.41003632  0.34267105  1  0  0.159108  0  0.945757  0  0  0.163228  0  1.011355  0  0  0.168099  0  1.007694  0  0.20451  0  0.122418  0.159792  0  1.013976  0
H  H20  1  0.83880586  0.55839525  0.94939353  1  0  0.153643  0  0.944727  0  0  0.160272  0  1.005612  0  0  0.164537  0  1.002916  0  0.16853  0  0.119667  0.157154  0  1.007721  0
H  H21  1  0.33880463  0.94160421  0.55060552  1  0  0.153651  0  0.944715  0  0  0.160281  0  1.005598  0  0  0.164546  0  1.002904  0  0.168902  0  0.119667  0.157164  0  1.007705  0
H  H22  1  0.16119336  0.44160344  0.05060565  1  0  0.153686  0  0.944675  0  0  0.160315  0  1.005557  0  0  0.16458  0  1.002864  0  0.168906  0  0.119669  0.157198  0  1.007663  0
H  H23  1  0.66119351  0.05839733  0.44939281  1  0  0.153658  0  0.944669  0  0  0.16028  0  1.005565  0  0  0.164546  0  1.00287  0  0.16895  0  0.119666  0.157164  0  1.007671  0
H  H24  1  0.34610702  0.39039415  0.55885342  1  0  0.43658  0  0.869365  0  0  0.401842  0  0.937729  0  0  0.41406  0  0.920154  0  0.650841  0  0.293084  0.393221  0  0.950147  0
H  H25  1  0.84610825  0.10960377  0.94114659  1  0  0.43653  0  0.869393  0  0  0.401766  0  0.937783  0  0  0.41398  0  0.920215  0  0.650853  0  0.293055  0.393145  0  0.950199  0
H  H26  1  0.65389329  0.60960359  0.44114627  1  0  0.436506  0  0.869434  0  0  0.40173  0  0.937843  0  0  0.413944  0  0.920276  0  0.650859  0  0.293022  0.393109  0  0.950259  0
H  H27  1  0.15388663  0.89040157  0.05885109  1  0  0.436657  0  0.869229  0  0  0.40191  0  0.937593  0  0  0.414125  0  0.920025  0  0.650645  0  0.293129  0.393288  0  0.95001  0
H  H28  1  0.20563736  0.47841006  0.58230266  1  0  0.437875  0  0.837738  0  0  0.412611  0  0.896668  0  0  0.421755  0  0.883099  0  0.632177  0  0.314085  0.405874  0  0.906751  0
H  H29  1  0.70563751  0.02158881  0.91769683  1  0  0.43787  0  0.837749  0  0  0.412607  0  0.896674  0  0  0.421751  0  0.883107  0  0.632176  0  0.314092  0.40587  0  0.906757  0
H  H30  1  0.79436403  0.52158958  0.41769741  1  0  0.437869  0  0.837721  0  0  0.412602  0  0.896675  0  0  0.421746  0  0.883107  0  0.632161  0  0.314084  0.405865  0  0.906757  0
H  H31  1  0.29435846  0.97841273  0.08230080  1  0  0.437891  0  0.837755  0  0  0.412622  0  0.896666  0  0  0.421764  0  0.883103  0  0.632182  0  0.31409  0.405886  0  0.906748  0
H  H32  1  0.58458995  0.42869329  0.87430006  1  0  0.445937  0  0.851195  0  0  0.412578  0  0.917647  0  0  0.424033  0  0.901009  0  0.652679  0  0.298388  0.404473  0  0.92938  0
H  H33  1  0.08459088  0.07130558  0.62570014  1  0  0.445932  0  0.851182  0  0  0.412566  0  0.917645  0  0  0.42402  0  0.901009  0  0.65274  0  0.29838  0.404462  0  0.929376  0
H  H34  1  0.41540819  0.57130540  0.12570052  1  0  0.445921  0  0.851214  0  0  0.412565  0  0.917663  0  0  0.424019  0  0.901026  0  0.652735  0  0.298394  0.404459  0  0.929397  0
H  H35  1  0.91541159  0.92869216  0.37429745  1  0  0.445898  0  0.851232  0  0  0.412555  0  0.917661  0  0  0.424007  0  0.901026  0  0.652681  0  0.29837  0.40445  0  0.929394  0
H  H36  1  0.55567301  0.57261076  0.93606188  1  0  0.440211  0  0.857248  0  0  0.409258  0  0.919903  0  0  0.4203  0  0.903778  0  0.643022  0  0.300373  0.401518  0  0.931165  0
H  H37  1  0.05567286  0.92738870  0.56393647  1  0  0.440198  0  0.857269  0  0  0.409242  0  0.919928  0  0  0.420284  0  0.903804  0  0.642997  0  0.300375  0.401503  0  0.931189  0
H  H38  1  0.44432621  0.42738793  0.06393730  1  0  0.440216  0  0.857243  0  0  0.409256  0  0.91991  0  0  0.420297  0  0.903786  0  0.642732  0  0.300374  0.401515  0  0.931173  0
H  H39  1  0.94432961  0.07260809  0.43606093  1  0  0.440261  0  0.857186  0  0  0.409298  0  0.919857  0  0  0.420339  0  0.903732  0  0.642766  0  0.300403  0.401561  0  0.931115  0
C  C40  1  0.16441213  0.79476535  0.73896136  1  0  0.707529  0  3.89215  0  0  0.659069  0  4.185643  0  0  0.694755  0  4.172781  0  1.645426  0  0.237879  0.635121  0  4.193126  0
C  C41  1  0.66441120  0.70523221  0.76103661  1  0  0.707477  0  3.8921  0  0  0.659056  0  4.185589  0  0  0.694742  0  4.172723  0  1.645414  0  0.237881  0.635108  0  4.193073  0
C  C42  1  0.83558601  0.20523429  0.26103660  1  0  0.707431  0  3.892185  0  0  0.659005  0  4.185661  0  0  0.69469  0  4.172792  0  1.645405  0  0.237847  0.635056  0  4.193143  0
C  C43  1  0.33559561  0.29476838  0.23896153  1  0  0.707449  0  3.891902  0  0  0.658921  0  4.185552  0  0  0.694605  0  4.172689  0  1.645419  0  0.237809  0.634972  0  4.193031  0
C  C44  1  0.21077114  0.91834142  0.80459132  1  0  0.030657  0  3.750785  0  0  0.031639  0  4.013352  0  0  0.03  0  4.030211  0  0.460862  0  0.096448  0.032737  0  4.001586  0
C  C45  1  0.71077021  0.58165614  0.69540877  1  0  0.030709  0  3.750811  0  0  0.031627  0  4.01345  0  0  0.029987  0  4.030311  0  0.460832  0  0.096463  0.032727  0  4.001682  0
C  C46  1  0.78922808  0.08165917  0.19540824  1  0  0.03069  0  3.750783  0  0  0.031624  0  4.013383  0  0  0.029986  0  4.030238  0  0.460386  0  0.096467  0.032724  0  4.001615  0
C  C47  1  0.28923227  0.41834065  0.30459215  1  0  0.030691  0  3.750775  0  0  0.031629  0  4.013471  0  0  0.029991  0  4.030329  0  0.460883  0  0.096493  0.03273  0  4.001701  0
C  C48  1  0.34318303  0.96260684  0.84954800  1  0  -0.146433  0  3.620691  0  0  -0.191213  0  3.89564  0  0  -0.192975  0  3.912548  0  0.000817  0  -0.080393  -0.189687  0  3.883909  0
C  C49  1  0.84318318  0.53739167  0.65045157  1  0  -0.14652  0  3.620622  0  0  -0.191275  0  3.895573  0  0  -0.193038  0  3.91248  0  0.000881  0  -0.080362  -0.189745  0  3.883836  0
C  C50  1  0.65681728  0.03739375  0.15044874  1  0  -0.146442  0  3.620641  0  0  -0.191177  0  3.895576  0  0  -0.192935  0  3.912482  0  0.001268  0  -0.080401  -0.189651  0  3.883841  0
C  C51  1  0.15682146  0.46260797  0.34954850  1  0  -0.146499  0  3.620673  0  0  -0.191292  0  3.895651  0  0  -0.193053  0  3.912554  0  0.000853  0  -0.080388  -0.189763  0  3.883911  0
C  C52  1  0.31426500  0.08658705  0.90318932  1  0  0.032454  0  3.699673  0  0  0.018518  0  3.968557  0  0  0.017061  0  3.985925  0  0.332172  0  0.094333  0.019732  0  3.956612  0
C  C53  1  0.81426299  0.41341087  0.59680858  1  0  0.032457  0  3.699611  0  0  0.018524  0  3.968506  0  0  0.017072  0  3.985865  0  0.332053  0  0.094252  0.019741  0  3.956558  0
C  C54  1  0.68573639  0.91341544  0.09680709  1  0  0.032371  0  3.699741  0  0  0.018405  0  3.968644  0  0  0.016941  0  3.986017  0  0.332013  0  0.094273  0.01962  0  3.956701  0
C  C55  1  0.18573840  0.58658687  0.40318971  1  0  0.03241  0  3.699743  0  0  0.018488  0  3.968595  0  0  0.01703  0  3.98596  0  0.332211  0  0.094234  0.019702  0  3.956651  0
C  C56  1  0.40554595  0.18824560  0.96265427  1  0  0.662588  0  3.814507  0  0  0.607073  0  4.119333  0  0  0.641586  0  4.107733  0  1.579585  0  0.249266  0.583298  0  4.1271  0
C  C57  1  0.90554394  0.31175137  0.53734415  1  0  0.662524  0  3.81456  0  0  0.607021  0  4.119388  0  0  0.641535  0  4.107782  0  1.579759  0  0.249187  0.583248  0  4.127156  0
C  C58  1  0.59445544  0.81175404  0.03734369  1  0  0.66257  0  3.81459  0  0  0.607158  0  4.119301  0  0  0.641675  0  4.107693  0  1.579771  0  0.249308  0.583379  0  4.127074  0
C  C59  1  0.09445745  0.68824732  0.46265433  1  0  0.66248  0  3.814541  0  0  0.606984  0  4.119351  0  0  0.641501  0  4.107751  0  1.579582  0  0.249188  0.583209  0  4.12712  0
C  C60  1  0.13891446  0.68215659  0.94090822  1  0  0.664884  0  3.882683  0  0  0.610127  0  4.184407  0  0  0.644586  0  4.174398  0  1.570373  0  0.229632  0.586829  0  4.190288  0
C  C61  1  0.63891678  0.81784573  0.55908999  1  0  0.664769  0  3.882835  0  0  0.609998  0  4.184554  0  0  0.644457  0  4.174546  0  1.570384  0  0.229535  0.586701  0  4.190428  0
C  C62  1  0.86108585  0.31784496  0.05909153  1  0  0.664953  0  3.882701  0  0  0.610169  0  4.184469  0  0  0.644629  0  4.174457  0  1.570362  0  0.229638  0.586871  0  4.190348  0
C  C63  1  0.36108461  0.18215676  0.44090853  1  0  0.664851  0  3.882757  0  0  0.610093  0  4.184503  0  0  0.644553  0  4.174493  0  1.570391  0  0.229619  0.586797  0  4.19038  0
C  C64  1  0.05988111  0.56733327  0.88647610  1  0  0.043781  0  3.780907  0  0  0.042939  0  4.045261  0  0  0.04207  0  4.062483  0  0.46416  0  0.091186  0.043668  0  4.033145  0
C  C65  1  0.55988126  0.93266809  0.61352473  1  0  0.043779  0  3.781064  0  0  0.042976  0  4.045352  0  0  0.042107  0  4.062573  0  0.464193  0  0.091218  0.043712  0  4.033223  0
C  C66  1  0.94011811  0.43266732  0.11352486  1  0  0.043787  0  3.780981  0  0  0.042951  0  4.045337  0  0  0.042082  0  4.062556  0  0.464171  0  0.091219  0.04368  0  4.033216  0
C  C67  1  0.44011796  0.06733345  0.38647361  1  0  0.043823  0  3.780926  0  0  0.042931  0  4.045348  0  0  0.042062  0  4.062569  0  0.464194  0  0.091177  0.043659  0  4.03323  0
C  C68  1  0.92344552  0.51571736  0.89866690  1  0  -0.174994  0  3.636057  0  0  -0.211889  0  3.901343  0  0  -0.215578  0  3.919375  0  -0.016661  0  -0.086955  -0.20915  0  3.888956  0
C  C69  1  0.42344537  0.98428306  0.60133374  1  0  -0.174989  0  3.636102  0  0  -0.211901  0  3.90138  0  0  -0.215589  0  3.919415  0  -0.017005  0  -0.086946  -0.209162  0  3.888989  0
C  C70  1  0.07655370  0.48428419  0.10133425  1  0  -0.175037  0  3.636059  0  0  -0.211927  0  3.901335  0  0  -0.215616  0  3.919369  0  -0.016964  0  -0.086942  -0.209185  0  3.888943  0
C  C71  1  0.57655169  0.01571753  0.39866511  1  0  -0.174978  0  3.636051  0  0  -0.211857  0  3.901344  0  0  -0.215547  0  3.919377  0  -0.017009  0  -0.086932  -0.209115  0  3.888953  0
C  C72  1  0.92392454  0.39555194  0.83309937  1  0  0.045785  0  3.69641  0  0  0.032673  0  3.963045  0  0  0.032752  0  3.980612  0  0.391995  0  0.093368  0.032171  0  3.951513  0
C  C73  1  0.42392547  0.10444788  0.66690172  1  0  0.045748  0  3.696453  0  0  0.032649  0  3.963078  0  0  0.032724  0  3.98065  0  0.391751  0  0.093345  0.032144  0  3.951542  0
C  C74  1  0.07607360  0.60444865  0.16690159  1  0  0.04576  0  3.696344  0  0  0.032651  0  3.962982  0  0  0.032729  0  3.98055  0  0.391753  0  0.093349  0.032143  0  3.951445  0
C  C75  1  0.57607267  0.89555271  0.33309713  1  0  0.045714  0  3.696408  0  0  0.032607  0  3.963006  0  0  0.032688  0  3.980568  0  0.391773  0  0.093358  0.032101  0  3.951469  0
C  C76  1  0.82317910  0.28576671  0.81270900  1  0  0.67375  0  3.91102  0  0  0.617519  0  4.220632  0  0  0.652615  0  4.20894  0  1.62226  0  0.227199  0.593661  0  4.227867  0
C  C77  1  0.32318003  0.21423216  0.68729050  1  0  0.673757  0  3.91101  0  0  0.617487  0  4.220687  0  0  0.652583  0  4.208997  0  1.62225  0  0.227188  0.59364  0  4.227903  0
C  C78  1  0.17682121  0.71423293  0.18728826  1  0  0.673774  0  3.911122  0  0  0.617557  0  4.220717  0  0  0.652651  0  4.209028  0  1.622283  0  0.227189  0.593715  0  4.227926  0
C  C79  1  0.67682028  0.78576938  0.31270925  1  0  0.673702  0  3.911065  0  0  0.617467  0  4.220703  0  0  0.652561  0  4.209014  0  1.622252  0  0.227166  0.593622  0  4.227911  0
N  N80  1  0.17145875  0.10959902  0.88841621  1  0  -0.104872  0  3.445003  0  0  -0.048274  0  3.681828  0  0  -0.057601  0  3.697856  0  -0.789055  0  -0.240973  -0.042035  0  3.671101  0
N  N81  1  0.67145782  0.39039890  0.61158240  1  0  -0.104798  0  3.44499  0  0  -0.048245  0  3.681861  0  0  -0.057571  0  3.697887  0  -0.78909  0  -0.240919  -0.042007  0  3.671135  0
N  N82  1  0.82854047  0.89040062  0.11158035  1  0  -0.104702  0  3.44489  0  0  -0.048182  0  3.681794  0  0  -0.057505  0  3.697818  0  -0.789056  0  -0.240954  -0.041944  0  3.671067  0
N  N83  1  0.32854465  0.60960169  0.38841715  1  0  -0.104757  0  3.445005  0  0  -0.048158  0  3.681803  0  0  -0.057482  0  3.697832  0  -0.789058  0  -0.240849  -0.04192  0  3.671075  0
N  N84  1  0.10771620  0.00942254  0.82962152  1  0  -0.289903  0  3.096111  0  0  -0.268094  0  3.372246  0  0  -0.273852  0  3.38809  0  -0.677087  0  -0.275519  -0.263821  0  3.361733  0
N  N85  1  0.60771419  0.49057633  0.67037797  1  0  -0.28996  0  3.096123  0  0  -0.26812  0  3.372285  0  0  -0.27388  0  3.388129  0  -0.677167  0  -0.275553  -0.263847  0  3.361772  0
N  N86  1  0.89228411  0.99057710  0.17037714  1  0  -0.289965  0  3.096029  0  0  -0.268105  0  3.372183  0  0  -0.273861  0  3.388022  0  -0.677083  0  -0.275519  -0.263831  0  3.361668  0
N  N87  1  0.39228720  0.50942236  0.32962051  1  0  -0.289942  0  3.096208  0  0  -0.268117  0  3.37236  0  0  -0.273879  0  3.388205  0  -0.677183  0  -0.275573  -0.263842  0  3.361844  0
N  N88  1  0.13535647  0.48527508  0.81605033  1  0  -0.348555  0  3.202501  0  0  -0.323186  0  3.483853  0  0  -0.329923  0  3.499456  0  -0.71354  0  -0.322537  -0.318196  0  3.472868  0
N  N89  1  0.63535662  0.01472474  0.68395146  1  0  -0.348589  0  3.202521  0  0  -0.323236  0  3.483843  0  0  -0.329973  0  3.499444  0  -0.713584  0  -0.322585  -0.318247  0  3.472857  0
N  N90  1  0.86464059  0.51472456  0.18395044  1  0  -0.348612  0  3.20256  0  0  -0.323247  0  3.48393  0  0  -0.329981  0  3.499531  0  -0.713613  0  -0.322598  -0.318254  0  3.472943  0
N  N91  1  0.36464152  0.98527490  0.31604791  1  0  -0.348603  0  3.202593  0  0  -0.323221  0  3.483918  0  0  -0.329956  0  3.499523  0  -0.713619  0  -0.322561  -0.318228  0  3.472933  0
N  N92  1  0.05277488  0.38309781  0.78540161  1  0  -0.117671  0  3.491373  0  0  -0.060136  0  3.726584  0  0  -0.070514  0  3.744052  0  -0.805332  0  -0.250312  -0.053335  0  3.715106  0
N  N93  1  0.55277395  0.11690011  0.71459981  1  0  -0.117661  0  3.491304  0  0  -0.060077  0  3.726519  0  0  -0.070454  0  3.743987  0  -0.80484  0  -0.250297  -0.053276  0  3.715042  0
N  N94  1  0.94722326  0.61690183  0.21459917  1  0  -0.117602  0  3.491326  0  0  -0.060122  0  3.726542  0  0  -0.070502  0  3.744009  0  -0.80514  0  -0.250311  -0.053318  0  3.715065  0
N  N95  1  0.44722419  0.88309953  0.28539956  1  0  -0.117652  0  3.491395  0  0  -0.060036  0  3.726577  0  0  -0.070415  0  3.744046  0  -0.804855  0  -0.250283  -0.053235  0  3.715097  0
O  O96  1  0.24839828  0.70027393  0.72178994  1  0  -0.710484  0  2.073174  0  0  -0.658023  0  2.332321  0  0  -0.683228  0  2.320593  0  -1.210539  0  -0.410561  -0.640285  0  2.339355  0
O  O97  1  0.74839735  0.79972553  0.77820840  1  0  -0.710457  0  2.073087  0  0  -0.658017  0  2.332246  0  0  -0.683221  0  2.32052  0  -1.210481  0  -0.410549  -0.640278  0  2.339282  0
O  O98  1  0.75160203  0.29972571  0.27821013  1  0  -0.71045  0  2.073231  0  0  -0.658  0  2.332364  0  0  -0.683203  0  2.320642  0  -1.210529  0  -0.410543  -0.640267  0  2.339413  0
O  O99  1  0.25160621  0.20027316  0.22179007  1  0  -0.710415  0  2.072972  0  0  -0.657909  0  2.332141  0  0  -0.683131  0  2.320467  0  -1.210617  0  -0.410527  -0.640187  0  2.339215  0
O  O100  1  0.03684033  0.79134329  0.70421783  1  0  -0.71217  0  2.055177  0  0  -0.663488  0  2.310928  0  0  -0.6885  0  2.300099  0  -1.174243  0  -0.394059  -0.646334  0  2.317603  0
O  O101  1  0.53684156  0.70865522  0.79578314  1  0  -0.712125  0  2.055147  0  0  -0.663448  0  2.310865  0  0  -0.688469  0  2.300056  0  -1.174221  0  -0.394077  -0.646302  0  2.317543  0
O  O102  1  0.96315890  0.20865540  0.29578275  1  0  -0.712124  0  2.055095  0  0  -0.663455  0  2.310835  0  0  -0.688484  0  2.300057  0  -1.174198  0  -0.394073  -0.646303  0  2.317512  0
O  O103  1  0.46316416  0.29134442  0.20421834  1  0  -0.712138  0  2.055093  0  0  -0.663443  0  2.310915  0  0  -0.688451  0  2.300087  0  -1.174178  0  -0.394076  -0.646289  0  2.317591  0
O  O104  1  0.27447034  0.68647454  0.91917482  1  0  -0.703087  0  2.033277  0  0  -0.641976  0  2.276324  0  0  -0.668383  0  2.267005  0  -1.17708  0  -0.346897  -0.623325  0  2.281932  0
O  O105  1  0.77447266  0.81352968  0.58082306  1  0  -0.703002  0  2.033191  0  0  -0.64188  0  2.276237  0  0  -0.668285  0  2.266923  0  -1.177081  0  -0.346809  -0.623227  0  2.281843  0
O  O106  1  0.72552888  0.31352510  0.08082385  1  0  -0.703125  0  2.033237  0  0  -0.641993  0  2.276281  0  0  -0.668404  0  2.266971  0  -1.177057  0  -0.346881  -0.62334  0  2.281887  0
O  O107  1  0.22552764  0.18647472  0.41917443  1  0  -0.703024  0  2.033214  0  0  -0.64193  0  2.276287  0  0  -0.668334  0  2.26697  0  -1.177099  0  -0.346887  -0.623284  0  2.281911  0
O  O108  1  0.07217747  0.76474110  0.00476663  1  0  -0.593138  0  1.994253  0  0  -0.534158  0  2.210731  0  0  -0.558456  0  2.200469  0  -1.187834  0  -0.288303  -0.517125  0  2.217427  0
O  O109  1  0.57217979  0.73525932  0.49523261  1  0  -0.593098  0  1.994328  0  0  -0.534099  0  2.210802  0  0  -0.558392  0  2.200538  0  -1.187809  0  -0.288308  -0.517068  0  2.217498  0
O  O110  1  0.92782175  0.23525855  0.99523414  1  0  -0.59315  0  1.994307  0  0  -0.534162  0  2.210814  0  0  -0.55846  0  2.200553  0  -1.187838  0  -0.288325  -0.517129  0  2.217509  0
O  O111  1  0.42782051  0.26474032  0.50476606  1  0  -0.593146  0  1.994388  0  0  -0.534144  0  2.21085  0  0  -0.558439  0  2.200582  0  -1.187822  0  -0.288308  -0.51711  0  2.217545  0
O  O112  1  0.69254133  0.30323517  0.84135317  1  0  -0.601971  0  2.014622  0  0  -0.541158  0  2.235553  0  0  -0.565357  0  2.224765  0  -1.1804  0  -0.293639  -0.524261  0  2.242517  0
O  O113  1  0.19254009  0.19676370  0.65864773  1  0  -0.601913  0  2.014615  0  0  -0.54112  0  2.235572  0  0  -0.565317  0  2.224785  0  -1.180398  0  -0.293621  -0.524231  0  2.242541  0
O  O114  1  0.30745789  0.69676352  0.15864741  1  0  -0.601857  0  2.014701  0  0  -0.541045  0  2.235635  0  0  -0.565241  0  2.224848  0  -1.180406  0  -0.293558  -0.524159  0  2.242603  0
O  O115  1  0.80745805  0.80323689  0.34135112  1  0  -0.60188  0  2.014658  0  0  -0.541125  0  2.235592  0  0  -0.56532  0  2.224803  0  -1.180375  0  -0.293616  -0.524249  0  2.242586  0
O  O116  1  0.87732602  0.18007712  0.76628420  1  0  -0.722702  0  2.046611  0  0  -0.676302  0  2.319386  0  0  -0.700851  0  2.308622  0  -1.201109  0  -0.397788  -0.659081  0  2.326264  0
O  O117  1  0.37732587  0.31992175  0.73371460  1  0  -0.722673  0  2.046625  0  0  -0.676256  0  2.31941  0  0  -0.700804  0  2.308646  0  -1.20108  0  -0.397756  -0.659038  0  2.326281  0
O  O118  1  0.12267212  0.81992442  0.23371203  1  0  -0.7228  0  2.046622  0  0  -0.676397  0  2.319391  0  0  -0.700944  0  2.308627  0  -1.201078  0  -0.397828  -0.659183  0  2.326264  0
O  O119  1  0.62267227  0.68007789  0.26628477  1  0  -0.722672  0  2.046622  0  0  -0.676281  0  2.319392  0  0  -0.700829  0  2.308631  0  -1.201084  0  -0.397756  -0.659062  0  2.326263  0
O  O120  1  0.35759598  0.29708364  0.99415446  1  0  -0.536386  0  1.963167  0  0  -0.484579  0  2.171964  0  0  -0.50488  0  2.161225  0  -1.149861  0  -0.264014  -0.470882  0  2.17937  0
O  O121  1  0.85759396  0.20291428  0.50584274  1  0  -0.536328  0  1.963263  0  0  -0.484507  0  2.172023  0  0  -0.504816  0  2.1613  0  -1.149938  0  -0.263935  -0.470816  0  2.179431  0
O  O122  1  0.64240541  0.70291696  0.00584158  1  0  -0.536387  0  1.963217  0  0  -0.48463  0  2.171975  0  0  -0.504943  0  2.161252  0  -1.149896  0  -0.264049  -0.470926  0  2.179381  0
O  O123  1  0.14240851  0.79708441  0.49415433  1  0  -0.536298  0  1.963136  0  0  -0.484534  0  2.171944  0  0  -0.504837  0  2.161203  0  -1.1499  0  -0.263967  -0.470836  0  2.179352  0
O  O124  1  0.53911963  0.15050033  0.97610811  1  0  -0.552823  0  2.126184  0  0  -0.496112  0  2.355166  0  0  -0.518994  0  2.338753  0  -1.162387  0  -0.312295  -0.480208  0  2.366747  0
O  O125  1  0.03911839  0.34949949  0.52389087  1  0  -0.552822  0  2.126176  0  0  -0.496126  0  2.35516  0  0  -0.519006  0  2.338744  0  -1.162376  0  -0.312276  -0.480219  0  2.366739  0
O  O126  1  0.46088176  0.84949931  0.02388985  1  0  -0.552807  0  2.126221  0  0  -0.496149  0  2.355157  0  0  -0.519023  0  2.338733  0  -1.162375  0  -0.312271  -0.480243  0  2.36674  0
O  O127  1  0.96088191  0.65050016  0.47610780  1  0  -0.552798  0  2.126215  0  0  -0.496077  0  2.355181  0  0  -0.518962  0  2.33877  0  -1.162378  0  -0.312273  -0.480173  0  2.36676  0
O  O128  1  0.30736252  0.47438472  0.59967422  1  0  -0.924859  0  1.897419  0  0  -0.880534  0  2.103979  0  0  -0.898695  0  2.071638  0  -1.266091  0  -0.658014  -0.867254  0  2.127103  0
O  O129  1  0.80736267  0.02561320  0.90032509  1  0  -0.924791  0  1.897424  0  0  -0.880432  0  2.104048  0  0  -0.89859  0  2.071707  0  -1.266144  0  -0.657988  -0.867153  0  2.127175  0
O  O130  1  0.69263887  0.52561302  0.40032618  1  0  -0.924749  0  1.897429  0  0  -0.880392  0  2.104073  0  0  -0.898552  0  2.071735  0  -1.266119  0  -0.657932  -0.867111  0  2.127199  0
O  O131  1  0.19263221  0.97439309  0.09966996  1  0  -0.924929  0  1.897317  0  0  -0.880593  0  2.103914  0  0  -0.898749  0  2.071574  0  -1.265949  0  -0.658064  -0.86731  0  2.127036  0
O  O132  1  0.51253169  0.49955900  0.88735339  1  0  -0.937938  0  1.885196  0  0  -0.889738  0  2.095705  0  0  -0.909728  0  2.062689  0  -1.271694  0  -0.671677  -0.87535  0  2.118185  0
O  O133  1  0.01253263  0.00043892  0.61264591  1  0  -0.937922  0  1.885181  0  0  -0.889709  0  2.095699  0  0  -0.9097  0  2.062684  0  -1.271745  0  -0.671669  -0.875337  0  2.118209  0
O  O134  1  0.48746644  0.50043969  0.11264719  1  0  -0.937911  0  1.88519  0  0  -0.889715  0  2.095691  0  0  -0.909705  0  2.062678  0  -1.271411  0  -0.671678  -0.87534  0  2.118201  0
O  O135  1  0.98746985  0.99955882  0.38735167  1  0  -0.937937  0  1.885177  0  0  -0.889745  0  2.095687  0  0  -0.90973  0  2.06268  0  -1.271404  0  -0.671671  -0.875352  0  2.118163  0
