# generated using pymatgen
data_KCu4H59C26S4(N2O11)2
_symmetry_space_group_name_H-M   'P 1'
_cell_length_a   13.43967525
_cell_length_b   13.43963125
_cell_length_c   14.34549982
_cell_angle_alpha   104.90896407
_cell_angle_beta   104.90936769
_cell_angle_gamma   97.15927309
_symmetry_Int_Tables_number   1
_chemical_formula_structural   KCu4H59C26S4(N2O11)2
_chemical_formula_sum   'K2 Cu8 H118 C52 S8 N8 O44'
_cell_volume   2368.55979963
_cell_formula_units_Z   2
loop_
 _symmetry_equiv_pos_site_id
 _symmetry_equiv_pos_as_xyz
  1  'x, y, z'
loop_
 _atom_site_type_symbol
 _atom_site_label
 _atom_site_symmetry_multiplicity
 _atom_site_fract_x
 _atom_site_fract_y
 _atom_site_fract_z
 _atom_site_occupancy
 _atom_site_pbe_bader_charge
 _atom_site_pbe_bader_spin_density
 _atom_site_pbe_cm5_charge
 _atom_site_pbe_ddec_charge
 _atom_site_pbe_ddec_spin_density
 _atom_site_pbe_ddec_sum_bond_order
 _atom_site_pbe_magmom
K  K0  1  0.47192134  0.46184272  0.15146663  1  0.895012  0.000411  0.798241  0.889502  0.000356  0.653747  0.0
K  K1  1  0.46184848  0.47192078  0.65147309  1  0.895008  0.000411  0.798222  0.889497  0.000357  0.653778  0.0
Cu  Cu2  1  0.95869739  0.64265080  0.34500014  1  1.06255  0.569661  0.703747  0.809115  0.723824  2.162853  0.569
Cu  Cu3  1  0.64265037  0.95869860  0.84500095  1  1.062537  0.56966  0.703739  0.809056  0.723823  2.162927  0.569
Cu  Cu4  1  0.06932556  0.77885122  0.22462878  1  1.068512  0.580095  0.698085  0.796028  0.739244  2.210117  0.578
Cu  Cu5  1  0.77885471  0.06932824  0.72463248  1  1.068549  0.580091  0.698091  0.796067  0.739241  2.210056  0.578
Cu  Cu6  1  0.26167030  0.98703430  0.32179382  1  1.049628  0.569898  0.709208  0.80261  0.724084  2.218298  0.569
Cu  Cu7  1  0.98703280  0.26167372  0.82179515  1  1.049611  0.569904  0.709252  0.802683  0.724086  2.218144  0.569
Cu  Cu8  1  0.16267212  0.81731270  0.43837151  1  1.061417  0.573757  0.686087  0.780581  0.731404  2.198535  0.573
Cu  Cu9  1  0.81730845  0.16267489  0.93837455  1  1.061394  0.573755  0.686032  0.780593  0.731407  2.198405  0.573
H  H10  1  0.05260476  0.84304500  0.59637273  1  0.0553  0.009959  0.098142  0.074108  0.004944  1.011735  0.007
H  H11  1  0.84304524  0.05260556  0.09637616  1  0.055363  0.00996  0.098119  0.074116  0.004944  1.011699  0.007
H  H12  1  0.03333239  0.71240049  0.60602351  1  0.033301  0.006782  0.094198  0.068086  0.0034  0.995486  0.004
H  H13  1  0.71240170  0.03333316  0.10602885  1  0.033151  0.006784  0.094141  0.068051  0.003401  0.99556  0.004
H  H14  1  0.88605882  0.81472203  0.47568801  1  0.021718  0.001151  0.104404  0.08875  0.000415  0.995098  0.001
H  H15  1  0.81472445  0.88605817  0.97569760  1  0.021099  0.00115  0.10442  0.088732  0.000415  0.99514  0.001
H  H16  1  0.85914005  0.75624870  0.56713823  1  0.074018  0.003268  0.106818  0.102837  0.001792  0.984492  0.002
H  H17  1  0.75624280  0.85914009  0.06714305  1  0.073722  0.003268  0.106849  0.102906  0.001792  0.984397  0.002
H  H18  1  0.85116545  0.39299656  0.42002183  1  0.083738  -5.4e-05  0.104832  0.077774  -7.3e-05  0.965082  0.0
H  H19  1  0.39299366  0.85115943  0.92001629  1  0.083937  -5.4e-05  0.104835  0.077769  -7.3e-05  0.965061  0.0
H  H20  1  0.77464238  0.43706849  0.32334592  1  0.042647  8.8e-05  0.101892  0.06656  2.5e-05  0.981366  0.0
H  H21  1  0.43707383  0.77464443  0.82334338  1  0.042528  8.8e-05  0.101894  0.066578  2.5e-05  0.981331  0.0
H  H22  1  0.92995744  0.57332992  0.52674587  1  0.109852  0.000231  0.113378  0.113473  4.1e-05  1.003185  0.0
H  H23  1  0.57333090  0.92995587  0.02674967  1  0.109929  0.000231  0.113361  0.113381  4.1e-05  1.003113  0.0
H  H24  1  0.79062890  0.54989658  0.50060997  1  0.111014  0.005155  0.108074  0.110444  0.00267  1.002969  0.004
H  H25  1  0.54989578  0.79062540  0.00060632  1  0.111055  0.005154  0.108047  0.110385  0.002669  1.003078  0.004
H  H26  1  0.79237801  0.77849880  0.31366070  1  0.073622  -0.000131  0.110775  0.136122  -0.000192  0.993939  0.0
H  H27  1  0.77850320  0.79238334  0.81366058  1  0.073605  -0.000131  0.110752  0.136081  -0.000192  0.993979  0.0
H  H28  1  0.65379207  0.72385625  0.26886365  1  0.125455  -0.000214  0.121832  0.162313  -0.000154  0.972334  0.0
H  H29  1  0.72386696  0.65379771  0.76887172  1  0.125477  -0.000214  0.121825  0.162352  -0.000154  0.972348  0.0
H  H30  1  0.69909129  0.56845132  0.33674825  1  0.08765  0.000205  0.115468  0.087535  -0.0  1.024108  0.0
H  H31  1  0.56845406  0.69909307  0.83674575  1  0.0877  0.000205  0.115479  0.087557  -0.0  1.024056  0.0
H  H32  1  0.70472581  0.68645917  0.42778366  1  0.0926  0.007035  0.115812  0.111516  0.00361  0.960478  0.005
H  H33  1  0.68645938  0.70472646  0.92778625  1  0.092602  0.007036  0.115802  0.111486  0.003611  0.960504  0.005
H  H34  1  0.01586384  0.94950248  0.11236480  1  0.036877  0.008997  0.097992  0.075652  0.004543  0.988699  0.006
H  H35  1  0.94950502  0.01586306  0.61237521  1  0.036891  0.008996  0.097992  0.075624  0.004542  0.988777  0.006
H  H36  1  0.13129531  0.94733855  0.07384660  1  0.0174  0.001293  0.082451  0.034883  0.000558  1.000105  0.001
H  H37  1  0.94734317  0.13129067  0.57384849  1  0.01744  0.001294  0.082465  0.034908  0.000559  1.000057  0.001
H  H38  1  0.13075887  0.13229185  0.14448035  1  0.114437  0.004056  0.107955  0.108947  0.002219  1.028213  0.003
H  H39  1  0.13229318  0.13076174  0.64448731  1  0.114542  0.004055  0.107947  0.108979  0.002218  1.028282  0.003
H  H40  1  0.09268214  0.10850504  0.24781657  1  0.028422  0.000509  0.106778  0.093916  9.9e-05  0.987597  0.0
H  H41  1  0.10850889  0.09268549  0.74782431  1  0.028319  0.000509  0.10676  0.093879  9.9e-05  0.987549  0.0
H  H42  1  0.46778470  0.14051772  0.32396992  1  0.018936  -5.2e-05  0.098073  0.067405  -7.5e-05  0.98505  0.0
H  H43  1  0.14051653  0.46778721  0.82396942  1  0.018963  -5.2e-05  0.098069  0.067412  -7.5e-05  0.985039  0.0
H  H44  1  0.48171611  0.07841945  0.20363185  1  0.135313  -5.5e-05  0.106211  0.098176  -5.8e-05  1.024028  0.0
H  H45  1  0.07841800  0.48171694  0.70363061  1  0.135257  -5.5e-05  0.106197  0.098176  -5.8e-05  1.023959  0.0
H  H46  1  0.28742354  0.03507162  0.12742896  1  0.062378  3.8e-05  0.111639  0.100638  -0.000125  0.974753  0.0
H  H47  1  0.03507187  0.28742434  0.62743006  1  0.062398  3.8e-05  0.111644  0.10064  -0.000125  0.97479  0.0
H  H48  1  0.33776814  0.17272112  0.17510805  1  0.090003  0.00537  0.114126  0.110404  0.00276  0.979442  0.003
H  H49  1  0.17272169  0.33776950  0.67511037  1  0.090037  0.00537  0.11413  0.110398  0.00276  0.979411  0.003
H  H50  1  0.15887850  0.17186243  0.40360476  1  0.09559  -0.000176  0.108937  0.135442  -0.000192  1.002329  0.0
H  H51  1  0.17186085  0.15888038  0.90360802  1  0.095622  -0.000176  0.108912  0.135386  -0.000192  1.002312  0.0
H  H52  1  0.23314161  0.30155645  0.46324388  1  0.186116  -0.000162  0.116477  0.162805  -9.1e-05  1.020806  0.0
H  H53  1  0.30155245  0.23314682  0.96324687  1  0.186162  -0.000162  0.116409  0.162763  -9.1e-05  1.020919  0.0
H  H54  1  0.36390320  0.24314995  0.35988375  1  0.04935  0.000325  0.1189  0.097224  4.6e-05  0.980205  0.0
H  H55  1  0.24315003  0.36390684  0.85988597  1  0.04927  0.000325  0.118934  0.097251  4.6e-05  0.980137  0.0
H  H56  1  0.24478727  0.27002773  0.29375146  1  0.076844  0.007223  0.11782  0.109247  0.003741  0.946888  0.004
H  H57  1  0.27002623  0.24478775  0.79375444  1  0.076883  0.007226  0.117822  0.109258  0.003743  0.946849  0.004
H  H58  1  0.06464947  0.49703791  0.22936548  1  0.05979  0.008115  0.103763  0.079971  0.004024  0.985697  0.005
H  H59  1  0.49703695  0.06465146  0.72935927  1  0.059867  0.008115  0.103753  0.079976  0.004024  0.9857  0.005
H  H60  1  0.18817575  0.57746872  0.25187861  1  0.017505  0.006769  0.095218  0.060595  0.00337  0.985564  0.004
H  H61  1  0.57746932  0.18817616  0.75187294  1  0.017532  0.006768  0.09521  0.060575  0.00337  0.985611  0.004
H  H62  1  0.09693584  0.51267498  0.06541147  1  0.098456  0.003694  0.104804  0.104862  0.002055  1.02038  0.003
H  H63  1  0.51268214  0.09693458  0.56540778  1  0.098506  0.003694  0.1048  0.10494  0.002055  1.020353  0.003
H  H64  1  0.98276332  0.55536272  0.08840840  1  0.052826  0.000757  0.107759  0.091676  0.000216  1.019552  0.0
H  H65  1  0.55536977  0.98276326  0.58840753  1  0.052717  0.000757  0.107779  0.091718  0.000216  1.019615  0.0
H  H66  1  0.88877599  0.61193761  0.98824985  1  0.058953  8.4e-05  0.10154  0.063766  3.6e-05  0.996895  0.0
H  H67  1  0.61193838  0.88877615  0.48824594  1  0.059191  8.4e-05  0.101533  0.063792  3.6e-05  0.996864  0.0
H  H68  1  0.89847954  0.71217616  0.92937456  1  0.021605  0.000106  0.097761  0.064754  4.9e-05  0.977833  0.0
H  H69  1  0.71218156  0.89847876  0.42937815  1  0.021617  0.000106  0.097757  0.064758  4.9e-05  0.977874  0.0
H  H70  1  0.08688248  0.76742981  0.00759241  1  0.045366  0.001077  0.11291  0.097322  0.000443  0.980458  0.001
H  H71  1  0.76743906  0.08688187  0.50759522  1  0.045192  0.001077  0.112883  0.09733  0.000444  0.980525  0.001
H  H72  1  0.05468107  0.62887226  0.94640776  1  0.06836  0.006489  0.111819  0.10253  0.003303  0.961562  0.004
H  H73  1  0.62888231  0.05468268  0.44640951  1  0.068359  0.006489  0.111829  0.10249  0.003303  0.961661  0.004
H  H74  1  0.24484074  0.67063880  0.98372332  1  0.083651  -5.7e-05  0.106429  0.131246  -0.0001  0.978804  0.0
H  H75  1  0.67063534  0.24483947  0.48372195  1  0.083884  -5.7e-05  0.106422  0.13126  -0.0001  0.978845  0.0
H  H76  1  0.25568130  0.56864947  0.04373347  1  0.117485  -9.2e-05  0.10687  0.142954  -0.000116  1.026538  0.0
H  H77  1  0.56865271  0.25568899  0.54373969  1  0.117511  -9.2e-05  0.10689  0.142958  -0.000116  1.026508  0.0
H  H78  1  0.25531608  0.70008847  0.20660173  1  0.065243  0.000623  0.112572  0.096965  0.000227  1.003335  0.0
H  H79  1  0.70009224  0.25531518  0.70660298  1  0.065257  0.000623  0.112599  0.096997  0.000227  1.00327  0.0
H  H80  1  0.23647282  0.79586123  0.14365122  1  0.103276  0.000888  0.107555  0.086316  0.000137  1.033009  0.001
H  H81  1  0.79586335  0.23647611  0.64365141  1  0.103187  0.000888  0.107572  0.086353  0.000137  1.033024  0.001
H  H82  1  0.41855058  0.91865774  0.44977591  1  0.045841  0.003721  0.091373  0.055033  0.001688  1.046149  0.003
H  H83  1  0.91865895  0.41855104  0.94977986  1  0.045793  0.003721  0.091364  0.05499  0.001688  1.046145  0.003
H  H84  1  0.39542043  0.81531971  0.33674991  1  0.053211  0.004975  0.099822  0.08342  0.002488  0.989175  0.003
H  H85  1  0.81532124  0.39542231  0.83675261  1  0.053256  0.004975  0.099842  0.083387  0.002488  0.98922  0.003
H  H86  1  0.44132493  0.75650501  0.49654644  1  0.081709  0.00587  0.106318  0.096271  0.003073  0.980224  0.004
H  H87  1  0.75650188  0.44132521  0.99654445  1  0.08177  0.00587  0.106301  0.096208  0.003073  0.980315  0.004
H  H88  1  0.32359417  0.68531097  0.39924948  1  0.037943  0.000464  0.109046  0.0912  9.7e-05  1.00496  0.0
H  H89  1  0.68531277  0.32359098  0.89924941  1  0.037992  0.000464  0.109045  0.091216  9.7e-05  1.004846  0.0
H  H90  1  0.22990622  0.87525651  0.68873156  1  0.041105  0.000223  0.104573  0.073914  0.00012  0.975929  0.0
H  H91  1  0.87525241  0.22990690  0.18873687  1  0.040986  0.000223  0.104622  0.073963  0.00012  0.975899  0.0
H  H92  1  0.31327089  0.00013708  0.72320879  1  0.074432  4.2e-05  0.103539  0.079928  2.3e-05  0.982349  0.0
H  H93  1  0.00013464  0.31326791  0.22321715  1  0.074362  4.2e-05  0.103567  0.079957  2.3e-05  0.982292  0.0
H  H94  1  0.38074906  0.93944587  0.57739131  1  0.050952  7.3e-05  0.109452  0.096668  -0.000113  1.016807  0.0
H  H95  1  0.93944817  0.38074729  0.07739657  1  0.050979  7.4e-05  0.109439  0.096656  -0.000113  1.01676  0.0
H  H96  1  0.41248326  0.86841844  0.66624084  1  0.095385  0.005256  0.108451  0.11205  0.002676  1.018532  0.004
H  H97  1  0.86842025  0.41248713  0.16624489  1  0.095302  0.005256  0.108441  0.112043  0.002676  1.018536  0.004
H  H98  1  0.28021177  0.55498295  0.44560431  1  0.062475  5e-06  0.103331  0.114792  -8e-06  1.024182  0.0
H  H99  1  0.55498467  0.28023059  0.94560647  1  0.062609  5e-06  0.103301  0.114656  -8e-06  1.024231  0.0
H  H100  1  0.16130320  0.60478241  0.42544052  1  0.131739  6.8e-05  0.108587  0.132961  1e-06  1.056961  0.0
H  H101  1  0.60477959  0.16132005  0.92543891  1  0.131966  6.8e-05  0.108493  0.132923  1e-06  1.05712  0.0
H  H102  1  0.35480827  0.68759415  0.61356828  1  0.073726  0.006511  0.106184  0.088962  0.003305  1.001813  0.004
H  H103  1  0.68759975  0.35481300  0.11357441  1  0.07362  0.006512  0.106155  0.088964  0.003305  1.001759  0.004
H  H104  1  0.22693439  0.71195370  0.61307310  1  0.064755  0.001994  0.111777  0.093892  0.000992  1.001947  0.001
H  H105  1  0.71194515  0.22693346  0.11307079  1  0.064821  0.001994  0.11182  0.09399  0.000992  1.001919  0.001
H  H106  1  0.09559928  0.01005625  0.37979869  1  -0.002796  0.002776  0.073457  0.035816  0.000137  1.107439  0.003
H  H107  1  0.01005673  0.09560667  0.87980901  1  -0.002811  0.002777  0.073358  0.035657  0.000137  1.107449  0.003
H  H108  1  0.00292099  0.97555333  0.44135817  1  0.020047  0.0112  0.089071  0.092748  0.005566  0.996655  0.007
H  H109  1  0.97555327  0.00292644  0.94136821  1  0.020008  0.0112  0.089046  0.092667  0.005567  0.9967  0.007
H  H110  1  0.95971741  0.96389660  0.30897023  1  0.031111  0.009687  0.088276  0.091133  0.004858  0.976585  0.006
H  H111  1  0.96389879  0.95972248  0.80898073  1  0.031306  0.009689  0.088288  0.091175  0.00486  0.976519  0.006
H  H112  1  0.99551005  0.44666163  0.38207335  1  0.642276  3.2e-05  0.290526  0.343553  4.9e-05  1.007357  0.0
H  H113  1  0.44666231  0.99551457  0.88207440  1  0.642253  3.2e-05  0.290496  0.343521  4.9e-05  1.00735  0.0
H  H114  1  0.41852607  0.92222579  0.21808826  1  0.647337  4.1e-05  0.296256  0.358582  5e-05  0.970657  0.0
H  H115  1  0.92222554  0.41852171  0.71808512  1  0.647323  4.1e-05  0.296251  0.358561  5e-05  0.970695  0.0
H  H116  1  0.85509143  0.73758298  0.09665036  1  0.651723  -2.4e-05  0.293538  0.34054  -2.5e-05  1.011743  0.0
H  H117  1  0.73757925  0.85508426  0.59664974  1  0.651595  -2.4e-05  0.293569  0.340686  -2.5e-05  1.011611  0.0
H  H118  1  0.21978742  0.02562387  0.58035908  1  0.638676  1.2e-05  0.294842  0.342583  -1.2e-05  0.995927  0.0
H  H119  1  0.02561826  0.21978568  0.08036530  1  0.638757  1.2e-05  0.294904  0.342701  -1.2e-05  0.995941  0.0
H  H120  1  0.57491492  0.44421851  0.40110773  1  0.6474  -2e-06  0.302575  0.364108  -9e-06  0.96301  0.0
H  H121  1  0.44421809  0.57490836  0.90110731  1  0.647383  -2e-06  0.302559  0.364042  -9e-06  0.963092  0.0
H  H122  1  0.44014943  0.57567713  0.33555453  1  0.042216  3.5e-05  0.094256  0.087398  2.2e-05  1.027814  0.0
H  H123  1  0.57568033  0.44014197  0.83556549  1  0.038453  3.5e-05  0.094246  0.087424  2.2e-05  1.027838  0.0
H  H124  1  0.51951773  0.58910942  0.46063524  1  0.062104  0.000113  0.095855  0.094756  6.6e-05  1.047766  0.0
H  H125  1  0.58910732  0.51951393  0.96064487  1  0.062042  0.000113  0.095768  0.094632  6.5e-05  1.047894  0.0
H  H126  1  0.40268172  0.48865087  0.40184743  1  -0.006647  9.1e-05  0.088369  0.069376  4.4e-05  1.016343  0.0
H  H127  1  0.48864980  0.40267740  0.90185514  1  -0.006814  9.1e-05  0.088356  0.069442  4.4e-05  1.016304  0.0
C  C128  1  0.01725067  0.75991989  0.55346084  1  0.456455  0.002746  -0.095002  0.036002  0.003588  3.988662  -0.001
C  C129  1  0.75991749  0.01724977  0.05346304  1  0.456437  0.002746  -0.094961  0.035978  0.003588  3.988828  -0.001
C  C130  1  0.89973698  0.75068797  0.50891036  1  0.270412  0.006236  -0.082277  -0.122383  0.003896  3.900207  0.004
C  C131  1  0.75068559  0.89974031  0.00891458  1  0.270857  0.006238  -0.082293  -0.122316  0.003896  3.90031  0.004
C  C132  1  0.84865516  0.45750889  0.38581929  1  0.411486  0.001854  -0.074993  0.067499  0.00116  3.923964  0.002
C  C133  1  0.45751176  0.84865527  0.88581687  1  0.411451  0.001854  -0.075005  0.067419  0.00116  3.924045  0.002
C  C134  1  0.85510604  0.55823852  0.46719937  1  0.189534  0.000777  -0.085771  -0.138044  0.000392  3.860494  -0.001
C  C135  1  0.55823675  0.85509740  0.96719543  1  0.189373  0.000777  -0.085673  -0.137759  0.000392  3.860387  -0.001
C  C136  1  0.73263061  0.70588913  0.29075444  1  -0.182901  0.001953  -0.155629  -0.391866  0.000772  3.910377  0.002
C  C137  1  0.70589511  0.73263331  0.79075820  1  -0.183215  0.001953  -0.155586  -0.391804  0.000772  3.910472  0.002
C  C138  1  0.74255802  0.65011400  0.37172022  1  0.231863  0.000817  -0.066044  -0.044859  0.000625  3.869807  -0.001
C  C139  1  0.65011681  0.74256096  0.87172025  1  0.232085  0.000817  -0.066073  -0.044849  0.000624  3.869836  -0.001
C  C140  1  0.10256522  0.96800749  0.14097125  1  0.477469  0.004766  -0.090529  0.063984  0.005546  4.01446  0.002
C  C141  1  0.96801113  0.10256525  0.64097700  1  0.477525  0.004765  -0.090532  0.063932  0.005547  4.014679  0.002
C  C142  1  0.13979226  0.08492196  0.19681330  1  0.230136  0.006497  -0.086694  -0.136846  0.004272  3.901904  0.004
C  C143  1  0.08492391  0.13979410  0.69681787  1  0.229949  0.006497  -0.086653  -0.13679  0.004271  3.901913  0.004
C  C144  1  0.42958975  0.07865634  0.25131801  1  0.408234  0.001958  -0.085367  0.038565  0.001249  3.924106  0.002
C  C145  1  0.07865597  0.42959247  0.75131768  1  0.408254  0.001958  -0.085348  0.038583  0.001249  3.924006  0.002
C  C146  1  0.32521895  0.10048118  0.19715022  1  0.226639  0.000335  -0.076748  -0.119066  7.5e-05  3.867378  -0.001
C  C147  1  0.10048046  0.32522018  0.69715129  1  0.226902  0.000335  -0.076774  -0.119099  7.5e-05  3.867422  -0.001
C  C148  1  0.23750144  0.22106901  0.42444862  1  -0.231187  0.001435  -0.159039  -0.388668  0.000388  3.895546  0.001
C  C149  1  0.22107106  0.23750467  0.92445300  1  -0.231209  0.001436  -0.158989  -0.38866  0.000388  3.895535  0.001
C  C150  1  0.27806021  0.21618771  0.33391816  1  0.270816  0.000439  -0.062384  -0.039506  0.000288  3.875661  -0.001
C  C151  1  0.21618413  0.27806552  0.83392220  1  0.270921  0.000439  -0.062381  -0.039492  0.000288  3.8757  -0.001
C  C152  1  0.10231479  0.57211789  0.22392511  1  0.457297  0.002319  -0.087999  0.067229  0.002917  3.959643  -0.001
C  C153  1  0.57211912  0.10231579  0.72392142  1  0.457078  0.00232  -0.087998  0.067273  0.002917  3.959668  -0.001
C  C154  1  0.06896609  0.57244256  0.11475981  1  0.225435  0.00457  -0.089548  -0.132619  0.00316  3.87892  0.002
C  C155  1  0.57244820  0.06896541  0.61475830  1  0.225666  0.00457  -0.089515  -0.132741  0.003161  3.879019  0.002
C  C156  1  0.93233929  0.69104747  0.99867079  1  0.436176  0.001622  -0.072646  0.069322  0.001032  3.928274  0.001
C  C157  1  0.69105294  0.93233881  0.49867218  1  0.435854  0.001622  -0.072679  0.069252  0.001032  3.928442  0.001
C  C158  1  0.04818156  0.69163693  0.01025860  1  0.271666  -0.000441  -0.070211  -0.105063  -0.0005  3.881682  -0.002
C  C159  1  0.69164283  0.04818291  0.51026024  1  0.272287  -0.00044  -0.070191  -0.105003  -0.0005  3.881676  -0.002
C  C160  1  0.26942252  0.65397424  0.05633729  1  -0.200428  0.005124  -0.165173  -0.372289  0.003533  3.885788  0.004
C  C161  1  0.65397814  0.26942397  0.55633823  1  -0.200817  0.005124  -0.165203  -0.372409  0.003533  3.885959  0.004
C  C162  1  0.21985756  0.71110115  0.13313012  1  0.256941  -0.000952  -0.081865  -0.064929  -0.001191  3.903797  -0.002
C  C163  1  0.71110694  0.21985778  0.63312812  1  0.257196  -0.000953  -0.081887  -0.064986  -0.001191  3.904008  -0.002
C  C164  1  0.36478094  0.84426857  0.40084452  1  0.449822  0.002209  -0.102195  0.032289  0.002632  3.987832  -0.001
C  C165  1  0.84427034  0.36478243  0.90084809  1  0.449813  0.002209  -0.102194  0.032377  0.002631  3.987749  -0.001
C  C166  1  0.36154070  0.76193624  0.45548450  1  0.220695  0.008447  -0.077528  -0.102438  0.00601  3.87327  0.005
C  C167  1  0.76193759  0.36154311  0.95548790  1  0.220617  0.008447  -0.07752  -0.102333  0.00601  3.873166  0.005
C  C168  1  0.27031159  0.93032006  0.65882764  1  0.427971  0.001687  -0.077475  0.058049  0.001058  3.92278  0.001
C  C169  1  0.93031557  0.27031011  0.15883517  1  0.428248  0.001687  -0.077506  0.058031  0.001058  3.922612  0.001
C  C170  1  0.34769320  0.88237925  0.60957837  1  0.238631  0.000581  -0.087745  -0.143559  0.000292  3.881932  -0.001
C  C171  1  0.88237971  0.34769362  0.10958363  1  0.238743  0.00058  -0.087711  -0.143485  0.000292  3.881872  -0.001
C  C172  1  0.22597751  0.59154380  0.48224621  1  -0.19671  0.000943  -0.165699  -0.374334  0.000442  3.904375  0.001
C  C173  1  0.59154329  0.22599006  0.98224732  1  -0.196988  0.000943  -0.165624  -0.374155  0.000442  3.904458  0.001
C  C174  1  0.27874651  0.69416290  0.56592069  1  0.258871  0.000563  -0.070737  -0.045422  0.000414  3.881062  -0.001
C  C175  1  0.69416192  0.27875021  0.06592178  1  0.258984  0.000561  -0.070782  -0.045651  0.000414  3.881253  -0.001
C  C176  1  0.02340955  0.95393576  0.37001510  1  0.459764  0.001695  -0.168698  -0.104851  0.002299  4.044688  -0.002
C  C177  1  0.95393483  0.02341542  0.87002557  1  0.459667  0.001696  -0.168604  -0.104651  0.002299  4.044657  -0.002
C  C178  1  0.47038776  0.53230587  0.38849058  1  0.418141  0.000144  -0.163849  -0.130356  0.000143  3.99353  0.0
C  C179  1  0.53230741  0.47038236  0.88849788  1  0.422137  0.000144  -0.163712  -0.130305  0.000143  3.993528  0.0
S  S180  1  0.74586185  0.62343384  0.17624033  1  3.126109  0.00314  0.513195  1.232549  0.003256  6.098681  0.001
S  S181  1  0.62343891  0.74586152  0.67624280  1  3.126037  0.003138  0.513193  1.232605  0.003256  6.098546  0.001
S  S182  1  0.32250752  0.17810060  0.51781526  1  3.124326  0.003006  0.510017  1.220416  0.003138  6.104205  0.001
S  S183  1  0.17810398  0.32251691  0.01782097  1  3.124374  0.003007  0.510005  1.220609  0.003139  6.104005  0.001
S  S184  1  0.40992439  0.70058907  0.10463367  1  3.140635  0.000596  0.491228  1.222699  0.000391  6.189574  0.0
S  S185  1  0.70059443  0.40992651  0.60462294  1  3.139848  0.000596  0.491375  1.223027  0.000391  6.189384  0.0
S  S186  1  0.16797214  0.49365153  0.52799384  1  3.176981  -6.2e-05  0.500617  1.232098  -9.5e-05  6.142371  0.0
S  S187  1  0.49364140  0.16798253  0.02798356  1  3.177161  -6.2e-05  0.500806  1.232269  -9.5e-05  6.14189  0.0
N  N188  1  0.85289864  0.64973395  0.42607764  1  -0.971601  0.103036  -0.354495  -0.104735  0.067269  3.490351  0.088
N  N189  1  0.64973416  0.85289983  0.92607901  1  -0.971072  0.103032  -0.354542  -0.104952  0.067268  3.490512  0.088
N  N190  1  0.25197723  0.10866545  0.26039498  1  -0.973106  0.103373  -0.355942  -0.11296  0.067446  3.495668  0.088
N  N191  1  0.10866633  0.25198117  0.76039879  1  -0.973299  0.103369  -0.355929  -0.112911  0.067444  3.495509  0.088
N  N192  1  0.10422829  0.67909486  0.10836429  1  -0.995967  0.099093  -0.358406  -0.089327  0.064676  3.520328  0.084
N  N193  1  0.67910111  0.10422913  0.60836564  1  -0.996394  0.099092  -0.358409  -0.089258  0.064675  3.520278  0.084
N  N194  1  0.29684637  0.78372032  0.52521802  1  -0.961409  0.102927  -0.35065  -0.0875  0.067452  3.473165  0.088
N  N195  1  0.78371938  0.29684863  0.02522182  1  -0.961615  0.102927  -0.350631  -0.087531  0.06745  3.473334  0.088
O  O196  1  0.06303510  0.72467320  0.47545440  1  -1.019745  0.226106  -0.399058  -0.525334  0.144401  2.495309  0.203
O  O197  1  0.72467043  0.06303710  0.97545834  1  -1.019701  0.226126  -0.399004  -0.525262  0.144414  2.495224  0.203
O  O198  1  0.93288604  0.46814032  0.34247881  1  -1.159461  0.004611  -0.414188  -0.521889  0.003012  2.409205  0.005
O  O199  1  0.46814331  0.93288625  0.84247897  1  -1.15948  0.004612  -0.414172  -0.521843  0.003013  2.409188  0.005
O  O200  1  0.85157893  0.59608044  0.20392140  1  -1.30945  0.037219  -0.356992  -0.629446  0.023746  2.403442  0.032
O  O201  1  0.59607805  0.85157284  0.70391948  1  -1.309566  0.037215  -0.356971  -0.629439  0.023742  2.403544  0.032
O  O202  1  0.73991568  0.68653857  0.10550773  1  -1.331913  0.005613  -0.337023  -0.597753  0.003428  2.204327  0.004
O  O203  1  0.68654203  0.73991428  0.60550910  1  -1.331697  0.005611  -0.337018  -0.59785  0.003427  2.204245  0.004
O  O204  1  0.66147714  0.53025053  0.14068932  1  -1.340172  0.004905  -0.416779  -0.642258  0.003003  2.236324  0.004
O  O205  1  0.53025657  0.66146915  0.64069152  1  -1.340053  0.004906  -0.416823  -0.642278  0.003004  2.236061  0.004
O  O206  1  0.13905395  0.90949540  0.20680348  1  -1.062083  0.175202  -0.417298  -0.572374  0.112111  2.549637  0.159
O  O207  1  0.90949526  0.13905861  0.70680490  1  -1.062077  0.175208  -0.417341  -0.572432  0.112114  2.549751  0.159
O  O208  1  0.41469804  0.98113378  0.27478195  1  -1.153907  0.004784  -0.416948  -0.515322  0.003172  2.368036  0.005
O  O209  1  0.98113299  0.41469770  0.77478058  1  -1.153913  0.004785  -0.416939  -0.515326  0.003172  2.368059  0.005
O  O210  1  0.35270075  0.08284940  0.46011356  1  -1.308259  0.042853  -0.355314  -0.620779  0.027248  2.404842  0.037
O  O211  1  0.08284606  0.35269820  0.96011918  1  -1.308271  0.042846  -0.355309  -0.620801  0.027244  2.404763  0.037
O  O212  1  0.26193767  0.15252639  0.58356989  1  -1.341964  0.002134  -0.337295  -0.599629  0.001155  2.223515  0.001
O  O213  1  0.15253077  0.26193924  0.08357756  1  -1.341839  0.002136  -0.337271  -0.599709  0.001156  2.22308  0.001
O  O214  1  0.41513962  0.26268321  0.57135101  1  -1.341708  0.007975  -0.414927  -0.633891  0.004995  2.202736  0.007
O  O215  1  0.26267796  0.41513827  0.07134850  1  -1.341953  0.00797  -0.414916  -0.633962  0.004991  2.203115  0.007
O  O216  1  0.07387142  0.65845931  0.28500661  1  -1.052144  0.181829  -0.410995  -0.584145  0.116013  2.548888  0.164
O  O217  1  0.65845807  0.07387257  0.78500695  1  -1.052101  0.181822  -0.410981  -0.584139  0.116009  2.548905  0.164
O  O218  1  0.92239328  0.76473290  0.08563016  1  -1.165841  0.004827  -0.412371  -0.515497  0.00304  2.40044  0.005
O  O219  1  0.76473031  0.92239078  0.58563220  1  -1.165776  0.004825  -0.412385  -0.515641  0.003039  2.400475  0.005
O  O220  1  0.44501983  0.67117226  0.19815991  1  -1.353484  0.000373  -0.413329  -0.666344  0.000193  2.150584  0.0
O  O221  1  0.67117784  0.44502982  0.69815719  1  -1.352714  0.000373  -0.413482  -0.66653  0.000193  2.150055  0.0
O  O222  1  0.03730934  0.84892295  0.34733921  1  -1.044346  0.202758  -0.416428  -0.52889  0.128716  2.55599  0.183
O  O223  1  0.84892408  0.03731211  0.84734552  1  -1.044414  0.20275  -0.416417  -0.528914  0.128712  2.556017  0.183
O  O224  1  0.42762842  0.81534175  0.12198033  1  -1.318974  0.000409  -0.351781  -0.612156  0.000207  2.157934  0.0
O  O225  1  0.81535007  0.42762460  0.62197968  1  -1.318961  0.000409  -0.351783  -0.612208  0.000207  2.157861  0.0
O  O226  1  0.26112734  0.86184185  0.36577667  1  -1.041198  0.182662  -0.413979  -0.582773  0.116559  2.54225  0.166
O  O227  1  0.86184098  0.26112755  0.86577971  1  -1.041247  0.182664  -0.41397  -0.582809  0.116562  2.542247  0.166
O  O228  1  0.19029545  0.95710719  0.58711378  1  -1.158134  0.002596  -0.415257  -0.514027  0.001388  2.393599  0.003
O  O229  1  0.95710616  0.19029506  0.08712002  1  -1.158198  0.002597  -0.415371  -0.514222  0.001388  2.393586  0.003
O  O230  1  0.10141819  0.40975070  0.43487111  1  -1.348949  0.000102  -0.364017  -0.625141  1.9e-05  2.147313  0.0
O  O231  1  0.40975683  0.10141795  0.93486773  1  -1.349005  0.000102  -0.363946  -0.625001  2e-05  2.147595  0.0
O  O232  1  0.10710200  0.54464502  0.59018716  1  -1.338541  0.000421  -0.34351  -0.594756  0.000225  2.169416  0.0
O  O233  1  0.54464998  0.10711476  0.09019268  1  -1.338521  0.000421  -0.343686  -0.595002  0.000225  2.168856  0.0
O  O234  1  0.25600859  0.45544030  0.58341830  1  -1.364983  0.000774  -0.444375  -0.682181  0.000486  2.18684  0.0
O  O235  1  0.45542622  0.25600797  0.08340254  1  -1.365188  0.000774  -0.444419  -0.682194  0.000485  2.186827  0.0
O  O236  1  0.52904828  0.46197774  0.34447859  1  -1.173055  0.000113  -0.50641  -0.519329  4.5e-05  2.295145  0.0
O  O237  1  0.46198069  0.52904306  0.84448304  1  -1.173079  0.000113  -0.506419  -0.519267  4.5e-05  2.295166  0.0
O  O238  1  0.45111692  0.64526845  0.02456763  1  -1.359867  0.002021  -0.352275  -0.639915  0.001267  2.227175  0.002
O  O239  1  0.64528362  0.45111613  0.52456381  1  -1.359881  0.00202  -0.35224  -0.639941  0.001267  2.227735  0.002
