# generated using pymatgen
data_TlH6C8N3
_symmetry_space_group_name_H-M   'P 1'
_cell_length_a   5.31908541
_cell_length_b   10.99963587
_cell_length_c   14.25099151
_cell_angle_alpha   104.43489985
_cell_angle_beta   89.99958037
_cell_angle_gamma   89.99997444
_symmetry_Int_Tables_number   1
_chemical_formula_structural   TlH6C8N3
_chemical_formula_sum   'Tl4 H24 C32 N12'
_cell_volume   807.47532621
_cell_formula_units_Z   4
loop_
 _symmetry_equiv_pos_site_id
 _symmetry_equiv_pos_as_xyz
  1  'x, y, z'
loop_
 _atom_site_type_symbol
 _atom_site_label
 _atom_site_symmetry_multiplicity
 _atom_site_fract_x
 _atom_site_fract_y
 _atom_site_fract_z
 _atom_site_occupancy
 _atom_site_hle17_bader_spin_density
 _atom_site_hle17_ddec_charge
 _atom_site_hle17_ddec_spin_density
 _atom_site_hle17_ddec_sum_bond_order
 _atom_site_hle17_magmom
 _atom_site_hse06_10hf_bader_spin_density
 _atom_site_hse06_10hf_ddec_charge
 _atom_site_hse06_10hf_ddec_spin_density
 _atom_site_hse06_10hf_ddec_sum_bond_order
 _atom_site_hse06_10hf_magmom
 _atom_site_hse06_bader_spin_density
 _atom_site_hse06_ddec_charge
 _atom_site_hse06_ddec_spin_density
 _atom_site_hse06_ddec_sum_bond_order
 _atom_site_hse06_magmom
 _atom_site_pbe_bader_spin_density
 _atom_site_pbe_cm5_charge
 _atom_site_pbe_ddec_charge
 _atom_site_pbe_ddec_spin_density
 _atom_site_pbe_ddec_sum_bond_order
 _atom_site_pbe_magmom
Tl  Tl0  1  0.77821889  0.10691272  0.13203800  1  0  0.582969  0  1.068545  0  0  0.425211  0  1.402318  0  0  0.452091  0  1.391204  0  0  0.324421  0.405425  0  1.410686  0
Tl  Tl1  1  0.27822443  0.39308993  0.36796927  1  0  0.582926  0  1.068563  0  0  0.42518  0  1.402285  0  0  0.452032  0  1.391216  0  0  0.324392  0.405385  0  1.410646  0
Tl  Tl2  1  0.22177529  0.89309035  0.86795937  1  0  0.582931  0  1.068518  0  0  0.425153  0  1.402302  0  0  0.452047  0  1.391167  0  0  0.324419  0.405367  0  1.41067  0
Tl  Tl3  1  0.72177915  0.60691316  0.63203723  1  0  0.582953  0  1.068545  0  0  0.425196  0  1.402308  0  0  0.452074  0  1.391199  0  0  0.324412  0.405404  0  1.410671  0
H  H4  1  0.13723948  0.20469736  0.96459795  1  0  0.069755  0  0.989736  0  0  0.083451  0  1.053543  0  0  0.084925  0  1.053155  0  0  0.103217  0.08249  0  1.05363  0
H  H5  1  0.63724882  0.29530539  0.53541197  1  0  0.069743  0  0.989759  0  0  0.08343  0  1.053591  0  0  0.084905  0  1.053184  0  0  0.103227  0.082469  0  1.053673  0
H  H6  1  0.86274719  0.79530479  0.03540836  1  0  0.069739  0  0.989737  0  0  0.083433  0  1.053534  0  0  0.084904  0  1.053141  0  0  0.103225  0.082472  0  1.05362  0
H  H7  1  0.36276792  0.70468831  0.46458781  1  0  0.069801  0  0.989806  0  0  0.083481  0  1.053631  0  0  0.084952  0  1.053238  0  0  0.103255  0.082519  0  1.053715  0
H  H8  1  0.53173754  0.37146322  0.97726722  1  0  0.107332  0  0.989313  0  0  0.119738  0  1.050677  0  0  0.122292  0  1.050483  0  0  0.09581  0.117954  0  1.050846  0
H  H9  1  0.03174080  0.12853776  0.52273634  1  0  0.107236  0  0.989367  0  0  0.119654  0  1.050726  0  0  0.122203  0  1.050552  0  0  0.09579  0.117873  0  1.050897  0
H  H10  1  0.46825665  0.62853988  0.02273857  1  0  0.107216  0  0.989372  0  0  0.119634  0  1.050727  0  0  0.122177  0  1.050564  0  0  0.095756  0.117851  0  1.050894  0
H  H11  1  0.96827594  0.87145592  0.47725572  1  0  0.107183  0  0.989301  0  0  0.119601  0  1.050681  0  0  0.122149  0  1.050502  0  0  0.095751  0.117819  0  1.050854  0
H  H12  1  0.86715578  0.48527889  0.05717051  1  0  0.100568  0  0.960449  0  0  0.112858  0  1.021581  0  0  0.115871  0  1.020659  0  0  0.103021  0.110736  0  1.022315  0
H  H13  1  0.36716022  0.01471990  0.44283298  1  0  0.100606  0  0.960439  0  0  0.112951  0  1.021505  0  0  0.115964  0  1.020585  0  0  0.103025  0.110831  0  1.022246  0
H  H14  1  0.13283840  0.51471857  0.94283421  1  0  0.10056  0  0.960485  0  0  0.112883  0  1.021575  0  0  0.115897  0  1.020654  0  0  0.103001  0.11076  0  1.022311  0
H  H15  1  0.63284148  0.98528786  0.55716178  1  0  0.100604  0  0.960362  0  0  0.112945  0  1.021434  0  0  0.115957  0  1.020514  0  0  0.10308  0.110826  0  1.022173  0
H  H16  1  0.17290576  0.64473932  0.14699746  1  0  0.081578  0  0.960102  0  0  0.094436  0  1.02197  0  0  0.096621  0  1.020719  0  0  0.100355  0.092797  0  1.023028  0
H  H17  1  0.67291061  0.85526339  0.35300387  1  0  0.081552  0  0.960116  0  0  0.094415  0  1.021988  0  0  0.09659  0  1.020747  0  0  0.100359  0.092779  0  1.023038  0
H  H18  1  0.82708091  0.35526283  0.85300675  1  0  0.081554  0  0.960117  0  0  0.094434  0  1.021974  0  0  0.0966  0  1.020742  0  0  0.100366  0.092794  0  1.023029  0
H  H19  1  0.32708921  0.14473875  0.64699472  1  0  0.081636  0  0.960116  0  0  0.094486  0  1.021997  0  0  0.096677  0  1.020738  0  0  0.100387  0.09285  0  1.023051  0
H  H20  1  0.13519068  0.71940410  0.32734371  1  0  0.097694  0  0.978432  0  0  0.109331  0  1.038473  0  0  0.111672  0  1.039304  0  0  0.100679  0.107623  0  1.038068  0
H  H21  1  0.63519919  0.78059491  0.17265912  1  0  0.097613  0  0.978472  0  0  0.109308  0  1.038462  0  0  0.111648  0  1.039295  0  0  0.100669  0.1076  0  1.03805  0
H  H22  1  0.86480351  0.28059618  0.67266014  1  0  0.097637  0  0.978483  0  0  0.109341  0  1.038463  0  0  0.111679  0  1.039299  0  0  0.100694  0.107632  0  1.038057  0
H  H23  1  0.36480251  0.21940160  0.82733910  1  0  0.097559  0  0.978422  0  0  0.109273  0  1.038396  0  0  0.111612  0  1.039232  0  0  0.100655  0.107566  0  1.037984  0
H  H24  1  0.79354368  0.62951073  0.41062780  1  0  0.044382  0  0.991301  0  0  0.052266  0  1.065226  0  0  0.054204  0  1.064278  0  0  0.102553  0.050873  0  1.06601  0
H  H25  1  0.29353785  0.87048714  0.08937087  1  0  0.044407  0  0.991247  0  0  0.052305  0  1.065148  0  0  0.05424  0  1.064207  0  0  0.102603  0.050914  0  1.06593  0
H  H26  1  0.20645614  0.37048765  0.58937077  1  0  0.044371  0  0.991273  0  0  0.052278  0  1.065161  0  0  0.054215  0  1.064217  0  0  0.102577  0.050885  0  1.065946  0
H  H27  1  0.70646573  0.12950748  0.91062558  1  0  0.044406  0  0.991292  0  0  0.052293  0  1.065225  0  0  0.054229  0  1.064282  0  0  0.102573  0.050903  0  1.066006  0
C  C28  1  0.23560588  0.25869267  0.02835926  1  0  -0.031064  0  3.877328  0  0  -0.056116  0  4.132488  0  0  -0.054042  0  4.156123  0  0  -0.01444  -0.057089  0  4.115598  0
C  C29  1  0.73561978  0.24131004  0.47165024  1  0  -0.03112  0  3.877338  0  0  -0.05619  0  4.132563  0  0  -0.054099  0  4.15618  0  0  -0.014527  -0.057157  0  4.115664  0
C  C30  1  0.76437702  0.74131043  0.97164723  1  0  -0.031133  0  3.877288  0  0  -0.056189  0  4.132506  0  0  -0.054106  0  4.15613  0  0  -0.014502  -0.057163  0  4.115617  0
C  C31  1  0.26439320  0.75868459  0.52834552  1  0  -0.031214  0  3.877137  0  0  -0.056266  0  4.132335  0  0  -0.05418  0  4.155952  0  0  -0.014537  -0.057233  0  4.115438  0
C  C32  1  0.43616280  0.34239033  0.03524416  1  0  -0.267506  0  3.823746  0  0  -0.282666  0  4.074097  0  0  -0.291104  0  4.09829  0  0  -0.13186  -0.276802  0  4.057247  0
C  C33  1  0.93617317  0.15761026  0.46476018  1  0  -0.26741  0  3.823773  0  0  -0.282593  0  4.074142  0  0  -0.291035  0  4.098332  0  0  -0.13186  -0.276733  0  4.057296  0
C  C34  1  0.56382010  0.65761088  0.96475987  1  0  -0.267441  0  3.823733  0  0  -0.282613  0  4.074086  0  0  -0.291055  0  4.098277  0  0  -0.131879  -0.276747  0  4.057234  0
C  C35  1  0.06383982  0.84238718  0.53523471  1  0  -0.267267  0  3.823397  0  0  -0.282375  0  4.073799  0  0  -0.290812  0  4.097989  0  0  -0.13177  -0.276517  0  4.056954  0
C  C36  1  0.48115448  0.38409129  0.13571746  1  0  0.069735  0  3.870178  0  0  0.068886  0  4.113934  0  0  0.07087  0  4.137203  0  0  0.068696  0.06773  0  4.097816  0
C  C37  1  0.98115560  0.11590925  0.36428605  1  0  0.069554  0  3.869982  0  0  0.06875  0  4.113727  0  0  0.070734  0  4.136995  0  0  0.068659  0.0676  0  4.097609  0
C  C38  1  0.51883782  0.61590992  0.86428587  1  0  0.069555  0  3.86996  0  0  0.06875  0  4.113699  0  0  0.070733  0  4.136969  0  0  0.068643  0.067592  0  4.097584  0
C  C39  1  0.01885550  0.88409194  0.63570745  1  0  0.069534  0  3.869961  0  0  0.068521  0  4.113987  0  0  0.070503  0  4.137258  0  0  0.068619  0.067374  0  4.097867  0
C  C40  1  0.66409140  0.47567319  0.18663273  1  0  0.206224  0  3.775216  0  0  0.205909  0  4.013673  0  0  0.214852  0  4.031025  0  0  0.126054  0.199778  0  4.001842  0
C  C41  1  0.16409464  0.02432300  0.31336800  1  0  0.206274  0  3.775178  0  0  0.20592  0  4.013694  0  0  0.214862  0  4.031047  0  0  0.126056  0.199791  0  4.001866  0
C  C42  1  0.33590091  0.52432332  0.81336829  1  0  0.20636  0  3.775122  0  0  0.205998  0  4.013639  0  0  0.214939  0  4.030996  0  0  0.126103  0.199867  0  4.001806  0
C  C43  1  0.83591835  0.97567911  0.68662217  1  0  0.206435  0  3.775063  0  0  0.206105  0  4.013627  0  0  0.215045  0  4.030984  0  0  0.12609  0.199975  0  4.001799  0
C  C44  1  0.85382563  0.52084516  0.13534210  1  0  -0.139886  0  3.696747  0  0  -0.160913  0  3.947811  0  0  -0.167125  0  3.966992  0  0  -0.083654  -0.15691  0  3.935031  0
C  C45  1  0.35381986  0.97915736  0.36466291  1  0  -0.13994  0  3.696652  0  0  -0.161008  0  3.947715  0  0  -0.167221  0  3.966891  0  0  -0.083642  -0.157007  0  3.934947  0
C  C46  1  0.14617231  0.47915606  0.86466333  1  0  -0.139922  0  3.696737  0  0  -0.160963  0  3.94781  0  0  -0.167175  0  3.966983  0  0  -0.083647  -0.156958  0  3.93503  0
C  C47  1  0.64619500  0.02085040  0.63533184  1  0  -0.139812  0  3.696315  0  0  -0.160827  0  3.947352  0  0  -0.16704  0  3.966534  0  0  -0.083592  -0.156828  0  3.934586  0
C  C48  1  0.02424074  0.60882115  0.18527304  1  0  -0.001184  0  3.747073  0  0  -0.021149  0  3.999337  0  0  -0.017052  0  4.016903  0  0  -0.073485  -0.023575  0  3.987404  0
C  C49  1  0.52425008  0.89117797  0.31472660  1  0  -0.001019  0  3.746951  0  0  -0.02098  0  3.999222  0  0  -0.016875  0  4.01679  0  0  -0.073412  -0.023399  0  3.987287  0
C  C50  1  0.97574592  0.39117724  0.81472904  1  0  -0.001083  0  3.747065  0  0  -0.021075  0  3.999368  0  0  -0.016962  0  4.016941  0  0  -0.073424  -0.023498  0  3.98743  0
C  C51  1  0.47575162  0.10882510  0.68526937  1  0  -0.001285  0  3.746942  0  0  -0.021277  0  3.999279  0  0  -0.017184  0  4.016842  0  0  -0.073506  -0.023699  0  3.987345  0
C  C52  1  0.00450512  0.65051691  0.28590753  1  0  -0.145829  0  3.760087  0  0  -0.154717  0  4.001878  0  0  -0.161426  0  4.023333  0  0  -0.096148  -0.15036  0  3.987467  0
C  C53  1  0.50450147  0.84948599  0.21409640  1  0  -0.145867  0  3.760311  0  0  -0.15481  0  4.002116  0  0  -0.16152  0  4.023573  0  0  -0.096163  -0.150446  0  3.987693  0
C  C54  1  0.99549470  0.34948430  0.71409720  1  0  -0.145831  0  3.760199  0  0  -0.154778  0  4.002004  0  0  -0.161488  0  4.023459  0  0  -0.096199  -0.150419  0  3.98759  0
C  C55  1  0.49550024  0.15050863  0.78590146  1  0  -0.145616  0  3.760096  0  0  -0.154544  0  4.001869  0  0  -0.161255  0  4.023332  0  0  -0.096109  -0.150179  0  3.987444  0
C  C56  1  0.81290871  0.60060764  0.33176648  1  0  0.091951  0  3.815583  0  0  0.074249  0  4.05588  0  0  0.080116  0  4.074432  0  0  0.03844  0.070383  0  4.043318  0
C  C57  1  0.31291069  0.89938459  0.16823317  1  0  0.091977  0  3.815503  0  0  0.074268  0  4.055829  0  0  0.080132  0  4.074389  0  0  0.038358  0.070402  0  4.043266  0
C  C58  1  0.18708923  0.39938606  0.66823401  1  0  0.091954  0  3.815463  0  0  0.074238  0  4.055796  0  0  0.080103  0  4.074354  0  0  0.038379  0.070369  0  4.043235  0
C  C59  1  0.68709290  0.10060910  0.83176310  1  0  0.091766  0  3.815539  0  0  0.074039  0  4.05587  0  0  0.079901  0  4.074432  0  0  0.038305  0.070173  0  4.043303  0
N  N60  1  0.16685445  0.24978561  0.11808590  1  0  -0.254638  0  3.186482  0  0  -0.188962  0  3.445986  0  0  -0.202711  0  3.470726  0  0  -0.232648  -0.179117  0  3.428606  0
N  N61  1  0.66686260  0.25021811  0.38192468  1  0  -0.254396  0  3.186183  0  0  -0.188692  0  3.445656  0  0  -0.20244  0  3.470391  0  0  -0.232498  -0.178843  0  3.428266  0
N  N62  1  0.83313221  0.75021936  0.88192165  1  0  -0.25433  0  3.186186  0  0  -0.18862  0  3.445639  0  0  -0.202371  0  3.470383  0  0  -0.232438  -0.178774  0  3.428258  0
N  N63  1  0.33314662  0.74978215  0.61807426  1  0  -0.254422  0  3.186124  0  0  -0.188717  0  3.445573  0  0  -0.202467  0  3.470314  0  0  -0.232514  -0.178867  0  3.428182  0
N  N64  1  0.31646971  0.32588638  0.18366633  1  0  -0.264295  0  3.13097  0  0  -0.198102  0  3.388214  0  0  -0.211074  0  3.409795  0  0  -0.226572  -0.188906  0  3.373116  0
N  N65  1  0.81646984  0.17411529  0.31634135  1  0  -0.264445  0  3.130869  0  0  -0.198296  0  3.388178  0  0  -0.211269  0  3.409758  0  0  -0.226681  -0.1891  0  3.373076  0
N  N66  1  0.68352447  0.67411671  0.81633946  1  0  -0.264464  0  3.130817  0  0  -0.19831  0  3.388116  0  0  -0.211288  0  3.409704  0  0  -0.226721  -0.189113  0  3.373018  0
N  N67  1  0.18353938  0.82588684  0.68365584  1  0  -0.264442  0  3.130683  0  0  -0.198227  0  3.388057  0  0  -0.211203  0  3.409642  0  0  -0.226681  -0.189031  0  3.372954  0
N  N68  1  0.64545938  0.51633621  0.28433467  1  0  -0.347756  0  3.12512  0  0  -0.28369  0  3.369509  0  0  -0.298943  0  3.386627  0  0  -0.304433  -0.273023  0  3.357791  0
N  N69  1  0.14545657  0.98366090  0.21566848  1  0  -0.347711  0  3.124907  0  0  -0.283631  0  3.369299  0  0  -0.298887  0  3.386423  0  0  -0.304367  -0.272965  0  3.357589  0
N  N70  1  0.35454044  0.48366218  0.71566742  1  0  -0.347698  0  3.124879  0  0  -0.283608  0  3.369264  0  0  -0.298864  0  3.386388  0  0  -0.304368  -0.272947  0  3.357566  0
N  N71  1  0.85455077  0.01633746  0.78432378  1  0  -0.347805  0  3.124836  0  0  -0.283688  0  3.369207  0  0  -0.298945  0  3.386333  0  0  -0.304398  -0.273026  0  3.357511  0
