# generated using pymatgen
data_HgH9C12I2N2Cl
_symmetry_space_group_name_H-M   'P 1'
_cell_length_a   4.80417993
_cell_length_b   16.95269393
_cell_length_c   18.12450581
_cell_angle_alpha   89.99959574
_cell_angle_beta   90.00054575
_cell_angle_gamma   89.99999329
_symmetry_Int_Tables_number   1
_chemical_formula_structural   HgH9C12I2N2Cl
_chemical_formula_sum   'Hg4 H36 C48 I8 N8 Cl4'
_cell_volume   1476.12847830
_cell_formula_units_Z   4
loop_
 _symmetry_equiv_pos_site_id
 _symmetry_equiv_pos_as_xyz
  1  'x, y, z'
loop_
 _atom_site_type_symbol
 _atom_site_label
 _atom_site_symmetry_multiplicity
 _atom_site_fract_x
 _atom_site_fract_y
 _atom_site_fract_z
 _atom_site_occupancy
 _atom_site_hle17_bader_spin_density
 _atom_site_hle17_ddec_charge
 _atom_site_hle17_ddec_spin_density
 _atom_site_hle17_ddec_sum_bond_order
 _atom_site_hle17_magmom
 _atom_site_hse06_10hf_bader_spin_density
 _atom_site_hse06_10hf_ddec_charge
 _atom_site_hse06_10hf_ddec_spin_density
 _atom_site_hse06_10hf_ddec_sum_bond_order
 _atom_site_hse06_10hf_magmom
 _atom_site_hse06_bader_spin_density
 _atom_site_hse06_ddec_charge
 _atom_site_hse06_ddec_spin_density
 _atom_site_hse06_ddec_sum_bond_order
 _atom_site_hse06_magmom
 _atom_site_pbe_bader_spin_density
 _atom_site_pbe_cm5_charge
 _atom_site_pbe_ddec_charge
 _atom_site_pbe_ddec_spin_density
 _atom_site_pbe_ddec_sum_bond_order
 _atom_site_pbe_magmom
Hg  Hg0  1  0.00173265  0.85863971  0.52232868  1  0  0.517163  0  2.191592  0  0  0.403195  0  2.679233  0  0  0.445627  0  2.656837  0  0  0.351261  0.375007  0  2.694434  0
Hg  Hg1  1  0.49827273  0.14135856  0.02232631  1  0  0.517153  0  2.191531  0  0  0.403181  0  2.679149  0  0  0.445608  0  2.656755  0  0  0.351247  0.374998  0  2.694353  0
Hg  Hg2  1  0.50172148  0.64135818  0.47767227  1  0  0.517121  0  2.191559  0  0  0.403139  0  2.679187  0  0  0.44557  0  2.656789  0  0  0.351241  0.374961  0  2.694366  0
Hg  Hg3  1  0.99826459  0.35864485  0.97766925  1  0  0.517147  0  2.191565  0  0  0.403179  0  2.679198  0  0  0.445611  0  2.6568  0  0  0.35128  0.374994  0  2.694401  0
H  H4  1  0.63281294  0.01282119  0.55758949  1  0  0.066733  0  0.986791  0  0  0.069968  0  1.063293  0  0  0.073266  0  1.059696  0  0  0.091482  0.067514  0  1.06604  0
H  H5  1  0.86719578  0.98717501  0.05758622  1  0  0.066794  0  0.986825  0  0  0.070028  0  1.063338  0  0  0.073327  0  1.059741  0  0  0.091516  0.067579  0  1.066088  0
H  H6  1  0.13281295  0.48717339  0.44241451  1  0  0.066789  0  0.986834  0  0  0.070031  0  1.063311  0  0  0.073328  0  1.059716  0  0  0.091528  0.067568  0  1.066063  0
H  H7  1  0.36719891  0.51282757  0.94241070  1  0  0.066815  0  0.986759  0  0  0.070037  0  1.063275  0  0  0.073334  0  1.05968  0  0  0.091524  0.06757  0  1.066032  0
H  H8  1  0.27375177  0.10438207  0.50534896  1  0  0.111709  0  0.968986  0  0  0.120064  0  1.034982  0  0  0.123556  0  1.033628  0  0  0.107817  0.117579  0  1.036119  0
H  H9  1  0.22625301  0.89561574  0.00534813  1  0  0.111732  0  0.968969  0  0  0.120052  0  1.035008  0  0  0.123544  0  1.033654  0  0  0.107795  0.117564  0  1.036148  0
H  H10  1  0.77375573  0.39561309  0.49465374  1  0  0.111689  0  0.969073  0  0  0.119998  0  1.035134  0  0  0.123487  0  1.033784  0  0  0.107803  0.11751  0  1.036273  0
H  H11  1  0.72626007  0.60438567  0.99465284  1  0  0.111708  0  0.969036  0  0  0.120009  0  1.035078  0  0  0.123502  0  1.033721  0  0  0.107776  0.117521  0  1.036215  0
H  H12  1  0.37678538  0.98552600  0.29616590  1  0  0.108036  0  0.964251  0  0  0.119411  0  1.02484  0  0  0.123286  0  1.022825  0  0  0.093505  0.116629  0  1.026463  0
H  H13  1  0.12323590  0.01447608  0.79616582  1  0  0.108005  0  0.964209  0  0  0.119345  0  1.024842  0  0  0.123246  0  1.022799  0  0  0.093485  0.116568  0  1.026452  0
H  H14  1  0.87675722  0.51447894  0.70383326  1  0  0.10796  0  0.964189  0  0  0.119317  0  1.02482  0  0  0.123212  0  1.022782  0  0  0.093473  0.116539  0  1.026438  0
H  H15  1  0.62322335  0.48552204  0.20383319  1  0  0.108  0  0.964199  0  0  0.11937  0  1.024807  0  0  0.123249  0  1.022788  0  0  0.093495  0.116591  0  1.026429  0
H  H16  1  0.72532670  0.89799395  0.35716084  1  0  0.064967  0  0.98538  0  0  0.068489  0  1.063303  0  0  0.071726  0  1.059641  0  0  0.090951  0.066116  0  1.066016  0
H  H17  1  0.77470091  0.10201058  0.85715893  1  0  0.064979  0  0.985441  0  0  0.068515  0  1.063335  0  0  0.071749  0  1.059681  0  0  0.090993  0.06616  0  1.066006  0
H  H18  1  0.22529636  0.60201219  0.64283903  1  0  0.064927  0  0.985493  0  0  0.068471  0  1.063382  0  0  0.071705  0  1.059728  0  0  0.090982  0.066114  0  1.066063  0
H  H19  1  0.27468413  0.39799165  0.14283716  1  0  0.064966  0  0.98546  0  0  0.0685  0  1.063347  0  0  0.071734  0  1.059691  0  0  0.090974  0.06614  0  1.066029  0
H  H20  1  0.05573805  0.09739811  0.30288801  1  0  0.057866  0  0.95003  0  0  0.067072  0  1.020768  0  0  0.071234  0  1.015887  0  0  0.098829  0.064021  0  1.024441  0
H  H21  1  0.44426473  0.90260273  0.80288793  1  0  0.057908  0  0.950003  0  0  0.067131  0  1.020724  0  0  0.071293  0  1.015843  0  0  0.098829  0.064083  0  1.024394  0
H  H22  1  0.55572625  0.40260413  0.69711193  1  0  0.057858  0  0.949821  0  0  0.067048  0  1.020588  0  0  0.071212  0  1.015707  0  0  0.098763  0.064  0  1.024257  0
H  H23  1  0.94426449  0.59739808  0.19711360  1  0  0.05784  0  0.950034  0  0  0.067054  0  1.020772  0  0  0.071212  0  1.015896  0  0  0.098816  0.064005  0  1.02444  0
H  H24  1  0.73290801  0.16108312  0.25983260  1  0  0.093856  0  0.976921  0  0  0.102624  0  1.044328  0  0  0.105752  0  1.042163  0  0  0.088823  0.100304  0  1.046083  0
H  H25  1  0.76708494  0.83891803  0.75983248  1  0  0.093934  0  0.976914  0  0  0.102704  0  1.044324  0  0  0.105831  0  1.04216  0  0  0.088878  0.100384  0  1.046078  0
H  H26  1  0.23290605  0.33891735  0.74016669  1  0  0.093873  0  0.976946  0  0  0.102636  0  1.044343  0  0  0.105759  0  1.042183  0  0  0.088826  0.100315  0  1.046101  0
H  H27  1  0.26709244  0.66108221  0.24016915  1  0  0.09395  0  0.976947  0  0  0.102718  0  1.044351  0  0  0.105837  0  1.042197  0  0  0.088911  0.100399  0  1.046107  0
H  H28  1  0.37745224  0.25540517  0.21916039  1  0  0.099765  0  0.976331  0  0  0.106122  0  1.047654  0  0  0.109485  0  1.04533  0  0  0.083084  0.103616  0  1.04951  0
H  H29  1  0.12253926  0.74459691  0.71916051  1  0  0.099706  0  0.976395  0  0  0.106069  0  1.047722  0  0  0.109432  0  1.0454  0  0  0.083059  0.103562  0  1.049577  0
H  H30  1  0.87745383  0.24459470  0.78083928  1  0  0.099688  0  0.976421  0  0  0.106062  0  1.04773  0  0  0.109426  0  1.045404  0  0  0.083038  0.103553  0  1.049588  0
H  H31  1  0.62254195  0.75540452  0.28084130  1  0  0.099739  0  0.97638  0  0  0.106102  0  1.047696  0  0  0.109466  0  1.045371  0  0  0.083085  0.103597  0  1.049554  0
H  H32  1  0.34586485  0.35584383  0.43801399  1  0  0.106123  0  0.960351  0  0  0.113548  0  1.02876  0  0  0.116432  0  1.026986  0  0  0.100892  0.111472  0  1.030093  0
H  H33  1  0.15413853  0.64415245  0.93801264  1  0  0.106168  0  0.960243  0  0  0.113562  0  1.028688  0  0  0.116446  0  1.026914  0  0  0.100887  0.111487  0  1.030022  0
H  H34  1  0.84585873  0.14415486  0.56198615  1  0  0.106128  0  0.960347  0  0  0.113551  0  1.028748  0  0  0.116436  0  1.026974  0  0  0.100874  0.111476  0  1.030081  0
H  H35  1  0.65413349  0.85584484  0.06198760  1  0  0.106159  0  0.960364  0  0  0.113605  0  1.028738  0  0  0.116491  0  1.026961  0  0  0.100898  0.111527  0  1.030075  0
H  H36  1  0.70057546  0.25973917  0.47961589  1  0  0.10289  0  0.970365  0  0  0.110136  0  1.040148  0  0  0.113113  0  1.038448  0  0  0.103797  0.107933  0  1.041567  0
H  H37  1  0.79942317  0.74025617  0.97961484  1  0  0.102869  0  0.970421  0  0  0.110166  0  1.040125  0  0  0.113126  0  1.038446  0  0  0.103785  0.107971  0  1.041536  0
H  H38  1  0.20056576  0.24025953  0.52038497  1  0  0.102881  0  0.970395  0  0  0.110127  0  1.040175  0  0  0.11311  0  1.038468  0  0  0.103783  0.107923  0  1.041597  0
H  H39  1  0.29942706  0.75973875  0.02038522  1  0  0.102912  0  0.970348  0  0  0.110156  0  1.040123  0  0  0.113141  0  1.038415  0  0  0.103821  0.107956  0  1.041538  0
C  C40  1  0.56898625  0.00912229  0.49987033  1  0  0.109819  0  3.739291  0  0  0.083343  0  3.989951  0  0  0.090242  0  4.007696  0  0  0.030344  0.078922  0  3.977832  0
C  C41  1  0.93101933  0.99087585  0.99987019  1  0  0.109668  0  3.739277  0  0  0.083137  0  3.989967  0  0  0.090034  0  4.007712  0  0  0.03026  0.078708  0  3.97786  0
C  C42  1  0.06898205  0.49087524  0.50013074  1  0  0.109662  0  3.739297  0  0  0.083161  0  3.989966  0  0  0.090058  0  4.007709  0  0  0.030282  0.078746  0  3.977852  0
C  C43  1  0.43102254  0.50912556  0.00012910  1  0  0.109615  0  3.739518  0  0  0.083135  0  3.990172  0  0  0.090035  0  4.007914  0  0  0.030257  0.078719  0  3.978061  0
C  C44  1  0.37052315  0.05968310  0.47082526  1  0  -0.127435  0  3.66882  0  0  -0.147718  0  3.912767  0  0  -0.153791  0  3.93179  0  0  -0.079139  -0.143888  0  3.900055  0
C  C45  1  0.12948972  0.94031469  0.97082467  1  0  -0.127439  0  3.668858  0  0  -0.147705  0  3.912814  0  0  -0.153775  0  3.931835  0  0  -0.079121  -0.143872  0  3.900106  0
C  C46  1  0.87051583  0.44031323  0.52917549  1  0  -0.127288  0  3.668848  0  0  -0.147589  0  3.9128  0  0  -0.153647  0  3.931824  0  0  -0.079101  -0.143752  0  3.900081  0
C  C47  1  0.62948981  0.55968732  0.02917495  1  0  -0.127385  0  3.668888  0  0  -0.147655  0  3.912817  0  0  -0.15371  0  3.931848  0  0  -0.079106  -0.143818  0  3.900093  0
C  C48  1  0.29418414  0.05246979  0.39635695  1  0  0.096738  0  3.770167  0  0  0.11201  0  4.002503  0  0  0.115387  0  4.023853  0  0  0.00713  0.109941  0  3.987791  0
C  C49  1  0.20582818  0.94753094  0.89635761  1  0  0.096643  0  3.770273  0  0  0.111944  0  4.002568  0  0  0.115318  0  4.023921  0  0  0.007044  0.109876  0  3.987849  0
C  C50  1  0.79416904  0.44753127  0.60364471  1  0  0.096535  0  3.770329  0  0  0.111894  0  4.002548  0  0  0.115242  0  4.023934  0  0  0.007027  0.109824  0  3.987833  0
C  C51  1  0.70582257  0.55246930  0.10364497  1  0  0.096661  0  3.770314  0  0  0.112029  0  4.002516  0  0  0.115361  0  4.023921  0  0  0.007056  0.109958  0  3.987804  0
C  C52  1  0.42622877  0.99373096  0.35438711  1  0  -0.152342  0  3.68593  0  0  -0.1702  0  3.92915  0  0  -0.177725  0  3.949409  0  0  -0.085545  -0.165221  0  3.915441  0
C  C53  1  0.07378832  0.00627126  0.85438696  1  0  -0.152212  0  3.68587  0  0  -0.170045  0  3.929064  0  0  -0.177587  0  3.949308  0  0  -0.085502  -0.165073  0  3.915356  0
C  C54  1  0.92621313  0.50627103  0.64561218  1  0  -0.152101  0  3.685933  0  0  -0.169979  0  3.929132  0  0  -0.177508  0  3.949384  0  0  -0.085488  -0.165009  0  3.915429  0
C  C55  1  0.57377996  0.49373040  0.14561248  1  0  -0.152305  0  3.685804  0  0  -0.170201  0  3.929004  0  0  -0.177713  0  3.949272  0  0  -0.085524  -0.165226  0  3.915297  0
C  C56  1  0.62106178  0.94477578  0.38796967  1  0  0.117146  0  3.745299  0  0  0.088075  0  3.999176  0  0  0.095613  0  4.017383  0  0  0.031032  0.083136  0  3.986777  0
C  C57  1  0.87896067  0.05522557  0.88796833  1  0  0.117041  0  3.745609  0  0  0.08795  0  3.999458  0  0  0.095483  0  4.01768  0  0  0.030987  0.083008  0  3.987046  0
C  C58  1  0.12103661  0.55522623  0.61203103  1  0  0.117015  0  3.745745  0  0  0.087917  0  3.999614  0  0  0.095453  0  4.01783  0  0  0.030955  0.082977  0  3.987197  0
C  C59  1  0.37894279  0.44477430  0.11202912  1  0  0.117199  0  3.745175  0  0  0.088145  0  3.999034  0  0  0.095682  0  4.017241  0  0  0.031073  0.083215  0  3.986617  0
C  C60  1  0.08554648  0.10419208  0.36289077  1  0  0.116317  0  3.671259  0  0  0.084978  0  3.927743  0  0  0.092185  0  3.939516  0  0  0.071443  0.0802  0  3.919569  0
C  C61  1  0.41446258  0.89580831  0.86289121  1  0  0.116269  0  3.671358  0  0  0.084905  0  3.927823  0  0  0.09211  0  3.939599  0  0  0.071486  0.080126  0  3.919645  0
C  C62  1  0.58552841  0.39580780  0.63710649  1  0  0.116351  0  3.671415  0  0  0.085011  0  3.927847  0  0  0.092221  0  3.939627  0  0  0.071598  0.080236  0  3.919672  0
C  C63  1  0.91446230  0.60419192  0.13711025  1  0  0.116383  0  3.671462  0  0  0.084991  0  3.927944  0  0  0.092215  0  3.939724  0  0  0.071466  0.080219  0  3.919763  0
C  C64  1  0.74953303  0.20474832  0.37305488  1  0  0.185459  0  3.837952  0  0  0.189939  0  4.082098  0  0  0.19251  0  4.107353  0  0  0.081704  0.188295  0  4.064743  0
C  C65  1  0.75046600  0.79525079  0.87305500  1  0  0.185564  0  3.837964  0  0  0.190028  0  4.082134  0  0  0.192602  0  4.107384  0  0  0.081733  0.18839  0  4.064772  0
C  C66  1  0.24952500  0.29525097  0.62694500  1  0  0.185475  0  3.838017  0  0  0.189959  0  4.082151  0  0  0.192532  0  4.107405  0  0  0.081681  0.188316  0  4.064796  0
C  C67  1  0.25047366  0.70474768  0.12694548  1  0  0.185469  0  3.838132  0  0  0.189965  0  4.082256  0  0  0.192536  0  4.10751  0  0  0.081689  0.188322  0  4.0649  0
C  C68  1  0.65393165  0.20390802  0.29953993  1  0  -0.122348  0  3.715903  0  0  -0.138479  0  3.957492  0  0  -0.142499  0  3.98053  0  0  -0.091631  -0.135716  0  3.941739  0
C  C69  1  0.84606687  0.79609164  0.79953919  1  0  -0.122538  0  3.715997  0  0  -0.138674  0  3.957596  0  0  -0.142694  0  3.980635  0  0  -0.091713  -0.135914  0  3.941844  0
C  C70  1  0.15392621  0.29609186  0.70046026  1  0  -0.122465  0  3.715899  0  0  -0.138593  0  3.957499  0  0  -0.14261  0  3.980538  0  0  -0.09164  -0.135831  0  3.941748  0
C  C71  1  0.34607504  0.70390623  0.20046154  1  0  -0.122524  0  3.716025  0  0  -0.138671  0  3.957628  0  0  -0.142687  0  3.98067  0  0  -0.091758  -0.135906  0  3.941882  0
C  C72  1  0.45263152  0.25718048  0.27588092  1  0  -0.12688  0  3.769968  0  0  -0.146106  0  4.017095  0  0  -0.149762  0  4.039794  0  0  -0.104195  -0.14335  0  4.001587  0
C  C73  1  0.04735990  0.74282116  0.77588141  1  0  -0.126754  0  3.770093  0  0  -0.145978  0  4.017199  0  0  -0.149636  0  4.039899  0  0  -0.104178  -0.143231  0  4.001693  0
C  C74  1  0.95262903  0.24281880  0.72411838  1  0  -0.126733  0  3.76994  0  0  -0.145977  0  4.017102  0  0  -0.149633  0  4.039801  0  0  -0.104156  -0.143228  0  4.001604  0
C  C75  1  0.54736891  0.75717967  0.22411910  1  0  -0.126867  0  3.770082  0  0  -0.146091  0  4.017234  0  0  -0.149744  0  4.039933  0  0  -0.104212  -0.143347  0  4.00174  0
C  C76  1  0.34611474  0.31264699  0.32558016  1  0  0.142274  0  3.790226  0  0  0.154018  0  4.051319  0  0  0.156292  0  4.074778  0  0  0.012052  0.152268  0  4.035335  0
C  C77  1  0.15388260  0.68735250  0.82557964  1  0  0.142221  0  3.790201  0  0  0.153951  0  4.05131  0  0  0.156225  0  4.074767  0  0  0.01205  0.152206  0  4.035322  0
C  C78  1  0.84611050  0.18735229  0.67442052  1  0  0.142283  0  3.790168  0  0  0.153994  0  4.051287  0  0  0.156264  0  4.07475  0  0  0.012032  0.152236  0  4.035317  0
C  C79  1  0.65388777  0.81264656  0.17442170  1  0  0.14234  0  3.790159  0  0  0.154054  0  4.051279  0  0  0.15632  0  4.074747  0  0  0.012053  0.152304  0  4.035298  0
C  C80  1  0.43352533  0.31374624  0.39901290  1  0  -0.129728  0  3.76599  0  0  -0.152602  0  4.020905  0  0  -0.155067  0  4.041274  0  0  -0.099728  -0.150788  0  4.007042  0
C  C81  1  0.06647043  0.68625151  0.89901215  1  0  -0.129725  0  3.765917  0  0  -0.152574  0  4.020853  0  0  -0.155038  0  4.041218  0  0  -0.099677  -0.150767  0  4.007002  0
C  C82  1  0.93352266  0.18625186  0.60098801  1  0  -0.12978  0  3.765914  0  0  -0.152636  0  4.020842  0  0  -0.155102  0  4.041215  0  0  -0.099687  -0.150822  0  4.006983  0
C  C83  1  0.56647510  0.81374696  0.10098786  1  0  -0.129808  0  3.765872  0  0  -0.152686  0  4.020804  0  0  -0.155149  0  4.041175  0  0  -0.09972  -0.150866  0  4.006943  0
C  C84  1  0.63285217  0.25974293  0.42222058  1  0  -0.109476  0  3.695032  0  0  -0.129776  0  3.945996  0  0  -0.132543  0  3.965861  0  0  -0.082364  -0.127814  0  3.932506  0
C  C85  1  0.86714651  0.74025285  0.92221916  1  0  -0.109485  0  3.695244  0  0  -0.12979  0  3.946182  0  0  -0.132546  0  3.966061  0  0  -0.082385  -0.127841  0  3.932686  0
C  C86  1  0.13284450  0.24025518  0.57778066  1  0  -0.109423  0  3.695188  0  0  -0.129703  0  3.946119  0  0  -0.132475  0  3.965984  0  0  -0.08234  -0.127745  0  3.932631  0
C  C87  1  0.36715035  0.75974266  0.07778053  1  0  -0.109458  0  3.69516  0  0  -0.129762  0  3.946126  0  0  -0.132535  0  3.96599  0  0  -0.082373  -0.127806  0  3.932635  0
I  I88  1  0.11500704  0.93855691  0.64717997  1  0  -0.334154  0  1.193174  0  0  -0.301526  0  1.543218  0  0  -0.317904  0  1.525137  0  0  -0.163553  -0.290813  0  1.55671  0
I  I89  1  0.38499650  0.06144335  0.14717893  1  0  -0.334154  0  1.193123  0  0  -0.301531  0  1.543155  0  0  -0.317902  0  1.525061  0  0  -0.163552  -0.290808  0  1.556656  0
I  I90  1  0.61500813  0.56143861  0.35282237  1  0  -0.33412  0  1.193093  0  0  -0.301506  0  1.543145  0  0  -0.317872  0  1.525043  0  0  -0.163558  -0.290819  0  1.556668  0
I  I91  1  0.88497978  0.43856478  0.85281634  1  0  -0.334155  0  1.193119  0  0  -0.301526  0  1.543164  0  0  -0.317908  0  1.525092  0  0  -0.163559  -0.290811  0  1.55665  0
I  I92  1  0.12920494  0.77015099  0.40163619  1  0  -0.287502  0  1.407772  0  0  -0.241171  0  1.80262  0  0  -0.262009  0  1.784718  0  0  -0.119688  -0.227083  0  1.815415  0
I  I93  1  0.37078467  0.22985029  0.90163479  1  0  -0.287486  0  1.40772  0  0  -0.24117  0  1.802592  0  0  -0.26199  0  1.784662  0  0  -0.119679  -0.227075  0  1.815387  0
I  I94  1  0.62920009  0.72985102  0.59836288  1  0  -0.287491  0  1.407751  0  0  -0.241179  0  1.802623  0  0  -0.262003  0  1.784703  0  0  -0.119689  -0.22711  0  1.815447  0
I  I95  1  0.87079758  0.27015194  0.09835933  1  0  -0.287483  0  1.407789  0  0  -0.241169  0  1.802651  0  0  -0.261997  0  1.784736  0  0  -0.119686  -0.227129  0  1.815548  0
N  N96  1  0.69063579  0.95216076  0.45937913  1  0  -0.293954  0  3.265736  0  0  -0.216103  0  3.524791  0  0  -0.237103  0  3.548233  0  0  -0.320828  -0.201816  0  3.508454  0
N  N97  1  0.80937877  0.04783945  0.95937546  1  0  -0.293799  0  3.265812  0  0  -0.215884  0  3.524811  0  0  -0.236883  0  3.548259  0  0  -0.320723  -0.201603  0  3.508486  0
N  N98  1  0.19061851  0.54784007  0.54062285  1  0  -0.293823  0  3.265901  0  0  -0.215907  0  3.524872  0  0  -0.236908  0  3.548321  0  0  -0.320756  -0.201622  0  3.508528  0
N  N99  1  0.30937295  0.45216337  0.04061851  1  0  -0.293866  0  3.265794  0  0  -0.216023  0  3.524824  0  0  -0.237022  0  3.548268  0  0  -0.320791  -0.201736  0  3.508479  0
N  N100  1  0.95085824  0.15414739  0.40285805  1  0  -0.317191  0  3.101163  0  0  -0.278691  0  3.371613  0  0  -0.289835  0  3.389313  0  0  -0.299772  -0.271144  0  3.359465  0
N  N101  1  0.54914600  0.84585149  0.90285787  1  0  -0.317243  0  3.101217  0  0  -0.278745  0  3.371701  0  0  -0.28989  0  3.389402  0  0  -0.299818  -0.271199  0  3.359551  0
N  N102  1  0.45085124  0.34585484  0.59714346  1  0  -0.317194  0  3.101405  0  0  -0.278692  0  3.371835  0  0  -0.289835  0  3.389534  0  0  -0.29981  -0.271146  0  3.359686  0
N  N103  1  0.04914845  0.65414522  0.09714375  1  0  -0.317232  0  3.10142  0  0  -0.278708  0  3.371831  0  0  -0.289851  0  3.389522  0  0  -0.299764  -0.271161  0  3.359679  0
Cl  Cl104  1  0.09983494  0.38042690  0.29652449  1  0  -0.095848  0  1.384496  0  0  -0.070604  0  1.622035  0  0  -0.077463  0  1.620312  0  0  0.002299  -0.065286  0  1.623245  0
Cl  Cl105  1  0.40015930  0.61957282  0.79652449  1  0  -0.095828  0  1.384497  0  0  -0.070577  0  1.622035  0  0  -0.077432  0  1.620312  0  0  0.002303  -0.065264  0  1.623242  0
Cl  Cl106  1  0.59983797  0.11957122  0.70347501  1  0  -0.095816  0  1.38454  0  0  -0.07057  0  1.6221  0  0  -0.077425  0  1.620379  0  0  0.002322  -0.065255  0  1.623309  0
Cl  Cl107  1  0.90016132  0.88042682  0.20347638  1  0  -0.095815  0  1.384542  0  0  -0.070557  0  1.622083  0  0  -0.077411  0  1.620361  0  0  0.002343  -0.065242  0  1.623295  0
