# generated using pymatgen
data_Zn4H5C24S4ClO13F2
_symmetry_space_group_name_H-M   'P 1'
_cell_length_a   19.67947554
_cell_length_b   19.70825672
_cell_length_c   33.39800020
_cell_angle_alpha   79.05033505
_cell_angle_beta   79.13287939
_cell_angle_gamma   63.90884640
_symmetry_Int_Tables_number   1
_chemical_formula_structural   Zn4H5C24S4ClO13F2
_chemical_formula_sum   'Zn16 H20 C96 S16 Cl4 O52 F8'
_cell_volume   11340.29541546
_cell_formula_units_Z   4
loop_
 _symmetry_equiv_pos_site_id
 _symmetry_equiv_pos_as_xyz
  1  'x, y, z'
loop_
 _atom_site_type_symbol
 _atom_site_label
 _atom_site_symmetry_multiplicity
 _atom_site_fract_x
 _atom_site_fract_y
 _atom_site_fract_z
 _atom_site_occupancy
 _atom_site_pbe_bader_charge
 _atom_site_pbe_bader_spin_density
 _atom_site_pbe_cm5_charge
 _atom_site_pbe_ddec_charge
 _atom_site_pbe_ddec_spin_density
 _atom_site_pbe_ddec_sum_bond_order
 _atom_site_pbe_magmom
Zn  Zn0  1  0.05487994  0.40016188  0.47801055  1  1.316737  0  0.670808  0.971802  0  2.337233  0
Zn  Zn1  1  0.98484973  0.48375648  0.56101979  1  1.306418  0  0.675197  0.968644  0  2.358753  0
Zn  Zn2  1  0.05883003  0.56018811  0.48255009  1  1.321162  0  0.674435  0.968203  0  2.386859  0
Zn  Zn3  1  0.90125143  0.55510313  0.47964879  1  1.321126  0  0.674373  0.968561  0  2.385629  0
Zn  Zn4  1  0.69465628  0.34900568  0.27174730  1  1.314955  0  0.671957  0.967836  0  2.360557  0
Zn  Zn5  1  0.68871099  0.18952534  0.26623843  1  1.310222  0  0.671477  0.969001  0  2.34624  0
Zn  Zn6  1  0.76853799  0.26642581  0.19062124  1  1.311913  0  0.674569  0.968723  0  2.380044  0
Zn  Zn7  1  0.84822472  0.19464399  0.27269232  1  1.31823  0  0.673076  0.962877  0  2.372426  0
Zn  Zn8  1  0.26700632  0.76649716  0.68962472  1  1.309458  0  0.671681  0.961512  0  2.374052  0
Zn  Zn9  1  0.34945176  0.69605498  0.77227084  1  1.318351  0  0.674227  0.970525  0  2.350244  0
Zn  Zn10  1  0.19355926  0.84754712  0.77124175  1  1.319715  0  0.672953  0.969599  0  2.379945  0
Zn  Zn11  1  0.19087743  0.68831593  0.76657748  1  1.317264  0  0.673876  0.966976  0  2.36566  0
Zn  Zn12  1  0.56060909  0.05988405  0.98329939  1  1.316572  0  0.672813  0.965985  0  2.365349  0
Zn  Zn13  1  0.40131848  0.05508542  0.97821012  1  1.314781  0  0.672617  0.963427  0  2.367745  0
Zn  Zn14  1  0.55493879  0.90128541  0.97814844  1  1.313699  0  0.672182  0.966851  0  2.36754  0
Zn  Zn15  1  0.48384378  0.98294412  0.06037030  1  1.313752  0  0.672074  0.96595  0  2.363838  0
H  H16  1  0.95485450  0.24862354  0.35168401  1  0.090629  0  0.11165  0.119116  0  0.989829  0
H  H17  1  0.74730453  0.45363405  0.35030885  1  0.107247  0  0.111491  0.130928  0  0.993409  0
H  H18  1  0.99972714  0.29943509  0.39959442  1  0.090211  0  0.112559  0.120574  0  0.989045  0
H  H19  1  0.09689390  0.59678627  0.69988307  1  0.117649  0  0.112513  0.11999  0  0.98829  0
H  H20  1  0.20156892  0.70141489  0.59799686  1  0.138696  0  0.110541  0.130061  0  0.995311  0
H  H21  1  0.05057148  0.55080537  0.65029077  1  0.11033  0  0.114301  0.123235  0  0.986735  0
H  H22  1  0.46329241  0.24026886  0.34105305  1  0.147221  0  0.122506  0.148142  0  0.967412  0
H  H23  1  0.47935595  0.70257932  0.60141717  1  0.119039  0  0.122757  0.149058  0  0.966404  0
H  H24  1  0.20272037  0.97916648  0.60163665  1  0.119028  0  0.12265  0.148813  0  0.966575  0
H  H25  1  0.94832032  0.97020181  0.34793867  1  0.110949  0  0.123706  0.150201  0  0.965284  0
H  H26  1  0.54996087  0.05001378  0.15345701  1  0.074203  0  0.11165  0.119178  0  0.989633  0
H  H27  1  0.65175783  0.15194463  0.04880428  1  0.108154  0  0.111518  0.1312  0  0.993452  0
H  H28  1  0.59950572  0.09945682  0.19968202  1  0.131463  0  0.112701  0.121045  0  0.989307  0
H  H29  1  0.54755497  0.77036117  0.14828979  1  0.108574  0  0.123189  0.149252  0  0.965457  0
H  H30  1  0.16292499  0.14127750  0.04062192  1  0.120939  0  0.123446  0.149711  0  0.965671  0
H  H31  1  0.50148314  0.79503037  0.89837345  1  0.089944  0  0.112425  0.12005  0  0.98796  0
H  H32  1  0.29664196  0.00277971  0.89964776  1  0.133861  0  0.110491  0.129004  0  0.995369  0
H  H33  1  0.45014570  0.75081696  0.85044498  1  0.101578  0  0.114386  0.123135  0  0.986165  0
H  H34  1  0.30126572  0.27972567  0.90210701  1  0.147128  0  0.123023  0.149197  0  0.965938  0
H  H35  1  0.78689096  0.00953545  0.90897734  1  0.148159  0  0.123528  0.14961  0  0.965178  0
C  C36  1  0.06146463  0.31637113  0.56170437  1  1.609117  0  0.216187  0.630411  0  4.220219  0
C  C37  1  0.06878286  0.56973656  0.56946538  1  1.595814  0  0.226921  0.61287  0  4.164397  0
C  C38  1  0.18324845  0.43974359  0.43857278  1  1.610392  0  0.216267  0.630498  0  4.218963  0
C  C39  1  0.93712130  0.68376006  0.43878442  1  1.589059  0  0.215551  0.627464  0  4.224102  0
C  C40  1  0.93174225  0.42965598  0.43087575  1  1.571208  0  0.227798  0.617281  0  4.163308  0
C  C41  1  0.81684659  0.56119657  0.56214387  1  1.58017  0  0.215854  0.629073  0  4.222242  0
C  C42  1  0.56570829  0.31146613  0.31127494  1  1.570953  0  0.219082  0.612722  0  4.216775  0
C  C43  1  0.68057250  0.18006092  0.18123448  1  1.56466  0  0.227768  0.615926  0  4.159376  0
C  C44  1  0.68966534  0.43322232  0.18836873  1  1.605893  0  0.216109  0.630391  0  4.217498  0
C  C45  1  0.93491015  0.18791488  0.18977850  1  1.590173  0  0.216229  0.629191  0  4.219126  0
C  C46  1  0.81949970  0.31928958  0.31953577  1  1.558507  0  0.23135  0.606495  0  4.15992  0
C  C47  1  0.81097982  0.06595186  0.31152674  1  1.629792  0  0.218816  0.611922  0  4.218779  0
C  C48  1  0.43372700  0.68947468  0.68832247  1  1.569094  0  0.218332  0.611288  0  4.217515  0
C  C49  1  0.31962322  0.81909172  0.81917696  1  1.582078  0  0.227913  0.615305  0  4.163686  0
C  C50  1  0.18872046  0.93349603  0.68842572  1  1.554137  0  0.218656  0.610471  0  4.220155  0
C  C51  1  0.06603921  0.80977772  0.81103944  1  1.597716  0  0.216055  0.629237  0  4.220755  0
C  C52  1  0.18088980  0.68037946  0.68058601  1  1.552286  0  0.230259  0.604494  0  4.160733  0
C  C53  1  0.31264800  0.56609725  0.81129692  1  1.590022  0  0.216312  0.629427  0  4.221055  0
C  C54  1  0.43852193  0.18385001  0.93869320  1  1.538123  0  0.218826  0.61068  0  4.216943  0
C  C55  1  0.43088516  0.93028253  0.93061823  1  1.569133  0  0.23086  0.606445  0  4.159284  0
C  C56  1  0.68403703  0.93870382  0.93868297  1  1.569836  0  0.218732  0.611567  0  4.215273  0
C  C57  1  0.56144151  0.81593756  0.06143975  1  1.571502  0  0.218901  0.61048  0  4.219526  0
C  C58  1  0.56932055  0.06905886  0.06963800  1  1.558089  0  0.230786  0.605394  0  4.159957  0
C  C59  1  0.31610199  0.06138438  0.06125650  1  1.551131  0  0.218305  0.610557  0  4.219531  0
C  C60  1  0.89977840  0.40454162  0.40205505  1  0.092786  0  -0.013487  -0.091767  0  3.906653  0
C  C61  1  0.84816267  0.34820165  0.34803623  1  -0.062665  0  -0.009906  -0.009241  0  3.973192  0
C  C62  1  0.82777181  0.44815453  0.38772748  1  0.002517  0  0.026513  0.144226  0  3.997776  0
C  C63  1  0.91968641  0.30431708  0.36189613  1  0.016898  0  -0.081833  -0.100542  0  3.975886  0
C  C64  1  0.80284527  0.41963609  0.36102133  1  0.062016  0  -0.085243  -0.161654  0  3.947867  0
C  C65  1  0.94438405  0.33265060  0.38845148  1  -0.030442  0  -0.076852  -0.075538  0  3.968828  0
C  C66  1  0.09934856  0.59976281  0.59648102  1  -0.033823  0  -0.013562  -0.090938  0  3.907796  0
C  C67  1  0.15215040  0.65204346  0.65185914  1  -0.035432  0  -0.009401  -0.008351  0  3.972103  0
C  C68  1  0.14260655  0.64278176  0.58185388  1  0.103299  0  0.025923  0.144978  0  3.99861  0
C  C69  1  0.10944316  0.60940020  0.66687115  1  -0.005007  0  -0.081035  -0.098897  0  3.972037  0
C  C70  1  0.16837351  0.66838129  0.60956867  1  0.017444  0  -0.086067  -0.16407  0  3.952025  0
C  C71  1  0.08383049  0.58401940  0.63930139  1  -0.051092  0  -0.075123  -0.075056  0  3.964981  0
C  C72  1  0.30425612  0.45361722  0.40094539  1  0.558876  0  0.101826  0.25271  0  4.080072  0
C  C73  1  0.44620978  0.29700347  0.34899704  1  0.048665  0  -0.086627  -0.129696  0  3.959104  0
C  C74  1  0.25809205  0.41494819  0.41392155  1  -0.147405  0  -0.036104  -0.244534  0  3.976502  0
C  C75  1  0.49102811  0.33683173  0.33640914  1  -0.210127  0  -0.022981  -0.120258  0  3.978645  0
C  C76  1  0.37808793  0.33992142  0.37260510  1  -0.15109  0  -0.020012  0.006652  0  4.084048  0
C  C77  1  0.37283276  0.41172013  0.37737959  1  -0.107949  0  -0.031315  -0.135692  0  4.10317  0
C  C78  1  0.72536081  0.57626318  0.62939464  1  0.617036  0  0.102341  0.251892  0  4.081569  0
C  C79  1  0.52410977  0.67361387  0.62140805  1  0.008288  0  -0.085699  -0.129922  0  3.958432  0
C  C80  1  0.74229669  0.58555458  0.58699776  1  -0.13335  0  -0.036795  -0.245683  0  3.980473  0
C  C81  1  0.50887545  0.66378761  0.66374917  1  -0.079729  0  -0.023337  -0.119667  0  3.97954  0
C  C82  1  0.60334288  0.64150322  0.60904134  1  -0.173491  0  -0.01955  0.006947  0  4.084576  0
C  C83  1  0.64646294  0.60785798  0.64250343  1  -0.120143  0  -0.032421  -0.137154  0  4.107236  0
C  C84  1  0.07673642  0.22500490  0.62910218  1  0.582716  0  0.102624  0.253265  0  4.080597  0
C  C85  1  0.17381994  0.02391505  0.62153038  1  0.008829  0  -0.086543  -0.130882  0  3.959831  0
C  C86  1  0.08600402  0.24184393  0.58667782  1  -0.094723  0  -0.036935  -0.245788  0  3.97898  0
C  C87  1  0.16372863  0.00868947  0.66387028  1  -0.078625  0  -0.022372  -0.117747  0  3.976184  0
C  C88  1  0.14190834  0.10303243  0.60904450  1  -0.159749  0  -0.020036  0.007129  0  4.087145  0
C  C89  1  0.10823505  0.14620051  0.64239493  1  -0.135234  0  -0.03189  -0.13631  0  4.103645  0
C  C90  1  0.84394352  0.80085922  0.39726488  1  0.560743  0  0.102585  0.25444  0  4.080537  0
C  C91  1  0.90398810  0.94976713  0.35249702  1  0.082888  0  -0.085952  -0.130054  0  3.955041  0
C  C92  1  0.91221673  0.75819314  0.41379861  1  -0.102082  0  -0.03628  -0.245841  0  3.979372  0
C  C93  1  0.83537702  0.99106853  0.33640186  1  -0.233713  0  -0.022927  -0.118778  0  3.977868  0
C  C94  1  0.90687877  0.88019705  0.37463911  1  -0.180757  0  -0.019181  0.00766  0  4.082701  0
C  C95  1  0.83995207  0.87047458  0.37483675  1  -0.102433  0  -0.032622  -0.137522  0  4.108177  0
C  C96  1  0.65338281  0.15325288  0.15086088  1  -0.019256  0  -0.013702  -0.090605  0  3.905308  0
C  C97  1  0.59796463  0.09793718  0.09817683  1  0.010141  0  -0.009719  -0.008479  0  3.97076  0
C  C98  1  0.66790858  0.16793852  0.10767796  1  0.101258  0  0.02724  0.1456  0  3.998331  0
C  C99  1  0.58296736  0.08298648  0.14089341  1  0.009546  0  -0.082334  -0.100632  0  3.975857  0
C  C100  1  0.64019596  0.14025689  0.08193762  1  0.002962  0  -0.085022  -0.162612  0  3.948972  0
C  C101  1  0.61050818  0.11049638  0.16643879  1  -0.055802  0  -0.076144  -0.076215  0  3.969857  0
C  C102  1  0.67363552  0.52443466  0.12088138  1  0.582533  0  0.102881  0.252322  0  4.080021  0
C  C103  1  0.57647753  0.72558652  0.12840359  1  0.025037  0  -0.085707  -0.129894  0  3.95646  0
C  C104  1  0.66445764  0.50766123  0.16332597  1  -0.089868  0  -0.036835  -0.245824  0  3.976828  0
C  C105  1  0.58652111  0.74078563  0.08605889  1  -0.078894  0  -0.022477  -0.118041  0  3.975408  0
C  C106  1  0.60835262  0.64645008  0.14091708  1  -0.164489  0  -0.018897  0.008059  0  4.082128  0
C  C107  1  0.64202712  0.60323964  0.10757054  1  -0.117531  0  -0.031881  -0.135975  0  4.103012  0
C  C108  1  0.08164086  0.12403589  0.17762879  1  0.528575  0  0.102075  0.253308  0  4.077559  0
C  C109  1  0.17047837  0.12473594  0.07300494  1  0.095432  0  -0.085489  -0.12963  0  3.954737  0
C  C110  1  0.00954671  0.16291061  0.16492288  1  -0.094606  0  -0.036283  -0.245676  0  3.976291  0
C  C111  1  0.24162240  0.08598261  0.08656252  1  -0.184464  0  -0.022942  -0.118362  0  3.975232  0
C  C112  1  0.11220371  0.13850918  0.10642204  1  -0.138256  0  -0.018501  0.007974  0  4.080105  0
C  C113  1  0.14077788  0.10965400  0.14473479  1  -0.18483  0  -0.032264  -0.136331  0  4.10556  0
C  C114  1  0.34510139  0.85090662  0.84789673  1  0.043339  0  -0.013415  -0.09107  0  3.906716  0
C  C115  1  0.40202773  0.90188780  0.90196358  1  -0.035632  0  -0.009479  -0.009487  0  3.971614  0
C  C116  1  0.30171870  0.92278807  0.86218928  1  0.06115  0  0.02637  0.144569  0  3.999276  0
C  C117  1  0.44572102  0.83044704  0.88814017  1  0.016042  0  -0.080628  -0.098865  0  3.970664  0
C  C118  1  0.33050902  0.94739104  0.88890268  1  -0.01118  0  -0.085416  -0.161068  0  3.950285  0
C  C119  1  0.41710554  0.80608279  0.86155092  1  -0.024657  0  -0.07537  -0.074546  0  3.962417  0
C  C120  1  0.40581207  0.44891768  0.85286384  1  0.563766  0  0.102416  0.254155  0  4.078876  0
C  C121  1  0.34566229  0.30004995  0.89759143  1  0.057293  0  -0.085951  -0.130494  0  3.956277  0
C  C122  1  0.33762130  0.49154700  0.83624223  1  -0.094958  0  -0.036583  -0.246562  0  3.978051  0
C  C123  1  0.41419513  0.25868651  0.91377282  1  -0.145493  0  -0.022649  -0.118347  0  3.976753  0
C  C124  1  0.34297690  0.36946217  0.87531312  1  -0.151506  0  -0.019052  0.007864  0  4.081094  0
C  C125  1  0.40987700  0.37918719  0.87520732  1  -0.155846  0  -0.031331  -0.135659  0  4.102804  0
C  C126  1  0.94528666  0.79593452  0.84914327  1  0.612595  0  0.102623  0.25385  0  4.07799  0
C  C127  1  0.80383161  0.95277290  0.90111778  1  0.09099  0  -0.085341  -0.128146  0  3.953999  0
C  C128  1  0.99151778  0.83447065  0.83600216  1  -0.103782  0  -0.036791  -0.246247  0  3.975202  0
C  C129  1  0.75883412  0.91311380  0.91372524  1  -0.211906  0  -0.022381  -0.119626  0  3.977187  0
C  C130  1  0.87190140  0.90964257  0.87753794  1  -0.18486  0  -0.018939  0.007345  0  4.080548  0
C  C131  1  0.87691316  0.83789910  0.87281888  1  -0.183392  0  -0.031616  -0.136629  0  4.10442  0
S  S132  1  0.29930145  0.32542630  0.39706797  1  0.282617  0  0.085289  0.139398  0  2.739024  0
S  S133  1  0.45121305  0.42645795  0.35301071  1  0.306767  0  0.09565  0.160644  0  2.737967  0
S  S134  1  0.66021940  0.63371871  0.56251075  1  0.291446  0  0.088379  0.143793  0  2.740748  0
S  S135  1  0.59004226  0.61559375  0.68894971  1  0.276383  0  0.096248  0.161245  0  2.740313  0
S  S136  1  0.13418401  0.15973279  0.56241597  1  0.274955  0  0.085219  0.139175  0  2.742073  0
S  S137  1  0.11561930  0.08984862  0.68892297  1  0.288422  0  0.096295  0.160651  0  2.737142  0
S  S138  1  0.97296613  0.80396466  0.40174530  1  0.287377  0  0.089353  0.145039  0  2.736809  0
S  S139  1  0.77383462  0.94626874  0.34791129  1  0.304659  0  0.092724  0.156281  0  2.742792  0
S  S140  1  0.61605401  0.58980669  0.18755925  1  0.27532  0  0.088557  0.143827  0  2.737163  0
S  S141  1  0.63457463  0.65957622  0.06103482  1  0.277461  0  0.096479  0.160888  0  2.736234  0
S  S142  1  0.01393961  0.18240647  0.11161861  1  0.322131  0  0.090105  0.145816  0  2.735579  0
S  S143  1  0.23866684  0.06582207  0.13976674  1  0.306097  0  0.094474  0.158103  0  2.741192  0
S  S144  1  0.27699818  0.44563440  0.84812685  1  0.280994  0  0.088972  0.144546  0  2.73742  0
S  S145  1  0.47585627  0.30339105  0.90222765  1  0.294217  0  0.095825  0.160017  0  2.73881  0
S  S146  1  0.95071460  0.92395241  0.85291512  1  0.296104  0  0.089045  0.144603  0  2.735615  0
S  S147  1  0.79842917  0.82342168  0.89722092  1  0.304674  0  0.096148  0.160985  0  2.737869  0
Cl  Cl148  1  0.76513164  0.53735003  0.40088701  1  -0.175342  0  -0.009545  -0.069193  0  1.485145  0
Cl  Cl149  1  0.16769166  0.66727323  0.53057192  1  -0.171425  0  -0.011073  -0.071344  0  1.483397  0
Cl  Cl150  1  0.71891533  0.21940541  0.08289323  1  -0.160678  0  -0.008666  -0.068388  0  1.483729  0
Cl  Cl151  1  0.21244190  0.98567103  0.84894703  1  -0.181552  0  -0.01142  -0.071997  0  1.483128  0
O  O152  1  0.00066381  0.49817162  0.50054770  1  -1.216282  0  -0.570678  -1.032171  0  2.524579  0
O  O153  1  0.07786222  0.31518260  0.52275841  1  -1.17871  0  -0.32193  -0.549969  0  2.319194  0
O  O154  1  0.03158376  0.53092058  0.58753395  1  -1.167685  0  -0.31188  -0.540058  0  2.321973  0
O  O155  1  0.15505278  0.50627107  0.44948331  1  -1.160784  0  -0.314076  -0.533013  0  2.333217  0
O  O156  1  0.02652035  0.37470850  0.58088174  1  -1.171657  0  -0.313554  -0.534147  0  2.331018  0
O  O157  1  0.15339041  0.39182117  0.44667214  1  -1.165403  0  -0.321486  -0.551071  0  2.317314  0
O  O158  1  0.08182486  0.58501127  0.53089044  1  -1.182889  0  -0.312892  -0.545711  0  2.438639  0
O  O159  1  0.00422462  0.65684438  0.44946871  1  -1.168423  0  -0.319181  -0.54366  0  2.32621  0
O  O160  1  0.89081177  0.49409126  0.44336739  1  -1.171533  0  -0.312757  -0.546379  0  2.442642  0
O  O161  1  0.89040965  0.65287632  0.44760586  1  -1.162286  0  -0.313541  -0.533702  0  2.331092  0
O  O162  1  0.99807585  0.38388767  0.44071423  1  -1.165706  0  -0.31438  -0.546033  0  2.315904  0
O  O163  1  0.87557637  0.52621919  0.58114360  1  -1.155177  0  -0.313569  -0.536083  0  2.328914  0
O  O164  1  0.81533497  0.57791586  0.52321610  1  -1.161328  0  -0.319874  -0.543847  0  2.328272  0
O  O165  1  0.74944853  0.24955204  0.25085282  1  -1.215535  0  -0.569736  -1.030067  0  2.52101  0
O  O166  1  0.59646552  0.35859349  0.30319222  1  -1.152087  0  -0.319218  -0.546681  0  2.332078  0
O  O167  1  0.66176339  0.16279242  0.21931591  1  -1.156376  0  -0.313685  -0.544568  0  2.316628  0
O  O168  1  0.72609416  0.37468678  0.16939431  1  -1.171246  0  -0.313719  -0.534238  0  2.33025  0
O  O169  1  0.59273227  0.24531586  0.29987500  1  -1.175307  0  -0.316208  -0.539706  0  2.31163  0
O  O170  1  0.67250977  0.43436009  0.22729564  1  -1.174311  0  -0.320527  -0.548502  0  2.320961  0
O  O171  1  0.72006563  0.21765164  0.16708370  1  -1.176324  0  -0.312901  -0.546568  0  2.437685  0
O  O172  1  0.87719003  0.22375882  0.16965537  1  -1.168817  0  -0.319241  -0.543678  0  2.325077  0
O  O173  1  0.86297891  0.25327016  0.30905650  1  -1.1659  0  -0.311898  -0.542318  0  2.335392  0
O  O174  1  0.93402962  0.17205873  0.22864551  1  -1.146756  0  -0.314566  -0.536551  0  2.326467  0
O  O175  1  0.75409911  0.36296503  0.30811337  1  -1.166127  0  -0.31226  -0.540766  0  2.334116  0
O  O176  1  0.74461495  0.09343657  0.29989929  1  -1.174335  0  -0.319969  -0.550211  0  2.332961  0
O  O177  1  0.85815954  0.09640094  0.30386575  1  -1.175755  0  -0.31516  -0.535758  0  2.31449  0
O  O178  1  0.25091927  0.74885899  0.74985529  1  -1.22726  0  -0.570457  -1.030615  0  2.52401  0
O  O179  1  0.37575712  0.72492892  0.66859953  1  -1.174132  0  -0.316301  -0.538099  0  2.31311  0
O  O180  1  0.36602223  0.75352182  0.80879183  1  -1.167825  0  -0.312366  -0.541404  0  2.319593  0
O  O181  1  0.17176378  0.93336719  0.72736889  1  -1.180826  0  -0.318448  -0.544637  0  2.337044  0
O  O182  1  0.43373641  0.67378160  0.72730650  1  -1.177851  0  -0.318241  -0.546597  0  2.334134  0
O  O183  1  0.22472557  0.87559373  0.66883778  1  -1.160585  0  -0.315944  -0.538594  0  2.313282  0
O  O184  1  0.25430222  0.85923743  0.80736114  1  -1.173306  0  -0.313372  -0.547438  0  2.438602  0
O  O185  1  0.09558974  0.85800761  0.80295970  1  -1.173815  0  -0.320119  -0.544982  0  2.325115  0
O  O186  1  0.16509485  0.66328270  0.71891666  1  -1.170766  0  -0.310268  -0.540147  0  2.336438  0
O  O187  1  0.09443861  0.74354330  0.79975564  1  -1.166333  0  -0.314023  -0.536158  0  2.328624  0
O  O188  1  0.21879258  0.71926725  0.66433753  1  -1.159638  0  -0.31325  -0.542065  0  2.336019  0
O  O189  1  0.35871447  0.59774895  0.80332111  1  -1.160349  0  -0.314522  -0.53669  0  2.327493  0
O  O190  1  0.24616418  0.59220397  0.79991355  1  -1.169903  0  -0.319808  -0.545036  0  2.324577  0
O  O191  1  0.50009045  0.99982350  0.00005366  1  -1.227108  0  -0.570081  -1.030043  0  2.523194  0
O  O192  1  0.50520584  0.15617632  0.94996618  1  -1.1738  0  -0.319276  -0.54704  0  2.333898  0
O  O193  1  0.38745463  0.99587688  0.94172844  1  -1.178067  0  -0.312894  -0.542777  0  2.335954  0
O  O194  1  0.65307005  0.89177484  0.94673629  1  -1.155175  0  -0.318657  -0.546412  0  2.334882  0
O  O195  1  0.39128331  0.15342119  0.94678267  1  -1.15498  0  -0.316127  -0.538668  0  2.311752  0
O  O196  1  0.65694148  0.00497507  0.94997469  1  -1.171446  0  -0.315938  -0.538091  0  2.311799  0
O  O197  1  0.49660355  0.88646929  0.94156274  1  -1.168285  0  -0.310478  -0.540509  0  2.334289  0
O  O198  1  0.57755150  0.81598409  0.02247054  1  -1.17987  0  -0.318525  -0.54567  0  2.335159  0
O  O199  1  0.53103932  0.03069353  0.08613617  1  -1.160421  0  -0.311602  -0.542605  0  2.331965  0
O  O200  1  0.52609424  0.87391401  0.08103082  1  -1.174812  0  -0.315915  -0.538012  0  2.312713  0
O  O201  1  0.58556765  0.08513470  0.03122050  1  -1.175059  0  -0.311854  -0.540503  0  2.336154  0
O  O202  1  0.31567297  0.07792891  0.02241198  1  -1.145826  0  -0.31567  -0.537866  0  2.312858  0
O  O203  1  0.37456105  0.02549656  0.08074395  1  -1.176798  0  -0.319289  -0.547765  0  2.335729  0
F  F204  1  0.28688090  0.52370851  0.40951251  1  -0.611942  0  -0.086864  -0.104479  0  1.352622  0
F  F205  1  0.77766308  0.54117514  0.65587675  1  -0.631609  0  -0.086761  -0.103445  0  1.349683  0
F  F206  1  0.04163929  0.27729224  0.65548744  1  -0.627249  0  -0.086936  -0.104011  0  1.350718  0
F  F207  1  0.78667501  0.77937477  0.40167047  1  -0.617119  0  -0.087331  -0.105095  0  1.351641  0
F  F208  1  0.70879406  0.47209811  0.09453224  1  -0.633046  0  -0.08626  -0.103139  0  1.351957  0
F  F209  1  0.09530328  0.10183628  0.21702578  1  -0.618828  0  -0.088309  -0.10609  0  1.347662  0
F  F210  1  0.46301850  0.47048865  0.84855466  1  -0.615127  0  -0.087533  -0.105255  0  1.349188  0
F  F211  1  0.96256169  0.72586139  0.84057038  1  -0.616373  0  -0.087165  -0.104598  0  1.348242  0
