# generated using pymatgen
data_CuH6C5(NO)3
_symmetry_space_group_name_H-M   'P 1'
_cell_length_a   6.42046209
_cell_length_b   7.18887329
_cell_length_c   8.55276874
_cell_angle_alpha   90.62948997
_cell_angle_beta   100.77283562
_cell_angle_gamma   101.76481900
_symmetry_Int_Tables_number   1
_chemical_formula_structural   CuH6C5(NO)3
_chemical_formula_sum   'Cu2 H12 C10 N6 O6'
_cell_volume   379.16164409
_cell_formula_units_Z   2
loop_
 _symmetry_equiv_pos_site_id
 _symmetry_equiv_pos_as_xyz
  1  'x, y, z'
loop_
 _atom_site_type_symbol
 _atom_site_label
 _atom_site_symmetry_multiplicity
 _atom_site_fract_x
 _atom_site_fract_y
 _atom_site_fract_z
 _atom_site_occupancy
 _atom_site_hle17_ddec_charge
 _atom_site_hle17_ddec_spin_density
 _atom_site_hle17_ddec_sum_bond_order
 _atom_site_hle17_magmom
 _atom_site_hse06_10hf_ddec_charge
 _atom_site_hse06_10hf_ddec_spin_density
 _atom_site_hse06_10hf_ddec_sum_bond_order
 _atom_site_hse06_10hf_magmom
 _atom_site_hse06_ddec_charge
 _atom_site_hse06_ddec_spin_density
 _atom_site_hse06_ddec_sum_bond_order
 _atom_site_hse06_magmom
 _atom_site_pbe_cm5_charge
 _atom_site_pbe_ddec_charge
 _atom_site_pbe_ddec_spin_density
 _atom_site_pbe_ddec_sum_bond_order
 _atom_site_pbe_magmom
Cu  Cu0  1  0.50000516  0.50000487  0.50000336  1  0.900222  -0.579817  1.846644  -0.389  0.910504  -0.758906  2.252808  -0.574  1.008754  -0.855199  2.168981  -0.674  0.742763  0.85755  -0.664051  2.304495  -0.489
Cu  Cu1  1  0.00000207  0.49999043  0.49999921  1  0.937102  0.692633  1.725905  0.507  0.960045  0.827638  2.095632  0.662  1.049761  0.914052  2.041364  0.757  0.712797  0.886107  0.741817  2.152007  0.583
H  H2  1  0.14843540  0.98741828  0.81324185  1  0.105447  0.000419  0.977734  0.0  0.108777  0.000234  1.048662  0.0  0.112369  0.000142  1.046437  0.0  0.100978  0.106034  0.000305  1.050472  0.0
H  H3  1  0.85155815  0.01258151  0.18675082  1  0.105505  0.000414  0.977563  0.0  0.108777  0.000234  1.048526  0.0  0.11237  0.000142  1.046299  0.0  0.100985  0.106039  0.000305  1.050326  0.0
H  H4  1  0.72680486  0.76900499  0.95925784  1  0.094946  -0.000286  0.963873  0.0  0.103809  -0.000271  1.028127  0.0  0.106995  -0.000186  1.02598  0.0  0.103153  0.101594  -0.000326  1.029694  0.0
H  H5  1  0.27318714  0.23099358  0.04073097  1  0.094918  -0.000292  0.963922  0.0  0.103788  -0.000271  1.028172  0.0  0.106975  -0.000186  1.026026  0.0  0.103167  0.101574  -0.000326  1.029739  0.0
H  H6  1  0.97897772  0.64342147  0.12988881  1  0.074586  0.000121  0.940741  0.0  0.096306  3.7e-05  0.999993  0.0  0.096579  -3.7e-05  0.999635  0.0  0.096734  0.095985  0.000132  1.000201  0.0
H  H7  1  0.02103004  0.35657892  0.87010873  1  0.074549  0.00012  0.940753  0.0  0.096253  3.7e-05  1.000022  0.0  0.096535  -3.7e-05  0.999655  0.0  0.096708  0.095933  0.000132  1.00023  0.0
H  H8  1  0.11602939  0.44892805  0.16140556  1  0.095562  8e-05  0.94518  0.0  0.112355  8.9e-05  1.009733  0.0  0.113267  2.4e-05  1.008565  0.0  0.103423  0.111422  0.000135  1.010783  0.001
H  H9  1  0.88396696  0.55107153  0.83859228  1  0.095482  7.9e-05  0.945094  0.0  0.112261  8.9e-05  1.009685  0.0  0.113174  2.5e-05  1.008516  0.0  0.103372  0.111329  0.000135  1.010736  0.001
H  H10  1  0.26427630  0.67924700  0.12656989  1  0.084471  0.003289  0.945863  0.004  0.103526  0.002497  1.007615  0.003  0.102126  0.001579  1.01022  0.002  0.09701  0.103708  0.003035  1.006644  0.004
H  H11  1  0.73573258  0.32075300  0.87343369  1  0.084473  0.003287  0.945874  0.004  0.103518  0.002496  1.007628  0.003  0.102116  0.001579  1.010237  0.002  0.097022  0.1037  0.003035  1.006658  0.004
H  H12  1  0.19187847  0.78406386  0.37034707  1  0.365341  -9.9e-05  0.930623  -0.001  0.341916  0.000101  1.007382  0.0  0.353898  -3.1e-05  0.994927  0.0  0.300289  0.333307  0.000168  1.01611  0.0
H  H13  1  0.80811296  0.21592912  0.62965893  1  0.365318  -9.9e-05  0.930588  -0.001  0.341877  0.000101  1.007373  0.0  0.35386  -3.1e-05  0.994918  0.0  0.300271  0.333272  0.000168  1.016097  0.0
C  C14  1  0.35895839  0.71640245  0.73787529  1  0.653893  -0.002342  3.846351  -0.003  0.618235  -0.000814  4.131652  -0.001  0.660942  -0.000556  4.122391  -0.001  0.225404  0.589019  -0.001123  4.137403  -0.002
C  C15  1  0.64103909  0.28359439  0.26212260  1  0.653678  -0.002329  3.846421  -0.003  0.618041  -0.000812  4.131745  -0.001  0.660744  -0.000555  4.122488  -0.001  0.225318  0.588822  -0.001122  4.137493  -0.002
C  C16  1  0.43031740  0.86259331  0.87380647  1  -0.055932  0.00481  3.74497  0.006  -0.037897  0.000637  3.975899  0.001  -0.045993  -9.8e-05  3.997176  0.0  -0.014015  -0.03215  0.001462  3.961662  0.002
C  C17  1  0.56967087  0.13740338  0.12618510  1  -0.055736  0.004698  3.744655  0.006  -0.037805  0.000637  3.97566  0.001  -0.045897  -9.8e-05  3.996935  0.0  -0.013986  -0.032055  0.001462  3.96142  0.002
C  C18  1  0.30134621  0.99285971  0.89577770  1  -0.070212  -0.000357  3.716326  -0.001  -0.090467  -0.000314  3.963291  -0.001  -0.091156  -0.000278  3.983252  -0.001  -0.083334  -0.089929  -0.000331  3.950084  -0.001
C  C19  1  0.69864065  0.00713709  0.10421129  1  -0.070292  -0.000229  3.716138  -0.001  -0.090447  -0.000313  3.963149  -0.001  -0.091132  -0.000278  3.983099  -0.001  -0.083277  -0.089911  -0.000331  3.94994  -0.001
C  C20  1  0.62866568  0.87092598  0.97839320  1  -0.066984  0.000318  3.728201  0.001  -0.090895  0.000293  3.978897  0.001  -0.091656  0.000162  3.99886  0.001  -0.081022  -0.090664  0.000327  3.9655  0.001
C  C21  1  0.37132138  0.12907101  0.02159349  1  -0.066895  0.000447  3.728207  0.001  -0.090775  0.000294  3.978929  0.001  -0.091536  0.000162  3.998891  0.001  -0.080964  -0.090544  0.000328  3.965531  0.001
C  C22  1  0.13212832  0.60208802  0.18090320  1  -0.01377  0.000265  3.60595  -0.001  -0.105536  0.002009  3.873177  0.001  -0.096608  0.001255  3.877412  0.0  -0.14979  -0.111261  0.0025  3.870825  0.001
C  C23  1  0.86787392  0.39791021  0.81909912  1  -0.013582  0.000271  3.60572  -0.001  -0.105324  0.00201  3.872911  0.001  -0.096401  0.001255  3.877146  0.0  -0.149681  -0.111044  0.0025  3.870557  0.001
N  N24  1  0.26872678  0.28803033  0.54467832  1  -0.517978  -0.053451  2.711537  -0.061  -0.578693  -0.031339  3.075018  -0.039  -0.620777  -0.019907  3.083758  -0.027  -0.315327  -0.548867  -0.036489  3.068117  -0.042
N  N25  1  0.73127470  0.71198199  0.45532348  1  -0.517999  -0.053501  2.710895  -0.061  -0.578754  -0.031367  3.074388  -0.039  -0.620849  -0.019931  3.083127  -0.027  -0.315438  -0.548918  -0.036513  3.067483  -0.042
N  N26  1  0.22400061  0.14619686  0.45979243  1  0.423004  0.018852  4.175164  0.031  0.468854  0.001701  4.490522  0.008  0.490492  0.003914  4.522476  0.01  0.094038  0.454219  -0.000823  4.466873  0.005
N  N27  1  0.77601311  0.85381918  0.54022698  1  0.423011  0.018827  4.175034  0.031  0.468885  0.001697  4.490341  0.008  0.490525  0.00391  4.522293  0.01  0.094148  0.454249  -0.000827  4.466692  0.005
N  N28  1  0.17458233  0.00871530  0.37563584  1  -0.360273  -0.099504  2.498224  -0.104  -0.369627  -0.054771  2.741026  -0.061  -0.381118  -0.047632  2.74962  -0.056  -0.177921  -0.359128  -0.056846  2.733625  -0.061
N  N29  1  0.82543011  0.99127635  0.62438784  1  -0.360267  -0.099427  2.498819  -0.104  -0.369558  -0.054755  2.741539  -0.061  -0.381053  -0.047615  2.750143  -0.056  -0.177887  -0.359065  -0.056828  2.734144  -0.061
O  O30  1  0.50261677  0.63363670  0.70294831  1  -0.590428  -0.058085  2.142266  -0.071  -0.550173  -0.049077  2.414067  -0.068  -0.593124  -0.040336  2.405653  -0.059  -0.308407  -0.522204  -0.053095  2.419222  -0.07
O  O31  1  0.49738867  0.36636171  0.29705458  1  -0.590394  -0.058086  2.142395  -0.071  -0.550122  -0.049069  2.414151  -0.068  -0.593087  -0.040329  2.405777  -0.059  -0.308405  -0.522153  -0.05309  2.419302  -0.07
O  O32  1  0.15993617  0.68851920  0.66814483  1  -0.59219  0.079045  2.128622  0.104  -0.562529  0.05219  2.408592  0.075  -0.607469  0.038993  2.403416  0.058  -0.315486  -0.532521  0.056394  2.413516  0.078
O  O33  1  0.84006208  0.31147216  0.33185171  1  -0.592111  0.079037  2.128611  0.104  -0.562416  0.052189  2.408529  0.075  -0.607351  0.038992  2.40335  0.058  -0.315424  -0.53241  0.056395  2.413454  0.078
O  O34  1  0.18514624  0.64355606  0.35068052  1  -0.548193  0.050448  2.338933  0.067  -0.503323  0.042436  2.62224  0.061  -0.538106  0.033569  2.611746  0.05  -0.403601  -0.480488  0.045698  2.63123  0.064
O  O35  1  0.81484742  0.35643881  0.64932128  1  -0.548271  0.050443  2.338818  0.067  -0.503384  0.042433  2.622101  0.061  -0.538168  0.033566  2.611606  0.05  -0.403615  -0.48055  0.045692  2.631092  0.064
