# generated using pymatgen
data_HgH10C12(IN2)2
_symmetry_space_group_name_H-M   'P 1'
_cell_length_a   6.85296002
_cell_length_b   7.85033116
_cell_length_c   15.03082420
_cell_angle_alpha   97.04426524
_cell_angle_beta   90.00140985
_cell_angle_gamma   89.99961443
_symmetry_Int_Tables_number   1
_chemical_formula_structural   HgH10C12(IN2)2
_chemical_formula_sum   'Hg2 H20 C24 I4 N8'
_cell_volume   802.52459670
_cell_formula_units_Z   2
loop_
 _symmetry_equiv_pos_site_id
 _symmetry_equiv_pos_as_xyz
  1  'x, y, z'
loop_
 _atom_site_type_symbol
 _atom_site_label
 _atom_site_symmetry_multiplicity
 _atom_site_fract_x
 _atom_site_fract_y
 _atom_site_fract_z
 _atom_site_occupancy
 _atom_site_hle17_bader_spin_density
 _atom_site_hle17_ddec_charge
 _atom_site_hle17_ddec_spin_density
 _atom_site_hle17_ddec_sum_bond_order
 _atom_site_hle17_magmom
 _atom_site_hse06_10hf_bader_spin_density
 _atom_site_hse06_10hf_ddec_charge
 _atom_site_hse06_10hf_ddec_spin_density
 _atom_site_hse06_10hf_ddec_sum_bond_order
 _atom_site_hse06_10hf_magmom
 _atom_site_hse06_bader_spin_density
 _atom_site_hse06_ddec_charge
 _atom_site_hse06_ddec_spin_density
 _atom_site_hse06_ddec_sum_bond_order
 _atom_site_hse06_magmom
 _atom_site_pbe_bader_spin_density
 _atom_site_pbe_cm5_charge
 _atom_site_pbe_ddec_charge
 _atom_site_pbe_ddec_spin_density
 _atom_site_pbe_ddec_sum_bond_order
 _atom_site_pbe_magmom
Hg  Hg0  1  0.50385363  0.24997701  0.75001506  1  0  0.541606  0  2.156784  0  0  0.403367  0  2.655259  0  0  0.448457  0  2.628806  0  0  0.389222  0.373163  0  2.672823  0
Hg  Hg1  1  0.49614338  0.75003010  0.24999094  1  0  0.541622  0  2.156523  0  0  0.403409  0  2.654926  0  0  0.448488  0  2.628505  0  0  0.389205  0.373199  0  2.672505  0
H  H2  1  0.28749953  0.38484955  0.94262691  1  0  0.062047  0  0.988926  0  0  0.065219  0  1.067382  0  0  0.06807  0  1.064464  0  0  0.090325  0.063166  0  1.069456  0
H  H3  1  0.28751733  0.11515750  0.55741809  1  0  0.061886  0  0.988963  0  0  0.065192  0  1.067416  0  0  0.067956  0  1.064564  0  0  0.090353  0.063157  0  1.069479  0
H  H4  1  0.71247997  0.61517825  0.05737596  1  0  0.061946  0  0.989035  0  0  0.065166  0  1.067462  0  0  0.068014  0  1.064545  0  0  0.090354  0.063119  0  1.069537  0
H  H5  1  0.71248843  0.88483691  0.44261958  1  0  0.062033  0  0.988823  0  0  0.065242  0  1.06729  0  0  0.068092  0  1.064375  0  0  0.090351  0.06319  0  1.069361  0
H  H6  1  0.98625093  0.35318936  0.03308024  1  0  0.103421  0  0.95418  0  0  0.113975  0  1.01562  0  0  0.116899  0  1.015113  0  0  0.101728  0.111974  0  1.015985  0
H  H7  1  0.98631344  0.14685919  0.46695497  1  0  0.103535  0  0.954226  0  0  0.114086  0  1.015609  0  0  0.117009  0  1.01511  0  0  0.10174  0.112088  0  1.015971  0
H  H8  1  0.01370814  0.64682207  0.96691277  1  0  0.103519  0  0.9541  0  0  0.114075  0  1.015551  0  0  0.116993  0  1.015065  0  0  0.101816  0.112082  0  1.015892  0
H  H9  1  0.01373610  0.85315092  0.53307521  1  0  0.103521  0  0.954281  0  0  0.114117  0  1.015657  0  0  0.11704  0  1.015156  0  0  0.101766  0.112124  0  1.01601  0
H  H10  1  0.82464808  0.92277078  0.83941618  1  0  0.108316  0  0.978563  0  0  0.113153  0  1.048789  0  0  0.117384  0  1.046006  0  0  0.093567  0.110156  0  1.050797  0
H  H11  1  0.82463109  0.57724724  0.66059516  1  0  0.108359  0  0.978432  0  0  0.113171  0  1.048705  0  0  0.117408  0  1.045922  0  0  0.093528  0.110176  0  1.05071  0
H  H12  1  0.17535768  0.07719797  0.16058300  1  0  0.108334  0  0.97876  0  0  0.113178  0  1.048938  0  0  0.117409  0  1.046156  0  0  0.093603  0.110186  0  1.050945  0
H  H13  1  0.17533089  0.42277737  0.33938884  1  0  0.108434  0  0.978588  0  0  0.113239  0  1.04883  0  0  0.117471  0  1.046049  0  0  0.093604  0.11025  0  1.050832  0
H  H14  1  0.13476707  0.97203002  0.75700706  1  0  0.072917  0  0.934875  0  0  0.080236  0  1.000297  0  0  0.082975  0  0.997963  0  0  0.106033  0.078257  0  1.001974  0
H  H15  1  0.13474629  0.52798836  0.74303081  1  0  0.073121  0  0.934905  0  0  0.080442  0  1.000318  0  0  0.083181  0  0.997989  0  0  0.106088  0.078466  0  1.001989  0
H  H16  1  0.86526642  0.02796528  0.24300539  1  0  0.072833  0  0.934971  0  0  0.080225  0  1.000329  0  0  0.082964  0  0.997995  0  0  0.10602  0.078251  0  1.002007  0
H  H17  1  0.86522591  0.47207156  0.25697375  1  0  0.073107  0  0.935134  0  0  0.080488  0  1.000476  0  0  0.083228  0  0.998138  0  0  0.106222  0.078516  0  1.002151  0
H  H18  1  0.67687183  0.21109117  0.05445737  1  0  0.069401  0  0.961323  0  0  0.075741  0  1.03583  0  0  0.080053  0  1.030702  0  0  0.101281  0.072726  0  1.039448  0
H  H19  1  0.67693802  0.28894086  0.44553203  1  0  0.069245  0  0.961376  0  0  0.075614  0  1.035857  0  0  0.079946  0  1.030718  0  0  0.101217  0.072601  0  1.039458  0
H  H20  1  0.32311350  0.78892092  0.94551705  1  0  0.069268  0  0.961086  0  0  0.075592  0  1.035606  0  0  0.079926  0  1.030468  0  0  0.101244  0.072575  0  1.039215  0
H  H21  1  0.32310860  0.71105260  0.55445966  1  0  0.069357  0  0.961305  0  0  0.075741  0  1.03575  0  0  0.080035  0  1.030642  0  0  0.101252  0.072729  0  1.03936  0
C  C22  1  0.18054258  0.28454284  0.92190531  1  0  0.119504  0  3.727037  0  0  0.0904  0  3.978332  0  0  0.097019  0  3.997235  0  0  0.034066  0.086066  0  3.965826  0
C  C23  1  0.18054482  0.21545642  0.57811666  1  0  0.119803  0  3.72761  0  0  0.090445  0  3.978845  0  0  0.097141  0  3.997787  0  0  0.033913  0.086093  0  3.966327  0
C  C24  1  0.81943691  0.71545671  0.07809614  1  0  0.119725  0  3.727213  0  0  0.09056  0  3.978472  0  0  0.097181  0  3.99737  0  0  0.034007  0.08622  0  3.965978  0
C  C25  1  0.81945073  0.78452628  0.42188820  1  0  0.119805  0  3.72686  0  0  0.090591  0  3.978131  0  0  0.097208  0  3.997037  0  0  0.034133  0.086265  0  3.965622  0
C  C26  1  0.01243275  0.26680159  0.97172287  1  0  -0.142142  0  3.697787  0  0  -0.159323  0  3.940242  0  0  -0.166879  0  3.962479  0  0  -0.08129  -0.154628  0  3.925737  0
C  C27  1  0.01248751  0.23319834  0.52829800  1  0  -0.142191  0  3.698992  0  0  -0.159359  0  3.941276  0  0  -0.166919  0  3.963491  0  0  -0.081253  -0.154664  0  3.926776  0
C  C28  1  0.98753216  0.73319523  0.02828303  1  0  -0.142323  0  3.698344  0  0  -0.15952  0  3.940739  0  0  -0.167081  0  3.962973  0  0  -0.081343  -0.154821  0  3.92623  0
C  C29  1  0.98756349  0.76678296  0.47171009  1  0  -0.142469  0  3.698003  0  0  -0.159721  0  3.940406  0  0  -0.167279  0  3.962646  0  0  -0.081367  -0.155031  0  3.925899  0
C  C30  1  0.87934535  0.13616255  0.94255892  1  0  0.082916  0  3.806852  0  0  0.099344  0  4.034321  0  0  0.101639  0  4.057604  0  0  0.003374  0.0978  0  4.019011  0
C  C31  1  0.87940087  0.36380414  0.55743692  1  0  0.0828  0  3.80775  0  0  0.099366  0  4.03483  0  0  0.101671  0  4.058126  0  0  0.003347  0.097817  0  4.019536  0
C  C32  1  0.12062831  0.86383816  0.05744595  1  0  0.082853  0  3.807128  0  0  0.099236  0  4.034558  0  0  0.101532  0  4.057849  0  0  0.003355  0.097698  0  4.019242  0
C  C33  1  0.12064867  0.63614093  0.44254056  1  0  0.083259  0  3.806773  0  0  0.099741  0  4.034011  0  0  0.102037  0  4.057296  0  0  0.003522  0.098196  0  4.018722  0
C  C34  1  0.92395928  0.02620652  0.86416043  1  0  -0.146014  0  3.70257  0  0  -0.161138  0  3.942674  0  0  -0.168709  0  3.964714  0  0  -0.082268  -0.155963  0  3.927881  0
C  C35  1  0.92395425  0.47379334  0.63583900  1  0  -0.145938  0  3.70205  0  0  -0.161097  0  3.942106  0  0  -0.168667  0  3.964127  0  0  -0.082089  -0.155928  0  3.927315  0
C  C36  1  0.07605086  0.97379562  0.13584055  1  0  -0.145917  0  3.702876  0  0  -0.161039  0  3.942979  0  0  -0.168602  0  3.964995  0  0  -0.082286  -0.155871  0  3.928199  0
C  C37  1  0.07602378  0.52618558  0.36412766  1  0  -0.146244  0  3.702737  0  0  -0.161329  0  3.942752  0  0  -0.168891  0  3.964766  0  0  -0.082187  -0.156159  0  3.927965  0
C  C38  1  0.09521966  0.05360156  0.81856435  1  0  0.118196  0  3.720953  0  0  0.090745  0  3.970528  0  0  0.096682  0  3.990048  0  0  0.040439  0.086939  0  3.957198  0
C  C39  1  0.09524074  0.44639667  0.68145929  1  0  0.117987  0  3.720137  0  0  0.090475  0  3.969701  0  0  0.096416  0  3.989227  0  0  0.04022  0.086669  0  3.956364  0
C  C40  1  0.90479485  0.94640557  0.18144098  1  0  0.118298  0  3.720505  0  0  0.090769  0  3.970054  0  0  0.096712  0  3.989566  0  0  0.040434  0.086955  0  3.956742  0
C  C41  1  0.90476940  0.55359803  0.31853382  1  0  0.118177  0  3.721906  0  0  0.090589  0  3.971441  0  0  0.096529  0  3.990955  0  0  0.040099  0.08678  0  3.958115  0
C  C42  1  0.70287714  0.11863810  0.99453434  1  0  0.092027  0  3.651148  0  0  0.060041  0  3.910718  0  0  0.065323  0  3.923667  0  0  0.073731  0.056512  0  3.902176  0
C  C43  1  0.70292524  0.38138524  0.50547906  1  0  0.092093  0  3.651072  0  0  0.060079  0  3.91053  0  0  0.065337  0  3.923489  0  0  0.073784  0.056555  0  3.901968  0
C  C44  1  0.29708630  0.88138305  0.00547468  1  0  0.092046  0  3.650988  0  0  0.06014  0  3.910492  0  0  0.065407  0  3.923429  0  0  0.07382  0.056614  0  3.901933  0
C  C45  1  0.29709511  0.61861576  0.49451783  1  0  0.091947  0  3.651468  0  0  0.060006  0  3.910834  0  0  0.065306  0  3.923791  0  0  0.073861  0.056477  0  3.902286  0
I  I46  1  0.60333053  0.55063032  0.84462113  1  0  -0.343904  0  1.171108  0  0  -0.306318  0  1.522574  0  0  -0.32286  0  1.501414  0  0  -0.157327  -0.295027  0  1.536878  0
I  I47  1  0.60333115  0.94935025  0.65538108  1  0  -0.343934  0  1.171048  0  0  -0.306381  0  1.522577  0  0  -0.322913  0  1.501385  0  0  -0.157352  -0.295088  0  1.536883  0
I  I48  1  0.39665918  0.44937716  0.15537425  1  0  -0.343905  0  1.170902  0  0  -0.306335  0  1.522322  0  0  -0.322875  0  1.501163  0  0  -0.157326  -0.295041  0  1.536635  0
I  I49  1  0.39664543  0.05066223  0.34461866  1  0  -0.34392  0  1.170918  0  0  -0.306357  0  1.5224  0  0  -0.322898  0  1.501234  0  0  -0.157351  -0.295058  0  1.536706  0
N  N50  1  0.22069864  0.18086185  0.84644307  1  0  -0.279514  0  3.230851  0  0  -0.207278  0  3.490193  0  0  -0.226396  0  3.512842  0  0  -0.311616  -0.194552  0  3.474859  0
N  N51  1  0.22073652  0.31911652  0.65358312  1  0  -0.279797  0  3.23045  0  0  -0.207456  0  3.489806  0  0  -0.226569  0  3.512421  0  0  -0.311552  -0.194726  0  3.474477  0
N  N52  1  0.77929107  0.81914278  0.15356008  1  0  -0.279526  0  3.230084  0  0  -0.207309  0  3.489503  0  0  -0.226427  0  3.512144  0  0  -0.311547  -0.194576  0  3.474177  0
N  N53  1  0.77929551  0.68085342  0.34641881  1  0  -0.279931  0  3.231165  0  0  -0.207607  0  3.490518  0  0  -0.226725  0  3.513166  0  0  -0.311732  -0.194879  0  3.47519  0
N  N54  1  0.57858268  0.99743694  0.97082334  1  0  -0.187888  0  3.024575  0  0  -0.156359  0  3.313606  0  0  -0.165315  0  3.331659  0  0  -0.206633  -0.149901  0  3.30121  0
N  N55  1  0.57856318  0.50255787  0.52917898  1  0  -0.187811  0  3.024143  0  0  -0.156307  0  3.313239  0  0  -0.165264  0  3.331298  0  0  -0.206585  -0.149846  0  3.300839  0
N  N56  1  0.42141725  0.00256377  0.02918152  1  0  -0.187985  0  3.024545  0  0  -0.1565  0  3.313595  0  0  -0.165454  0  3.331651  0  0  -0.206761  -0.150042  0  3.301199  0
N  N57  1  0.42141194  0.49743053  0.47081034  1  0  -0.187909  0  3.024501  0  0  -0.156461  0  3.31357  0  0  -0.165414  0  3.331619  0  0  -0.206758  -0.150005  0  3.301178  0
