# generated using pymatgen
data_TbH7C8O7
_symmetry_space_group_name_H-M   'P 1'
_cell_length_a   7.20164537
_cell_length_b   7.66668311
_cell_length_c   17.35231144
_cell_angle_alpha   92.03562569
_cell_angle_beta   90.00006431
_cell_angle_gamma   90.00000601
_symmetry_Int_Tables_number   1
_chemical_formula_structural   TbH7C8O7
_chemical_formula_sum   'Tb4 H28 C32 O28'
_cell_volume   957.46393249
_cell_formula_units_Z   4
loop_
 _symmetry_equiv_pos_site_id
 _symmetry_equiv_pos_as_xyz
  1  'x, y, z'
loop_
 _atom_site_type_symbol
 _atom_site_label
 _atom_site_symmetry_multiplicity
 _atom_site_fract_x
 _atom_site_fract_y
 _atom_site_fract_z
 _atom_site_occupancy
 _atom_site_hle17_bader_spin_density
 _atom_site_hle17_ddec_charge
 _atom_site_hle17_ddec_spin_density
 _atom_site_hle17_ddec_sum_bond_order
 _atom_site_hle17_magmom
 _atom_site_hse06_10hf_bader_spin_density
 _atom_site_hse06_10hf_ddec_charge
 _atom_site_hse06_10hf_ddec_spin_density
 _atom_site_hse06_10hf_ddec_sum_bond_order
 _atom_site_hse06_10hf_magmom
 _atom_site_hse06_bader_spin_density
 _atom_site_hse06_ddec_charge
 _atom_site_hse06_ddec_spin_density
 _atom_site_hse06_ddec_sum_bond_order
 _atom_site_hse06_magmom
 _atom_site_pbe_bader_spin_density
 _atom_site_pbe_cm5_charge
 _atom_site_pbe_ddec_charge
 _atom_site_pbe_ddec_spin_density
 _atom_site_pbe_ddec_sum_bond_order
 _atom_site_pbe_magmom
Tb  Tb0  1  0.49285367  0.14454209  0.75347225  1  0  2.286997  0  1.623387  0  0  2.139611  0  2.079603  0  0  2.259761  0  1.90595  0  0  1.529038  2.102794  0  2.111836  0
Tb  Tb1  1  0.99285469  0.35545512  0.74652847  1  0  2.287011  0  1.623359  0  0  2.139605  0  2.079593  0  0  2.259769  0  1.905918  0  0  1.529039  2.102793  0  2.111834  0
Tb  Tb2  1  0.50714560  0.85545875  0.24652825  1  0  2.286983  0  1.623405  0  0  2.139581  0  2.079635  0  0  2.259735  0  1.905971  0  0  1.529016  2.102773  0  2.111852  0
Tb  Tb3  1  0.00714458  0.64454310  0.25347200  1  0  2.287032  0  1.623325  0  0  2.139657  0  2.079508  0  0  2.259789  0  1.905881  0  0  1.529067  2.102829  0  2.111774  0
H  H4  1  0.66196820  0.03527083  0.02043190  1  0  0.126844  0  0.940453  0  0  0.133782  0  1.005672  0  0  0.138198  0  1.00205  0  0  0.11955  0.130705  0  1.008093  0
H  H5  1  0.16196783  0.46472960  0.47956786  1  0  0.126863  0  0.940467  0  0  0.133801  0  1.005683  0  0  0.138217  0  1.002061  0  0  0.119554  0.130722  0  1.008109  0
H  H6  1  0.33803107  0.96472739  0.97956800  1  0  0.12686  0  0.94042  0  0  0.133791  0  1.005656  0  0  0.138208  0  1.002034  0  0  0.119552  0.130712  0  1.00808  0
H  H7  1  0.83803145  0.53526601  0.52043200  1  0  0.126854  0  0.940399  0  0  0.133803  0  1.005617  0  0  0.138219  0  1.001993  0  0  0.119531  0.130723  0  1.008043  0
H  H8  1  0.51509881  0.75251608  0.88734721  1  0  0.114544  0  0.945607  0  0  0.126916  0  1.009396  0  0  0.129527  0  1.008223  0  0  0.104261  0.125156  0  1.010129  0
H  H9  1  0.01510020  0.74748380  0.61265215  1  0  0.114518  0  0.945634  0  0  0.126888  0  1.009432  0  0  0.129499  0  1.008261  0  0  0.104245  0.125126  0  1.010171  0
H  H10  1  0.48490047  0.24748475  0.11265272  1  0  0.114534  0  0.945611  0  0  0.126901  0  1.009415  0  0  0.129512  0  1.008242  0  0  0.104255  0.125139  0  1.010156  0
H  H11  1  0.98490324  0.25251703  0.38734720  1  0  0.114574  0  0.945602  0  0  0.126944  0  1.009393  0  0  0.129555  0  1.008221  0  0  0.104275  0.125185  0  1.010133  0
H  H12  1  0.70856300  0.70011077  0.94491000  1  0  0.101032  0  0.935916  0  0  0.117374  0  0.992064  0  0  0.118891  0  0.992163  0  0  0.096567  0.116394  0  0.991731  0
H  H13  1  0.20856286  0.79989044  0.55509005  1  0  0.101033  0  0.935914  0  0  0.117396  0  0.992037  0  0  0.118914  0  0.992134  0  0  0.096576  0.116414  0  0.991702  0
H  H14  1  0.29143627  0.29989267  0.05508997  1  0  0.101027  0  0.935928  0  0  0.117381  0  0.992059  0  0  0.118899  0  0.992157  0  0  0.096568  0.116399  0  0.991729  0
H  H15  1  0.79143919  0.20011039  0.44490988  1  0  0.101063  0  0.935919  0  0  0.11741  0  0.992053  0  0  0.118927  0  0.992152  0  0  0.096582  0.11643  0  0.99172  0
H  H16  1  0.39987812  0.67495568  0.01258370  1  0  0.06177  0  0.961387  0  0  0.080719  0  1.023674  0  0  0.080838  0  1.025173  0  0  0.087065  0.080695  0  1.022464  0
H  H17  1  0.89987839  0.82504229  0.48741438  1  0  0.06171  0  0.961396  0  0  0.080659  0  1.023702  0  0  0.080778  0  1.025202  0  0  0.087048  0.080636  0  1.022495  0
H  H18  1  0.60012254  0.32504384  0.98741564  1  0  0.061722  0  0.961391  0  0  0.080674  0  1.023685  0  0  0.080792  0  1.025186  0  0  0.087048  0.080646  0  1.022486  0
H  H19  1  0.10012365  0.17495592  0.51258436  1  0  0.061705  0  0.961398  0  0  0.080668  0  1.023676  0  0  0.080787  0  1.025175  0  0  0.087054  0.080643  0  1.02247  0
H  H20  1  0.33218789  0.50842484  0.94533421  1  0  0.074954  0  0.927616  0  0  0.093868  0  0.985483  0  0  0.095668  0  0.984532  0  0  0.09512  0.092562  0  0.986109  0
H  H21  1  0.83218980  0.99157507  0.55466472  1  0  0.074973  0  0.927617  0  0  0.093885  0  0.98548  0  0  0.095687  0  0.984528  0  0  0.095134  0.092581  0  0.986105  0
H  H22  1  0.66780999  0.49157861  0.05466633  1  0  0.074933  0  0.927654  0  0  0.093858  0  0.985508  0  0  0.095666  0  0.984547  0  0  0.095118  0.092553  0  0.986133  0
H  H23  1  0.16781225  0.00842445  0.44533404  1  0  0.074958  0  0.927621  0  0  0.093862  0  0.985495  0  0  0.095663  0  0.984544  0  0  0.095116  0.09256  0  0.986115  0
H  H24  1  0.68923375  0.79346688  0.69237982  1  0  0.46019  0  0.820527  0  0  0.434347  0  0.872555  0  0  0.44544  0  0.856466  0  0  0.310456  0.426955  0  0.883259  0
H  H25  1  0.18923150  0.70652779  0.80761897  1  0  0.460179  0  0.820556  0  0  0.434322  0  0.87261  0  0  0.445415  0  0.856521  0  0  0.310446  0.426929  0  0.883317  0
H  H26  1  0.31076691  0.20653395  0.30762011  1  0  0.460205  0  0.820508  0  0  0.434359  0  0.872537  0  0  0.445452  0  0.856449  0  0  0.31045  0.426969  0  0.88324  0
H  H27  1  0.81076639  0.29347042  0.19238035  1  0  0.460186  0  0.820543  0  0  0.434332  0  0.872592  0  0  0.445426  0  0.856502  0  0  0.310448  0.426938  0  0.8833  0
H  H28  1  0.81696569  0.96384132  0.69816096  1  0  0.443204  0  0.853964  0  0  0.413439  0  0.915495  0  0  0.42466  0  0.899375  0  0  0.304501  0.405482  0  0.927071  0
H  H29  1  0.31696618  0.53615598  0.80183852  1  0  0.443181  0  0.853997  0  0  0.413385  0  0.915555  0  0  0.424605  0  0.899438  0  0  0.304491  0.405435  0  0.927118  0
H  H30  1  0.18303636  0.03615951  0.30183898  1  0  0.443202  0  0.853976  0  0  0.413405  0  0.915537  0  0  0.424624  0  0.899421  0  0  0.304484  0.405453  0  0.927103  0
H  H31  1  0.68303448  0.46384355  0.19816140  1  0  0.443159  0  0.854027  0  0  0.413371  0  0.915571  0  0  0.424588  0  0.899459  0  0  0.304497  0.405422  0  0.927133  0
C  C32  1  0.75517167  0.09435759  0.87595462  1  0  0.687479  0  3.880806  0  0  0.638589  0  4.173259  0  0  0.673585  0  4.169804  0  0  0.221096  0.614551  0  4.180328  0
C  C33  1  0.25517172  0.40564218  0.62404488  1  0  0.687459  0  3.880723  0  0  0.638577  0  4.173169  0  0  0.673574  0  4.169717  0  0  0.221119  0.614539  0  4.180231  0
C  C34  1  0.24482483  0.90564324  0.12404532  1  0  0.687517  0  3.880742  0  0  0.638555  0  4.17327  0  0  0.673551  0  4.169819  0  0  0.221021  0.614513  0  4.180336  0
C  C35  1  0.74482616  0.59435735  0.37595561  1  0  0.687513  0  3.880733  0  0  0.638594  0  4.173192  0  0  0.673591  0  4.169737  0  0  0.221055  0.614564  0  4.180249  0
C  C36  1  0.88558362  0.04906631  0.93876477  1  0  -0.047054  0  3.689476  0  0  -0.035663  0  3.926199  0  0  -0.03973  0  3.943202  0  0  0.007192  -0.032716  0  3.913863  0
C  C37  1  0.38558489  0.45093479  0.56123539  1  0  -0.047014  0  3.689446  0  0  -0.03564  0  3.926175  0  0  -0.039707  0  3.943179  0  0  0.007188  -0.032693  0  3.913832  0
C  C38  1  0.11441427  0.95093452  0.06123574  1  0  -0.047068  0  3.689554  0  0  -0.035615  0  3.926227  0  0  -0.039681  0  3.943228  0  0  0.007231  -0.032668  0  3.913889  0
C  C39  1  0.61441299  0.54906343  0.43876509  1  0  -0.047079  0  3.689692  0  0  -0.035634  0  3.926352  0  0  -0.039701  0  3.943358  0  0  0.007171  -0.032692  0  3.914014  0
C  C40  1  0.07760713  0.02779609  0.92682469  1  0  -0.028559  0  3.653435  0  0  -0.016825  0  3.888638  0  0  -0.01874  0  3.904152  0  0  0.01174  -0.015219  0  3.877296  0
C  C41  1  0.57760492  0.47220236  0.57317528  1  0  -0.028552  0  3.653501  0  0  -0.01679  0  3.88869  0  0  -0.018705  0  3.904206  0  0  0.011755  -0.015182  0  3.877335  0
C  C42  1  0.92239353  0.97220343  0.07317465  1  0  -0.028605  0  3.653426  0  0  -0.016885  0  3.888604  0  0  -0.018801  0  3.904118  0  0  0.011731  -0.015278  0  3.877262  0
C  C43  1  0.42239436  0.52779456  0.42682517  1  0  -0.028667  0  3.653636  0  0  -0.016924  0  3.888787  0  0  -0.018841  0  3.904306  0  0  0.011734  -0.015315  0  3.877442  0
C  C44  1  0.81103273  0.02103463  0.01172531  1  0  -0.063276  0  3.656114  0  0  -0.099273  0  3.910356  0  0  -0.098698  0  3.926073  0  0  -0.060483  -0.099459  0  3.899101  0
C  C45  1  0.31103239  0.47896712  0.48827396  1  0  -0.063291  0  3.65619  0  0  -0.099291  0  3.91043  0  0  -0.098717  0  3.926148  0  0  -0.060475  -0.099478  0  3.899177  0
C  C46  1  0.18896515  0.97896620  0.98827463  1  0  -0.063328  0  3.656123  0  0  -0.099348  0  3.910377  0  0  -0.098775  0  3.926093  0  0  -0.060495  -0.099531  0  3.899123  0
C  C47  1  0.68896411  0.52103110  0.51172594  1  0  -0.063313  0  3.656173  0  0  -0.099359  0  3.910427  0  0  -0.098784  0  3.926145  0  0  -0.060467  -0.099544  0  3.899172  0
C  C48  1  0.18025996  0.05376082  0.85282666  1  0  0.710168  0  3.854763  0  0  0.657944  0  4.153548  0  0  0.69266  0  4.149417  0  0  0.230628  0.633622  0  4.162165  0
C  C49  1  0.68026072  0.44623504  0.64717390  1  0  0.710176  0  3.854734  0  0  0.657937  0  4.153543  0  0  0.692651  0  4.149415  0  0  0.230635  0.633622  0  4.162144  0
C  C50  1  0.81974070  0.94623870  0.14717267  1  0  0.710218  0  3.854678  0  0  0.657999  0  4.153458  0  0  0.692716  0  4.149327  0  0  0.230647  0.633674  0  4.162074  0
C  C51  1  0.31973855  0.55376447  0.35282486  1  0  0.710278  0  3.854649  0  0  0.658033  0  4.153457  0  0  0.692751  0  4.149324  0  0  0.230653  0.633704  0  4.162075  0
C  C52  1  0.64893900  0.51598708  0.85398957  1  0  0.772273  0  3.767017  0  0  0.730123  0  4.061897  0  0  0.765461  0  4.054289  0  0  0.235296  0.706413  0  4.068841  0
C  C53  1  0.14893773  0.98401282  0.64601101  1  0  0.772341  0  3.767015  0  0  0.730152  0  4.061952  0  0  0.765497  0  4.054338  0  0  0.235338  0.706446  0  4.068887  0
C  C54  1  0.35106167  0.48401376  0.14601094  1  0  0.772299  0  3.76682  0  0  0.730162  0  4.061693  0  0  0.765499  0  4.054088  0  0  0.235315  0.706458  0  4.068625  0
C  C55  1  0.85106571  0.01598802  0.35399007  1  0  0.772314  0  3.766725  0  0  0.730157  0  4.061608  0  0  0.765505  0  4.053988  0  0  0.235304  0.706454  0  4.068542  0
C  C56  1  0.58484401  0.64505360  0.91632792  1  0  -0.275241  0  3.653337  0  0  -0.312684  0  3.901874  0  0  -0.31842  0  3.90823  0  0  -0.166519  -0.308247  0  3.895986  0
C  C57  1  0.08484256  0.85494497  0.58367146  1  0  -0.275257  0  3.653354  0  0  -0.312704  0  3.901898  0  0  -0.31844  0  3.908254  0  0  -0.166561  -0.308266  0  3.896008  0
C  C58  1  0.41515665  0.35494592  0.08367200  1  0  -0.275253  0  3.653343  0  0  -0.312702  0  3.901882  0  0  -0.318438  0  3.908242  0  0  -0.166538  -0.308264  0  3.895998  0
C  C59  1  0.91515810  0.14505455  0.41632788  1  0  -0.275365  0  3.653444  0  0  -0.3128  0  3.901975  0  0  -0.318537  0  3.908327  0  0  -0.166562  -0.308368  0  3.896094  0
C  C60  1  0.45282842  0.56744312  0.97522875  1  0  -0.080355  0  3.667358  0  0  -0.121529  0  3.929059  0  0  -0.121779  0  3.942331  0  0  -0.166215  -0.12102  0  3.919261  0
C  C61  1  0.95283024  0.93255943  0.52477085  1  0  -0.080248  0  3.667394  0  0  -0.12142  0  3.929063  0  0  -0.121671  0  3.942338  0  0  -0.166146  -0.120908  0  3.919262  0
C  C62  1  0.54717085  0.43255902  0.02477120  1  0  -0.080224  0  3.667371  0  0  -0.121408  0  3.929074  0  0  -0.121661  0  3.942346  0  0  -0.166152  -0.120893  0  3.919279  0
C  C63  1  0.04717320  0.06744140  0.47522850  1  0  -0.080281  0  3.667385  0  0  -0.121456  0  3.92908  0  0  -0.121706  0  3.942352  0  0  -0.166194  -0.120946  0  3.919281  0
O  O64  1  0.58190433  0.07434873  0.88471088  1  0  -0.666611  0  1.998985  0  0  -0.622797  0  2.243593  0  0  -0.654916  0  2.236034  0  0  -0.352834  -0.6056  0  2.247957  0
O  O65  1  0.08190436  0.42565233  0.61528913  1  0  -0.666592  0  1.998964  0  0  -0.622788  0  2.243583  0  0  -0.654909  0  2.236024  0  0  -0.352836  -0.605594  0  2.247949  0
O  O66  1  0.41809494  0.92565079  0.11528846  1  0  -0.666633  0  1.998893  0  0  -0.622776  0  2.243531  0  0  -0.654898  0  2.235973  0  0  -0.352788  -0.605577  0  2.24789  0
O  O67  1  0.91809491  0.57435112  0.38471257  1  0  -0.666595  0  1.998891  0  0  -0.62279  0  2.243552  0  0  -0.654908  0  2.235994  0  0  -0.352791  -0.605597  0  2.247918  0
O  O68  1  0.68943235  0.91852894  0.70834332  1  0  -0.918241  0  1.830346  0  0  -0.868983  0  2.016404  0  0  -0.897011  0  1.976459  0  0  -0.65463  -0.855686  0  2.039729  0
O  O69  1  0.18943003  0.58146835  0.79165667  1  0  -0.918207  0  1.830379  0  0  -0.868895  0  2.016492  0  0  -0.896924  0  1.976548  0  0  -0.654609  -0.855603  0  2.039815  0
O  O70  1  0.31057109  0.08147190  0.29165777  1  0  -0.918253  0  1.830316  0  0  -0.868958  0  2.016462  0  0  -0.896987  0  1.976518  0  0  -0.654601  -0.85567  0  2.039783  0
O  O71  1  0.81056924  0.41853379  0.20834328  1  0  -0.918204  0  1.83041  0  0  -0.86889  0  2.016504  0  0  -0.896915  0  1.976563  0  0  -0.654622  -0.855597  0  2.039828  0
O  O72  1  0.81870984  0.15018305  0.81233349  1  0  -0.817884  0  2.252608  0  0  -0.755218  0  2.508653  0  0  -0.797847  0  2.499846  0  0  -0.433914  -0.735887  0  2.513789  0
O  O73  1  0.31871006  0.34981283  0.68766656  1  0  -0.817867  0  2.252499  0  0  -0.755216  0  2.508565  0  0  -0.797844  0  2.499752  0  0  -0.433935  -0.735885  0  2.513694  0
O  O74  1  0.18128943  0.84981647  0.18766584  1  0  -0.817864  0  2.252521  0  0  -0.755184  0  2.508586  0  0  -0.797805  0  2.499769  0  0  -0.4339  -0.735851  0  2.51372  0
O  O75  1  0.68128782  0.65018540  0.31233392  1  0  -0.817902  0  2.25252  0  0  -0.75523  0  2.508565  0  0  -0.797858  0  2.499759  0  0  -0.433922  -0.7359  0  2.513694  0
O  O76  1  0.26311881  0.92652287  0.82038545  1  0  -0.641977  0  1.99555  0  0  -0.589956  0  2.219609  0  0  -0.620438  0  2.210182  0  0  -0.302433  -0.572783  0  2.225848  0
O  O77  1  0.76311684  0.57347574  0.67961517  1  0  -0.641958  0  1.995544  0  0  -0.589923  0  2.219595  0  0  -0.620407  0  2.21017  0  0  -0.302423  -0.572757  0  2.225832  0
O  O78  1  0.73688324  0.07347796  0.17961448  1  0  -0.641974  0  1.995527  0  0  -0.589963  0  2.2196  0  0  -0.620445  0  2.210167  0  0  -0.302419  -0.57279  0  2.225842  0
O  O79  1  0.23688521  0.42652508  0.32038361  1  0  -0.641987  0  1.995528  0  0  -0.589967  0  2.219603  0  0  -0.620444  0  2.210166  0  0  -0.302418  -0.572795  0  2.225848  0
O  O80  1  0.20221464  0.20994162  0.82866577  1  0  -0.809844  0  2.110084  0  0  -0.756979  0  2.371895  0  0  -0.799341  0  2.358675  0  0  -0.4328  -0.738665  0  2.37982  0
O  O81  1  0.70221684  0.29005163  0.67133419  1  0  -0.809846  0  2.110083  0  0  -0.756989  0  2.371917  0  0  -0.799348  0  2.358697  0  0  -0.432791  -0.738674  0  2.379828  0
O  O82  1  0.79778463  0.79005529  0.17133353  1  0  -0.809843  0  2.109983  0  0  -0.756989  0  2.371792  0  0  -0.799346  0  2.358572  0  0  -0.432801  -0.738679  0  2.379731  0
O  O83  1  0.29778521  0.70994660  0.32866686  1  0  -0.809873  0  2.110015  0  0  -0.757012  0  2.371836  0  0  -0.799368  0  2.358614  0  0  -0.432823  -0.738697  0  2.379765  0
O  O84  1  0.52462707  0.42773956  0.81636977  1  0  -0.758857  0  2.079134  0  0  -0.701243  0  2.324804  0  0  -0.73718  0  2.314197  0  0  -0.377223  -0.68209  0  2.330566  0
O  O85  1  0.02462863  0.07225888  0.68362960  1  0  -0.758866  0  2.079245  0  0  -0.701226  0  2.324909  0  0  -0.737169  0  2.3143  0  0  -0.377214  -0.682081  0  2.330678  0
O  O86  1  0.47537359  0.57226126  0.18362958  1  0  -0.75881  0  2.07901  0  0  -0.701213  0  2.324692  0  0  -0.737151  0  2.314091  0  0  -0.377195  -0.682062  0  2.330443  0
O  O87  1  0.97537619  0.92773804  0.31637028  1  0  -0.758826  0  2.078941  0  0  -0.701209  0  2.324613  0  0  -0.737149  0  2.314009  0  0  -0.377214  -0.682054  0  2.330369  0
O  O88  1  0.82168978  0.50239398  0.84104691  1  0  -0.731589  0  2.008251  0  0  -0.685584  0  2.255435  0  0  -0.720619  0  2.240506  0  0  -0.405493  -0.66798  0  2.263135  0
O  O89  1  0.32168854  0.99760073  0.65895426  1  0  -0.731625  0  2.008202  0  0  -0.685611  0  2.255412  0  0  -0.720646  0  2.240481  0  0  -0.405521  -0.668006  0  2.263106  0
O  O90  1  0.17831088  0.49760426  0.15895472  1  0  -0.731645  0  2.008241  0  0  -0.685649  0  2.255427  0  0  -0.720679  0  2.240498  0  0  -0.405533  -0.668046  0  2.263125  0
O  O91  1  0.67831073  0.00239488  0.34104560  1  0  -0.73163  0  2.008145  0  0  -0.685624  0  2.255343  0  0  -0.720661  0  2.240409  0  0  -0.405514  -0.668023  0  2.263039  0
