# generated using pymatgen
data_CdH9C7NO7
_symmetry_space_group_name_H-M   'P 1'
_cell_length_a   7.30390895
_cell_length_b   8.27045636
_cell_length_c   10.02472549
_cell_angle_alpha   108.59226869
_cell_angle_beta   104.88109306
_cell_angle_gamma   104.91775297
_symmetry_Int_Tables_number   1
_chemical_formula_structural   CdH9C7NO7
_chemical_formula_sum   'Cd2 H18 C14 N2 O14'
_cell_volume   515.24758056
_cell_formula_units_Z   2
loop_
 _symmetry_equiv_pos_site_id
 _symmetry_equiv_pos_as_xyz
  1  'x, y, z'
loop_
 _atom_site_type_symbol
 _atom_site_label
 _atom_site_symmetry_multiplicity
 _atom_site_fract_x
 _atom_site_fract_y
 _atom_site_fract_z
 _atom_site_occupancy
 _atom_site_pbe_bader_charge
 _atom_site_pbe_bader_spin_density
 _atom_site_pbe_cm5_charge
 _atom_site_pbe_ddec_charge
 _atom_site_pbe_ddec_spin_density
 _atom_site_pbe_ddec_sum_bond_order
 _atom_site_pbe_magmom
Cd  Cd0  1  0.06848304  0.10635771  0.62427157  1  1.328538  0  0.771467  1.023275  0  2.091143  0
Cd  Cd1  1  0.94466204  0.48218956  0.37584337  1  1.331167  0  0.771381  1.023297  0  2.090987  0
H  H2  1  0.22061712  0.81456682  0.95209144  1  0.155541  0  0.116499  0.131656  0  1.015329  0
H  H3  1  0.76924340  0.86258365  0.04805139  1  0.143209  0  0.116836  0.132797  0  1.012765  0
H  H4  1  0.44475651  0.55640855  0.23596791  1  0.158321  0  0.10996  0.122452  0  1.039032  0
H  H5  1  0.70758259  0.31970425  0.76377802  1  0.149265  0  0.109422  0.12189  0  1.04018  0
H  H6  1  0.33037960  0.27153526  0.00215871  1  0.117259  0  0.121148  0.103406  0  0.989004  0
H  H7  1  0.82747420  0.26890579  0.99757529  1  0.120805  0  0.121012  0.103162  0  0.989239  0
H  H8  1  0.38504684  0.06377049  0.49266201  1  0.637927  0  0.286628  0.378976  0  0.965168  0
H  H9  1  0.39230623  0.57117047  0.50737262  1  0.650749  0  0.285863  0.377433  0  0.967043  0
H  H10  1  0.43443849  0.28188322  0.58682043  1  0.650723  0  0.286602  0.381525  0  0.96169  0
H  H11  1  0.34799757  0.69528251  0.41328605  1  0.651914  0  0.286994  0.381936  0  0.960957  0
H  H12  1  0.64847637  0.97798350  0.54117921  1  0.63488  0  0.292475  0.384818  0  0.952873  0
H  H13  1  0.60738279  0.43676788  0.45888807  1  0.649742  0  0.293053  0.385643  0  0.951852  0
H  H14  1  0.72467958  0.93137259  0.68457173  1  0.652845  0  0.285414  0.388558  0  0.951872  0
H  H15  1  0.54066252  0.24700604  0.31537495  1  0.676593  0  0.286341  0.390977  0  0.948647  0
H  H16  1  0.37533327  0.01339321  0.75500020  1  0.617666  0  0.314269  0.399177  0  0.890505  0
H  H17  1  0.12141701  0.25869737  0.24483099  1  0.594485  0  0.314038  0.399613  0  0.889765  0
H  H18  1  0.18152342  0.86119361  0.74304857  1  0.656346  0  0.289381  0.390789  0  0.952435  0
H  H19  1  0.93974848  0.11845858  0.25707733  1  0.658722  0  0.28925  0.390835  0  0.952688  0
C  C20  1  0.08150855  0.50970096  0.68368736  1  1.571862  0  0.205284  0.537026  0  4.219784  0
C  C21  1  0.89878501  0.82624198  0.31644828  1  1.567738  0  0.206273  0.537731  0  4.219863  0
C  C22  1  0.18479166  0.53037181  0.84220111  1  0.460376  0  0.105972  0.090808  0  3.999229  0
C  C23  1  0.84314272  0.68820411  0.15782599  1  0.459165  0  0.105996  0.09125  0  4.001817  0
C  C24  1  0.24543173  0.69608190  0.96657367  1  -0.005393  0  -0.066362  -0.138356  0  3.902588  0
C  C25  1  0.77922479  0.72947623  0.03344789  1  0.011439  0  -0.067168  -0.139694  0  3.902816  0
C  C26  1  0.33827121  0.70919218  0.11205588  1  -0.008338  0  0.002403  0.008506  0  3.920684  0
C  C27  1  0.72587779  0.59684751  0.88785842  1  -0.012667  0  0.003613  0.008842  0  3.926376  0
C  C28  1  0.37121457  0.55529794  0.12641365  1  -0.05973  0  -0.073459  -0.128867  0  3.912066  0
C  C29  1  0.74404199  0.42842746  0.87339263  1  -0.005115  0  -0.073044  -0.129267  0  3.914858  0
C  C30  1  0.30719317  0.39461384  0.99610500  1  0.517951  0  0.053019  0.103131  0  3.928079  0
C  C31  1  0.81070537  0.39818665  0.00373012  1  0.458665  0  0.053058  0.104182  0  3.924877  0
C  C32  1  0.39889729  0.88895328  0.24615938  1  1.600535  0  0.218539  0.585706  0  4.19167  0
C  C33  1  0.65215581  0.64241786  0.75379050  1  1.594681  0  0.217729  0.584556  0  4.193649  0
N  N34  1  0.21464047  0.38169580  0.85694512  1  -1.218779  0  -0.315586  -0.269579  0  3.477151  0
N  N35  1  0.85787850  0.52463914  0.14299925  1  -1.210354  0  -0.315654  -0.270383  0  3.476825  0
O  O36  1  0.03125589  0.35687850  0.57264729  1  -1.161753  0  -0.317411  -0.552783  0  2.33458  0
O  O37  1  0.95943128  0.78448195  0.42748651  1  -1.155564  0  -0.317181  -0.552598  0  2.336902  0
O  O38  1  0.04725403  0.64463913  0.66391163  1  -1.169262  0  -0.304521  -0.535324  0  2.269675  0
O  O39  1  0.88452044  0.98104752  0.33625415  1  -1.170135  0  -0.305528  -0.536218  0  2.269574  0
O  O40  1  0.42722423  0.88458790  0.37714554  1  -1.201207  0  -0.312325  -0.574865  0  2.25797  0
O  O41  1  0.54932750  0.50713298  0.62290611  1  -1.205329  0  -0.310566  -0.572597  0  2.258629  0
O  O42  1  0.41131607  0.02875091  0.21939253  1  -1.177073  0  -0.308102  -0.530036  0  2.161435  0
O  O43  1  0.69133179  0.80898230  0.78053014  1  -1.16605  0  -0.308979  -0.529836  0  2.159665  0
O  O44  1  0.36323287  0.15467063  0.57411754  1  -1.275006  0  -0.599613  -0.79401  0  2.146245  0
O  O45  1  0.28935375  0.58078014  0.42597330  1  -1.29052  0  -0.599175  -0.792592  0  2.147288  0
O  O46  1  0.75632238  0.02619317  0.64244597  1  -1.249759  0  -0.585966  -0.758972  0  2.073364  0
O  O47  1  0.61439623  0.38391775  0.35762523  1  -1.286807  0  -0.587591  -0.762279  0  2.070541  0
O  O48  1  0.25542811  0.99753826  0.78279943  1  -1.235325  0  -0.575944  -0.747367  0  2.03359  0
O  O49  1  0.97385394  0.21506028  0.21728364  1  -1.214946  0  -0.575745  -0.748331  0  2.032182  0
