# generated using pymatgen
data_SmAgH4C2SO10
_symmetry_space_group_name_H-M   'P 1'
_cell_length_a   6.63768740
_cell_length_b   8.92045025
_cell_length_c   13.93378080
_cell_angle_alpha   89.99959298
_cell_angle_beta   90.00016861
_cell_angle_gamma   97.62714531
_symmetry_Int_Tables_number   1
_chemical_formula_structural   SmAgH4C2SO10
_chemical_formula_sum   'Sm4 Ag4 H16 C8 S4 O40'
_cell_volume   817.73604995
_cell_formula_units_Z   4
loop_
 _symmetry_equiv_pos_site_id
 _symmetry_equiv_pos_as_xyz
  1  'x, y, z'
loop_
 _atom_site_type_symbol
 _atom_site_label
 _atom_site_symmetry_multiplicity
 _atom_site_fract_x
 _atom_site_fract_y
 _atom_site_fract_z
 _atom_site_occupancy
 _atom_site_pbe_bader_spin_density
 _atom_site_pbe_cm5_charge
 _atom_site_pbe_ddec_charge
 _atom_site_pbe_ddec_spin_density
 _atom_site_pbe_ddec_sum_bond_order
 _atom_site_pbe_magmom
Sm  Sm0  1  0.22474691  0.78225331  0.08660804  1  0  1.470745  2.154228  0  2.028965  0
Sm  Sm1  1  0.77525797  0.71774609  0.58661213  1  0  1.470733  2.1542  0  2.028997  0
Sm  Sm2  1  0.77525332  0.21774593  0.91339392  1  0  1.470722  2.154214  0  2.029004  0
Sm  Sm3  1  0.22474396  0.28225428  0.41338839  1  0  1.47072  2.154237  0  2.02902  0
Ag  Ag4  1  0.71750680  0.76972135  0.25655798  1  0  0.489747  0.648029  0  1.511192  0
Ag  Ag5  1  0.28249520  0.73027283  0.75655845  1  0  0.48977  0.648025  0  1.511341  0
Ag  Ag6  1  0.28249002  0.23027562  0.74344039  1  0  0.489717  0.647986  0  1.511248  0
Ag  Ag7  1  0.71750445  0.26972301  0.24343992  1  0  0.489726  0.648005  0  1.511381  0
H  H8  1  0.31943677  0.96070416  0.90157387  1  0  0.307601  0.399896  0  0.935749  0
H  H9  1  0.68056683  0.53929413  0.40157798  1  0  0.307586  0.399877  0  0.935787  0
H  H10  1  0.68056478  0.03929395  0.09842450  1  0  0.307602  0.399904  0  0.935745  0
H  H11  1  0.31943642  0.46070512  0.59842183  1  0  0.307586  0.399859  0  0.935826  0
H  H12  1  0.08437315  0.90439233  0.90357688  1  0  0.303235  0.393256  0  0.94519  0
H  H13  1  0.91562953  0.59560933  0.40357532  1  0  0.303263  0.393341  0  0.945082  0
H  H14  1  0.91562878  0.09560804  0.09642293  1  0  0.303229  0.393266  0  0.945161  0
H  H15  1  0.08437220  0.40438992  0.59642377  1  0  0.303224  0.393225  0  0.945229  0
H  H16  1  0.21889599  0.47239595  0.97419555  1  0  0.31445  0.428781  0  0.886883  0
H  H17  1  0.78110306  0.02760361  0.47419698  1  0  0.314448  0.428784  0  0.886861  0
H  H18  1  0.78110444  0.52760442  0.02580355  1  0  0.314448  0.428793  0  0.886862  0
H  H19  1  0.21889868  0.97239563  0.52580139  1  0  0.314475  0.428842  0  0.886781  0
H  H20  1  0.40557197  0.59619936  0.94215671  1  0  0.305736  0.402031  0  0.930489  0
H  H21  1  0.59442898  0.90379962  0.44215617  1  0  0.30573  0.402032  0  0.930496  0
H  H22  1  0.59442695  0.40380101  0.05784238  1  0  0.305743  0.402043  0  0.930468  0
H  H23  1  0.40557446  0.09620076  0.55784076  1  0  0.305739  0.402038  0  0.930489  0
C  C24  1  0.12503664  0.97839030  0.27885183  1  0  0.222213  0.525744  0  4.182757  0
C  C25  1  0.87497325  0.52161384  0.77886269  1  0  0.222391  0.525766  0  4.182829  0
C  C26  1  0.87495455  0.02160891  0.72114439  1  0  0.222274  0.52584  0  4.182545  0
C  C27  1  0.12502606  0.47838879  0.22113640  1  0  0.222379  0.525893  0  4.182859  0
C  C28  1  0.35358118  0.02443962  0.26196427  1  0  0.21948  0.523214  0  4.196033  0
C  C29  1  0.64643185  0.47556112  0.76196414  1  0  0.219394  0.523184  0  4.195898  0
C  C30  1  0.64641224  0.97555508  0.73803554  1  0  0.219468  0.523179  0  4.19599  0
C  C31  1  0.35357048  0.52444152  0.23803424  1  0  0.219313  0.523022  0  4.196107  0
S  S32  1  0.27306627  0.19465243  0.03148941  1  0  0.607464  1.495836  0  6.269957  0
S  S33  1  0.72693424  0.30534510  0.53149160  1  0  0.607444  1.495872  0  6.269819  0
S  S34  1  0.72693396  0.80534681  0.96850968  1  0  0.607498  1.496048  0  6.269824  0
S  S35  1  0.27306920  0.69465528  0.46850893  1  0  0.60751  1.495954  0  6.269961  0
O  O36  1  0.44253900  0.95107494  0.20162756  1  0  -0.350584  -0.611516  0  2.455916  0
O  O37  1  0.55747207  0.54893003  0.70163140  1  0  -0.350547  -0.611445  0  2.455881  0
O  O38  1  0.55744996  0.04892879  0.79837727  1  0  -0.35059  -0.611568  0  2.455784  0
O  O39  1  0.44253623  0.45106358  0.29837272  1  0  -0.350565  -0.61148  0  2.455705  0
O  O40  1  0.03622350  0.05615860  0.33611398  1  0  -0.345812  -0.576654  0  2.326018  0
O  O41  1  0.96379403  0.44384814  0.83612952  1  0  -0.345859  -0.576615  0  2.326152  0
O  O42  1  0.96376775  0.94384966  0.66388654  1  0  -0.345838  -0.576641  0  2.326249  0
O  O43  1  0.03621033  0.55614885  0.16387603  1  0  -0.345819  -0.576607  0  2.326323  0
O  O44  1  0.21995986  0.86894549  0.90936730  1  0  -0.609988  -0.834694  0  2.222124  0
O  O45  1  0.78004114  0.63105498  0.40936324  1  0  -0.609968  -0.834734  0  2.221976  0
O  O46  1  0.78004207  0.13105489  0.09063323  1  0  -0.60998  -0.834722  0  2.222132  0
O  O47  1  0.21996059  0.36894427  0.59063800  1  0  -0.609928  -0.83461  0  2.222052  0
O  O48  1  0.15871810  0.05476088  0.07492653  1  0  -0.394367  -0.749931  0  2.348482  0
O  O49  1  0.84127978  0.44523730  0.57492896  1  0  -0.394357  -0.749926  0  2.348423  0
O  O50  1  0.84128252  0.94524062  0.92507256  1  0  -0.394384  -0.750008  0  2.348487  0
O  O51  1  0.15872156  0.55475968  0.42507013  1  0  -0.394398  -0.750032  0  2.348427  0
O  O52  1  0.43008946  0.14820944  0.96522902  1  0  -0.421065  -0.752992  0  2.381025  0
O  O53  1  0.56990936  0.35178909  0.46522940  1  0  -0.421071  -0.75305  0  2.380971  0
O  O54  1  0.56991247  0.85179094  0.03477008  1  0  -0.421114  -0.753155  0  2.381125  0
O  O55  1  0.43009369  0.64820902  0.53476969  1  0  -0.421112  -0.753051  0  2.38092  0
O  O56  1  0.36821432  0.29729763  0.10563136  1  0  -0.319121  -0.621071  0  2.221154  0
O  O57  1  0.63178370  0.20270023  0.60563173  1  0  -0.319074  -0.621007  0  2.221092  0
O  O58  1  0.63178651  0.70270501  0.89436773  1  0  -0.319091  -0.621086  0  2.221172  0
O  O59  1  0.36821745  0.79729562  0.39436664  1  0  -0.319096  -0.621029  0  2.221208  0
O  O60  1  0.12416944  0.27052170  0.97392753  1  0  -0.409308  -0.746195  0  2.281756  0
O  O61  1  0.87582981  0.22947900  0.47392889  1  0  -0.409316  -0.746238  0  2.281725  0
O  O62  1  0.87583099  0.72947867  0.02607085  1  0  -0.40932  -0.746265  0  2.281766  0
O  O63  1  0.12417383  0.77052251  0.52606876  1  0  -0.409285  -0.746242  0  2.281862  0
O  O64  1  0.28393124  0.57731083  0.98351874  1  0  -0.659328  -0.87  0  2.108497  0
O  O65  1  0.71607140  0.92268772  0.48351829  1  0  -0.659304  -0.869999  0  2.108475  0
O  O66  1  0.71606880  0.42268728  0.01648251  1  0  -0.659336  -0.870028  0  2.108476  0
O  O67  1  0.28393093  0.07731492  0.51648009  1  0  -0.659347  -0.870068  0  2.108415  0
O  O68  1  0.04268904  0.86494472  0.23003828  1  0  -0.367254  -0.610126  0  2.499859  0
O  O69  1  0.95732005  0.63505656  0.73004516  1  0  -0.367301  -0.610149  0  2.500106  0
O  O70  1  0.95730555  0.13505677  0.76996368  1  0  -0.367325  -0.61023  0  2.499658  0
O  O71  1  0.04268130  0.36494042  0.26995536  1  0  -0.367304  -0.610212  0  2.499922  0
O  O72  1  0.43425403  0.13848765  0.30982186  1  0  -0.36385  -0.597805  0  2.501383  0
O  O73  1  0.56574472  0.36151593  0.80983003  1  0  -0.363891  -0.597832  0  2.501126  0
O  O74  1  0.56574246  0.86151610  0.69018226  1  0  -0.363803  -0.597725  0  2.501601  0
O  O75  1  0.43425322  0.63847878  0.19017409  1  0  -0.363803  -0.597711  0  2.501456  0
