# generated using pymatgen
data_Cu3P6H52(C28O9)2
_symmetry_space_group_name_H-M   'P 1'
_cell_length_a   5.06656962
_cell_length_b   15.12975060
_cell_length_c   29.15051927
_cell_angle_alpha   83.71897513
_cell_angle_beta   85.21211969
_cell_angle_gamma   83.03859628
_symmetry_Int_Tables_number   1
_chemical_formula_structural   Cu3P6H52(C28O9)2
_chemical_formula_sum   'Cu3 P6 H52 C56 O18'
_cell_volume   2199.18393267
_cell_formula_units_Z   1
loop_
 _symmetry_equiv_pos_site_id
 _symmetry_equiv_pos_as_xyz
  1  'x, y, z'
loop_
 _atom_site_type_symbol
 _atom_site_label
 _atom_site_symmetry_multiplicity
 _atom_site_fract_x
 _atom_site_fract_y
 _atom_site_fract_z
 _atom_site_occupancy
 _atom_site_pbe_bader_charge
 _atom_site_pbe_bader_spin_density
 _atom_site_pbe_cm5_charge
 _atom_site_pbe_ddec_charge
 _atom_site_pbe_ddec_spin_density
 _atom_site_pbe_ddec_sum_bond_order
 _atom_site_pbe_magmom
Cu  Cu0  1  0.65624663  0.08222063  0.46697934  1  1.203965  0.646643  0.780512  1.13398  0.790134  2.070397  0.647
Cu  Cu1  1  0.34376300  0.91778024  0.53302035  1  1.20405  0.646635  0.780553  1.134028  0.790125  2.070327  0.647
Cu  Cu2  1  0.99999639  0.49999908  0.99999994  1  1.135484  0.59644  0.751289  1.02324  0.734765  2.041557  0.599
P  P3  1  0.46275940  0.52958269  0.05700763  1  3.356115  0.004377  0.358636  1.267815  0.007066  5.301144  0.003
P  P4  1  0.53723752  0.47041482  0.94299277  1  3.355813  0.004377  0.358617  1.267758  0.007066  5.301264  0.003
P  P5  1  0.19976580  0.00586536  0.41822401  1  3.354752  0.005136  0.378313  1.241699  0.008284  5.280838  0.004
P  P6  1  0.80023745  0.99413685  0.58177501  1  3.354846  0.005135  0.378224  1.241442  0.008284  5.281321  0.004
P  P7  1  0.11550673  0.21713566  0.47944978  1  3.367538  0.006343  0.38069  1.250639  0.009667  5.299501  0.009
P  P8  1  0.88450160  0.78286320  0.52055073  1  3.36748  0.006343  0.380727  1.250662  0.00967  5.299418  0.009
H  H9  1  0.42904843  0.62042847  0.99676391  1  0.648505  4.4e-05  0.326895  0.409087  -6.4e-05  0.890795  0.0
H  H10  1  0.57094826  0.37956971  0.00323646  1  0.648502  4.4e-05  0.326909  0.409127  -6.4e-05  0.890752  0.0
H  H11  1  0.15456606  0.64268113  0.12205964  1  0.075931  5.2e-05  0.111281  0.112856  -9e-06  0.976793  0.0
H  H12  1  0.84542630  0.35731236  0.87794208  1  0.075999  5.2e-05  0.11126  0.112829  -9e-06  0.976793  0.0
H  H13  1  0.20671837  0.66020267  0.20405729  1  0.066029  6.1e-05  0.102116  0.103333  1e-06  1.00402  0.0
H  H14  1  0.79328030  0.33979551  0.79594305  1  0.066046  6.1e-05  0.102112  0.103319  1e-06  1.004012  0.0
H  H15  1  0.92438759  0.47496175  0.20056271  1  0.083075  0.000119  0.102739  0.103595  2.7e-05  1.005806  0.0
H  H16  1  0.07562030  0.52503846  0.79943670  1  0.082975  0.000119  0.102701  0.10358  2.7e-05  1.005787  0.0
H  H17  1  0.86829877  0.45600634  0.11868174  1  0.126185  4.2e-05  0.108942  0.128079  1.1e-05  0.996894  0.0
H  H18  1  0.13170480  0.54398917  0.88131833  1  0.12624  4.2e-05  0.108973  0.128118  1.1e-05  0.996924  0.0
H  H19  1  0.45331814  0.71846238  0.25321455  1  0.068902  -1.6e-05  0.100158  0.100712  -3.1e-05  1.022034  0.0
H  H20  1  0.54668311  0.28153982  0.74678518  1  0.068941  -1.6e-05  0.100156  0.100696  -3.1e-05  1.02203  0.0
H  H21  1  0.72909342  0.60410900  0.38486625  1  0.052842  3.3e-05  0.101881  0.103576  7e-06  1.030531  0.0
H  H22  1  0.27089793  0.39589319  0.61513397  1  0.05247  3.3e-05  0.101896  0.103598  7e-06  1.030507  0.0
H  H23  1  0.76684805  0.44039460  0.27275991  1  0.05304  3.6e-05  0.101551  0.103051  8e-06  1.01611  0.0
H  H24  1  0.23314968  0.55960626  0.72724098  1  0.053424  3.6e-05  0.101559  0.103018  8e-06  1.016174  0.0
H  H25  1  0.16923702  0.50886477  0.38861593  1  0.055958  1.1e-05  0.100311  0.102954  0.0  1.017231  0.0
H  H26  1  0.83075871  0.49113609  0.61138567  1  0.055971  1.1e-05  0.100316  0.102955  0.0  1.017184  0.0
H  H27  1  0.30820985  0.38644081  0.44841412  1  0.074651  0.00015  0.10682  0.105958  0.000105  1.002867  0.0
H  H28  1  0.69178837  0.61355871  0.55158580  1  0.074653  0.00015  0.106829  0.105964  0.000105  1.00287  0.0
H  H29  1  0.74716407  0.22637290  0.40481252  1  0.082671  -0.000437  0.099613  0.082573  -0.000687  1.068526  0.0
H  H30  1  0.25283144  0.77362862  0.59518870  1  0.082587  -0.000437  0.099618  0.082611  -0.000687  1.068471  0.0
H  H31  1  0.61006772  0.34812628  0.34466146  1  0.049728  0.000101  0.098815  0.097279  5.2e-05  1.029597  0.0
H  H32  1  0.38992801  0.65187458  0.65534014  1  0.049668  0.000101  0.098832  0.097282  5.2e-05  1.02959  0.0
H  H33  1  0.15393436  0.79538442  0.30176972  1  0.044829  9.9e-05  0.099448  0.101362  2.9e-05  1.007284  0.0
H  H34  1  0.84606096  0.20461778  0.69822975  1  0.044986  9.9e-05  0.099436  0.101342  2.9e-05  1.007284  0.0
H  H35  1  0.00059254  0.93086032  0.34105005  1  0.063601  0.000165  0.103863  0.101909  9e-05  0.999745  0.0
H  H36  1  0.99940409  0.06914389  0.65894827  1  0.063686  0.000165  0.103873  0.101914  9e-05  0.999826  0.0
H  H37  1  0.66317824  0.87384831  0.42731864  1  0.144922  -1.5e-05  0.112356  0.127645  -6.3e-05  1.01142  0.0
H  H38  1  0.33681705  0.12615388  0.57268187  1  0.144813  -1.5e-05  0.112346  0.127639  -6.3e-05  1.011501  0.0
H  H39  1  0.81903431  0.73929537  0.38786645  1  0.083815  0.000193  0.100229  0.098534  7.4e-05  1.037957  0.0
H  H40  1  0.18095945  0.26070549  0.61213483  1  0.083783  0.000193  0.10022  0.098526  7.4e-05  1.038032  0.0
H  H41  1  0.79101926  0.29515055  0.57733857  1  0.018451  0.000245  0.094969  0.059065  0.000111  1.00587  0.0
H  H42  1  0.20898452  0.70484429  0.42266257  1  0.018461  0.000245  0.094974  0.059046  0.000111  1.005898  0.0
H  H43  1  0.65670870  0.26406279  0.52792812  1  0.097937  0.000214  0.105412  0.083112  7.8e-05  1.012958  0.0
H  H44  1  0.34330129  0.73593139  0.47207160  1  0.097615  0.000214  0.105424  0.083113  7.8e-05  1.012925  0.0
H  H45  1  0.70738626  0.41509548  0.48592238  1  0.045027  1.7e-05  0.085634  0.119559  1e-06  1.034221  0.0
H  H46  1  0.29260984  0.58489868  0.51407856  1  0.04496  1.7e-05  0.08565  0.119584  1e-06  1.034318  0.0
H  H47  1  0.86808091  0.44568535  0.53278085  1  0.030219  1e-05  0.085982  0.118633  -3e-06  1.02733  0.0
H  H48  1  0.13190834  0.55431148  0.46721935  1  0.030087  1e-05  0.085988  0.118634  -3e-06  1.027388  0.0
H  H49  1  0.52584739  0.42719465  0.54013580  1  0.038248  0.000123  0.090055  0.125565  5.7e-05  1.008446  0.0
H  H50  1  0.47414720  0.57279817  0.45986490  1  0.038251  0.000123  0.090082  0.125571  5.7e-05  1.008466  0.0
H  H51  1  0.54257229  0.04712066  0.33771372  1  0.054568  4.1e-05  0.097762  0.055909  4.7e-05  0.982296  0.0
H  H52  1  0.45743250  0.95288289  0.66228417  1  0.05456  4.1e-05  0.097746  0.0559  4.7e-05  0.982291  0.0
H  H53  1  0.60856059  0.12336528  0.37627973  1  0.056035  -0.000555  0.094197  0.03829  -0.000845  1.052438  0.0
H  H54  1  0.39144197  0.87663894  0.62371885  1  0.056072  -0.000556  0.094145  0.0382  -0.000846  1.052518  0.0
H  H55  1  0.25668359  0.16832621  0.29345141  1  0.032333  -2.7e-05  0.090137  0.1223  -2e-05  0.992953  0.0
H  H56  1  0.74332364  0.83167600  0.70654687  1  0.032331  -2.7e-05  0.090141  0.122265  -2e-05  0.992972  0.0
H  H57  1  0.57916046  0.20204266  0.29680464  1  0.022367  -2.9e-05  0.092699  0.1241  -1.9e-05  0.995296  0.0
H  H58  1  0.42083837  0.79796088  0.70319437  1  0.022342  -2.9e-05  0.092713  0.124088  -1.9e-05  0.995301  0.0
H  H59  1  0.30364125  0.24504000  0.33338102  1  0.0302  3e-06  0.089871  0.129072  1e-05  1.015154  0.0
H  H60  1  0.69635364  0.75496354  0.66661666  1  0.030204  3e-06  0.089843  0.129012  1e-05  1.015199  0.0
C  C61  1  0.50766659  0.54747914  0.11525668  1  -0.580745  0.008625  -0.023825  -0.18767  0.005083  3.98285  0.006
C  C62  1  0.49233455  0.45251771  0.88474302  1  -0.580657  0.008626  -0.023878  -0.187651  0.005083  3.982787  0.006
C  C63  1  0.32358980  0.60606982  0.13931038  1  -0.024756  0.00387  -0.074361  -0.045886  0.002395  3.983428  0.002
C  C64  1  0.67641332  0.39392703  0.86068929  1  -0.024906  0.00387  -0.074334  -0.045906  0.002395  3.983417  0.002
C  C65  1  0.35455248  0.61628522  0.18535704  1  -0.040892  -0.000503  -0.088853  -0.137162  -0.000658  3.967963  0.0
C  C66  1  0.64544688  0.38371095  0.81464375  1  -0.040987  -0.000503  -0.088832  -0.137116  -0.000658  3.96797  0.0
C  C67  1  0.56908622  0.56839636  0.20845217  1  -0.036133  0.005327  -0.002964  0.075521  0.003304  3.987959  0.003
C  C68  1  0.43091620  0.43160250  0.79154739  1  -0.036111  0.005328  -0.002953  0.07551  0.003304  3.988077  0.003
C  C69  1  0.75197949  0.51030901  0.18381810  1  -0.041435  -0.000379  -0.089535  -0.134474  -0.000583  3.974347  0.0
C  C70  1  0.24801943  0.48968851  0.81618159  1  -0.041307  -0.000379  -0.089518  -0.134443  -0.000583  3.974301  0.0
C  C71  1  0.72227784  0.49954533  0.13781364  1  -0.055489  0.004094  -0.076757  -0.051002  0.002607  3.973916  0.003
C  C72  1  0.27772679  0.50045287  0.86218593  1  -0.055503  0.004095  -0.076801  -0.0511  0.002608  3.973845  0.003
C  C73  1  0.60568165  0.57852631  0.25732792  1  0.014015  -0.00026  -0.009101  0.075634  -0.000379  4.029328  0.0
C  C74  1  0.39431961  0.42147590  0.74267147  1  0.014026  -0.00026  -0.009133  0.075535  -0.000379  4.02954  0.0
C  C75  1  0.53600914  0.66098026  0.27555627  1  -0.044845  0.001923  -0.089876  -0.182874  0.001203  3.933455  0.001
C  C76  1  0.46399607  0.33902195  0.72444341  1  -0.044994  0.001923  -0.089901  -0.182866  0.001203  3.933546  0.001
C  C77  1  0.58070990  0.67169010  0.32139621  1  -0.032106  -0.00039  -0.009714  0.076561  -0.000485  4.035664  0.0
C  C78  1  0.41927840  0.32830941  0.67860488  1  -0.031998  -0.00039  -0.009661  0.076661  -0.000485  4.035638  0.0
C  C79  1  0.70004247  0.59795314  0.34877651  1  -0.019458  0.00195  -0.088922  -0.183507  0.001223  3.931057  0.001
C  C80  1  0.29995504  0.40204839  0.65122400  1  -0.019139  0.00195  -0.088932  -0.183541  0.001224  3.931063  0.001
C  C81  1  0.76767945  0.51452909  0.33172363  1  -0.005548  -0.000326  -0.006492  0.083127  -0.000405  4.036529  0.0
C  C82  1  0.23231652  0.48547110  0.66827766  1  -0.00549  -0.000326  -0.006548  0.082968  -0.000405  4.036617  0.0
C  C83  1  0.71791165  0.50543651  0.28607880  1  -0.076776  0.001844  -0.088673  -0.18116  0.001149  3.933087  0.001
C  C84  1  0.28208013  0.49456434  0.71392216  1  -0.077241  0.001844  -0.088612  -0.180947  0.00115  3.933133  0.001
C  C85  1  0.87545223  0.43766915  0.36312833  1  -0.05987  0.000642  -0.007511  0.069794  0.000382  4.002446  0.0
C  C86  1  0.12453952  0.56233170  0.63687401  1  -0.059417  0.000642  -0.007566  0.069732  0.000382  4.002478  0.0
C  C87  1  0.07606214  0.44689506  0.39226183  1  -0.071857  -0.000114  -0.093811  -0.146137  -0.000155  3.983245  0.0
C  C88  1  0.92393781  0.55310514  0.60773872  1  -0.072214  -0.000114  -0.093801  -0.146082  -0.000155  3.983259  0.0
C  C89  1  0.15554300  0.37794079  0.42554622  1  -0.023622  0.000462  -0.079422  -0.058881  0.000313  4.01192  0.0
C  C90  1  0.84445918  0.62205873  0.57445366  1  -0.023415  0.000462  -0.079461  -0.058943  0.000313  4.011931  0.0
C  C91  1  0.03474224  0.29822621  0.43097414  1  -0.519941  0.003776  -0.025729  -0.206439  0.002014  3.993886  0.002
C  C92  1  0.96525993  0.70177332  0.56902608  1  -0.519953  0.003776  -0.025712  -0.206408  0.002014  3.993793  0.002
C  C93  1  0.84363787  0.28743025  0.40067296  1  -0.059739  0.000698  -0.078361  -0.039768  0.000401  3.992137  0.0
C  C94  1  0.15636406  0.71256994  0.59932756  1  -0.060034  0.000698  -0.078399  -0.039828  0.000401  3.992072  0.0
C  C95  1  0.76687930  0.35597978  0.36681370  1  0.007074  0.00021  -0.091566  -0.138354  0.000117  3.964263  0.0
C  C96  1  0.23311223  0.64402174  0.63318827  1  0.007195  0.00021  -0.091524  -0.138279  0.000117  3.964188  0.0
C  C97  1  0.49881492  0.75689704  0.34183809  1  -0.037339  0.002685  -0.009408  0.060711  0.001648  4.011447  0.002
C  C98  1  0.50118259  0.24310449  0.65816208  1  -0.037356  0.002686  -0.009417  0.060631  0.001649  4.011463  0.002
C  C99  1  0.27056984  0.81341539  0.32844774  1  -0.047719  -9.4e-05  -0.094398  -0.143641  -0.000211  3.986136  0.0
C  C100  1  0.72943189  0.18658548  0.67155172  1  -0.047869  -9.4e-05  -0.094359  -0.143514  -0.000211  3.986057  0.0
C  C101  1  0.18247971  0.88939332  0.35083457  1  -0.061541  0.002177  -0.080042  -0.054201  0.001345  4.004073  0.001
C  C102  1  0.81752089  0.11061090  0.64916301  1  -0.061496  0.002177  -0.08005  -0.054241  0.001346  4.004231  0.001
C  C103  1  0.32056706  0.91087162  0.38720879  1  -0.554364  0.010057  -0.024125  -0.201378  0.005956  3.992226  0.006
C  C104  1  0.67943027  0.08913058  0.61278928  1  -0.554667  0.010057  -0.024122  -0.201324  0.005955  3.992153  0.006
C  C105  1  0.55242146  0.85662035  0.39978579  1  0.033022  0.002925  -0.071878  -0.041299  0.001876  3.956841  0.002
C  C106  1  0.44757560  0.14338252  0.60021397  1  0.033408  0.002925  -0.071868  -0.04128  0.001876  3.956858  0.002
C  C107  1  0.63948543  0.78085447  0.37724782  1  -0.094082  0.000234  -0.086704  -0.131892  1.3e-05  3.968834  0.0
C  C108  1  0.36051009  0.21914705  0.62275272  1  -0.094147  0.000234  -0.086697  -0.131898  1.3e-05  3.968905  0.0
C  C109  1  0.79513628  0.30624575  0.53944693  1  0.399774  0.000976  -0.066877  0.111867  0.000756  3.849318  0.001
C  C110  1  0.20487105  0.69375044  0.46055202  1  0.399835  0.000976  -0.066901  0.111931  0.000756  3.849091  0.001
C  C111  1  0.72118714  0.40417830  0.52349978  1  -0.087052  0.000287  -0.251471  -0.405554  0.000204  3.956886  0.0
C  C112  1  0.27881070  0.59581653  0.47650110  1  -0.086728  0.000287  -0.251525  -0.405619  0.000204  3.95703  0.0
C  C113  1  0.46062418  0.10849279  0.35350279  1  0.395345  -0.000439  -0.061027  0.130065  -0.000519  3.884501  0.0
C  C114  1  0.53938103  0.89150942  0.64649655  1  0.395304  -0.000439  -0.060973  0.130129  -0.000519  3.884626  0.0
C  C115  1  0.39580217  0.18561691  0.31712784  1  -0.034659  -1.8e-05  -0.244835  -0.388383  1.9e-05  3.948921  0.0
C  C116  1  0.60420306  0.81438530  0.68287081  1  -0.034545  -1.8e-05  -0.244761  -0.388201  1.9e-05  3.94894  0.0
O  O117  1  0.18524944  0.49983450  0.05558235  1  -1.37745  0.090577  -0.379458  -0.746977  0.054403  2.342425  0.078
O  O118  1  0.81474703  0.50016435  0.94441763  1  -1.377426  0.090583  -0.379443  -0.746909  0.054407  2.342419  0.078
O  O119  1  0.48328574  0.62551349  0.02828019  1  -1.395192  -0.000381  -0.391935  -0.657975  -0.001068  2.157772  0.0
O  O120  1  0.51671469  0.37448537  0.97171974  1  -1.394953  -0.000381  -0.391898  -0.657985  -0.001068  2.157872  0.0
O  O121  1  0.68802747  0.46062219  0.03935836  1  -1.392  0.082741  -0.372698  -0.757017  0.049458  2.323493  0.071
O  O122  1  0.31196947  0.53937532  0.96064135  1  -1.391942  0.082741  -0.372679  -0.757009  0.049458  2.323492  0.071
O  O123  1  0.93708921  0.14342249  0.48559989  1  -1.408721  0.066489  -0.371054  -0.745918  0.039833  2.460414  0.057
O  O124  1  0.06292328  0.85657571  0.51440163  1  -1.408725  0.066486  -0.371115  -0.745979  0.039832  2.460469  0.057
O  O125  1  0.06719279  0.27525608  0.52320822  1  -1.282798  0.009521  -0.219818  -0.39992  0.005512  2.429136  0.008
O  O126  1  0.93281136  0.72474345  0.47679197  1  -1.282616  0.009521  -0.219812  -0.399941  0.005512  2.42901  0.008
O  O127  1  0.41461966  0.19025217  0.47657522  1  -1.378703  0.074484  -0.375019  -0.759181  0.044598  2.40375  0.064
O  O128  1  0.58538799  0.80974870  0.52342450  1  -1.378689  0.074485  -0.374975  -0.759147  0.044599  2.403673  0.064
O  O129  1  0.90451464  0.00261628  0.43108446  1  -1.371289  0.087489  -0.364689  -0.728286  0.052438  2.377728  0.075
O  O130  1  0.09549384  0.99738794  0.56891507  1  -1.371375  0.087492  -0.364673  -0.728228  0.05244  2.377718  0.075
O  O131  1  0.21580057  0.09237214  0.38088198  1  -1.29365  0.001316  -0.218397  -0.418662  0.000208  2.492444  0.001
O  O132  1  0.78418766  0.90763340  0.61911672  1  -1.293716  0.001317  -0.218398  -0.418674  0.000208  2.492719  0.001
O  O133  1  0.37829662  0.00761695  0.45768631  1  -1.389641  0.076124  -0.368241  -0.773558  0.044501  2.482281  0.066
O  O134  1  0.62171190  0.99238728  0.54231149  1  -1.389708  0.076127  -0.368266  -0.773464  0.044503  2.482353  0.066
