# generated using pymatgen
data_Zn2H7C22Br7(NO4)2
_symmetry_space_group_name_H-M   'P 1'
_cell_length_a   9.96976899
_cell_length_b   11.19297498
_cell_length_c   16.14498739
_cell_angle_alpha   89.29653082
_cell_angle_beta   88.55519151
_cell_angle_gamma   89.19403766
_symmetry_Int_Tables_number   1
_chemical_formula_structural   Zn2H7C22Br7(NO4)2
_chemical_formula_sum   'Zn2 H7 C22 Br7 N2 O8'
_cell_volume   1800.76225454
_cell_formula_units_Z   1
loop_
 _symmetry_equiv_pos_site_id
 _symmetry_equiv_pos_as_xyz
  1  'x, y, z'
loop_
 _atom_site_type_symbol
 _atom_site_label
 _atom_site_symmetry_multiplicity
 _atom_site_fract_x
 _atom_site_fract_y
 _atom_site_fract_z
 _atom_site_occupancy
 _atom_site_pbe_bader_charge
 _atom_site_pbe_bader_spin_density
 _atom_site_pbe_cm5_charge
 _atom_site_pbe_ddec_charge
 _atom_site_pbe_ddec_spin_density
 _atom_site_pbe_ddec_sum_bond_order
 _atom_site_pbe_magmom
Zn  Zn0  1  0.63539585  0.50760257  0.49791123  1  1.298899  0  0.66503  0.834928  0  2.412756  0
Zn  Zn1  1  0.35654180  0.49323588  0.50553368  1  1.296461  0  0.674248  0.864539  0  2.433766  0
H  H2  1  0.85967762  0.44710871  0.60478330  1  0.190863  0  0.154775  0.14044  0  0.92834  0
H  H3  1  0.11476952  0.49410000  0.44375074  1  0.471514  0  0.290583  0.264582  0  0.997649  0
H  H4  1  0.29135056  0.60844553  0.05625935  1  0.101397  0  0.116523  0.126011  0  0.956803  0
H  H5  1  0.10248400  0.47299404  0.62476423  1  0.169807  0  0.14581  0.114469  0  0.93331  0
H  H6  1  0.29103213  0.40447581  0.95276224  1  0.096881  0  0.115566  0.123501  0  0.961189  0
H  H7  1  0.69339360  0.39872494  0.94877934  1  0.124359  0  0.117165  0.136157  0  0.951587  0
H  H8  1  0.63611623  0.09866336  0.50452686  1  0.151991  0  0.116635  0.153581  0  0.964581  0
C  C9  1  0.48806693  0.73245690  0.49464716  1  1.631853  0  0.202535  0.601866  0  4.237987  0
C  C10  1  0.54218850  0.13988372  0.52653331  1  -0.015093  0  -0.096861  -0.27166  0  3.869046  0
C  C11  1  0.46866681  0.93612077  0.56000980  1  0.019757  0  -0.037636  0.000584  0  4.012949  0
C  C12  1  0.48404646  0.49201539  0.34063303  1  1.678655  0  0.221855  0.672955  0  4.228653  0
C  C13  1  0.47226000  0.86657963  0.49279523  1  0.000733  0  -0.024326  -0.055296  0  3.868508  0
C  C14  1  0.91948537  0.48399254  0.55258012  1  0.591441  0  0.106419  0.088629  0  3.823308  0
C  C15  1  0.06622858  0.48155167  0.56139347  1  0.7119  0  0.122724  0.190705  0  3.853845  0
C  C16  1  0.53446413  0.27155746  0.51653498  1  1.586387  0  0.209988  0.660864  0  4.147976  0
C  C17  1  0.48894547  0.51134438  0.66410678  1  1.674003  0  0.216963  0.665104  0  4.246762  0
C  C18  1  0.49155396  0.61783475  0.97568082  1  0.007186  0  -0.003316  0.060437  0  3.618909  0
C  C19  1  0.37971161  0.56071975  0.03176685  1  -0.020447  0  -0.066408  -0.09183  0  3.62275  0
C  C20  1  0.48981327  0.50087407  0.08834531  1  0.055762  0  0.006067  0.080663  0  3.800421  0
C  C21  1  0.48644417  0.49301222  0.25104989  1  0.198754  0  -0.039166  -0.164569  0  3.95568  0
C  C22  1  0.49281797  0.51233658  0.75359348  1  0.20326  0  -0.047376  -0.176976  0  3.975122  0
C  C23  1  0.60306546  0.55658617  0.02933428  1  0.019475  0  -0.006166  0.063287  0  3.630644  0
C  C24  1  0.60364887  0.44510014  0.97252117  1  -0.042409  0  -0.071389  -0.136074  0  3.624713  0
C  C25  1  0.49269060  0.50488371  0.91653550  1  0.168636  0  0.009728  0.120098  0  3.791806  0
C  C26  1  0.49096255  0.38881390  0.02836055  1  0.01962  0  0.001154  0.102184  0  3.620603  0
C  C27  1  0.37972922  0.44877896  0.97505479  1  -0.010167  0  -0.067434  -0.10199  0  3.614398  0
C  C28  1  0.48768838  0.49684698  0.17566444  1  -0.399158  0  -0.042562  -0.049347  0  4.107455  0
C  C29  1  0.49385665  0.50882468  0.82899123  1  -0.546844  0  -0.041011  -0.052534  0  4.087215  0
C  C30  1  0.44970569  0.06587751  0.55970728  1  -0.085042  0  -0.014759  0.114617  0  4.007425  0
Br  Br31  1  0.44828464  0.92818804  0.38408161  1  -0.01408  0  0.04171  -0.009355  0  1.34624  0
Br  Br32  1  0.91819946  0.59781170  0.39786328  1  0.24731  0  0.234525  0.143153  0  1.349797  0
Br  Br33  1  0.49148476  0.77944047  0.93799548  1  -0.050126  0  0.001296  -0.080669  0  1.314089  0
Br  Br34  1  0.49126096  0.22622805  0.06519578  1  -0.073638  0  -0.007896  -0.099492  0  1.240973  0
Br  Br35  1  0.75984348  0.63200452  0.06694934  1  -0.060198  0  -0.007976  -0.090793  0  1.28597  0
Br  Br36  1  0.28266642  0.11644759  0.60864731  1  -0.035957  0  0.013256  -0.05252  0  1.389289  0
Br  Br37  1  0.48670422  0.86116668  0.66643776  1  -0.031346  0  0.026517  -0.033091  0  1.416391  0
N  N38  1  0.84535112  0.52440521  0.49429733  1  -0.966527  0  -0.277463  -0.143798  0  3.239741  0
N  N39  1  0.15345360  0.48639005  0.50205126  1  -1.193751  0  -0.433799  -0.366607  0  3.27133  0
O  O40  1  0.60676094  0.69076834  0.49168188  1  -1.139355  0  -0.312961  -0.530049  0  2.311618  0
O  O41  1  0.37934468  0.67523315  0.49759782  1  -1.153499  0  -0.311267  -0.532125  0  2.318613  0
O  O42  1  0.59790324  0.49583371  0.37475458  1  -1.142171  0  -0.314406  -0.547504  0  2.296793  0
O  O43  1  0.36947819  0.48818040  0.37690238  1  -1.145355  0  -0.315284  -0.536939  0  2.231864  0
O  O44  1  0.64697644  0.32492869  0.51098596  1  -1.151481  0  -0.326549  -0.55093  0  2.237615  0
O  O45  1  0.41913254  0.32091240  0.51290255  1  -1.163031  0  -0.316745  -0.552945  0  2.374311  0
O  O46  1  0.60174134  0.51540016  0.62505556  1  -1.142853  0  -0.315595  -0.553707  0  2.274238  0
O  O47  1  0.37338033  0.50537160  0.63276265  1  -1.134374  0  -0.31272  -0.542555  0  2.254551  0
