# generated using pymatgen
data_CdH18PtC18(N3O)2
_symmetry_space_group_name_H-M   'P 1'
_cell_length_a   8.89825611
_cell_length_b   10.43005291
_cell_length_c   10.70638313
_cell_angle_alpha   93.97728346
_cell_angle_beta   89.99979830
_cell_angle_gamma   89.99992194
_symmetry_Int_Tables_number   1
_chemical_formula_structural   CdH18PtC18(N3O)2
_chemical_formula_sum   'Cd2 H36 Pt2 C36 N12 O4'
_cell_volume   991.25865012
_cell_formula_units_Z   2
loop_
 _symmetry_equiv_pos_site_id
 _symmetry_equiv_pos_as_xyz
  1  'x, y, z'
loop_
 _atom_site_type_symbol
 _atom_site_label
 _atom_site_symmetry_multiplicity
 _atom_site_fract_x
 _atom_site_fract_y
 _atom_site_fract_z
 _atom_site_occupancy
 _atom_site_hle17_bader_spin_density
 _atom_site_hle17_ddec_charge
 _atom_site_hle17_ddec_spin_density
 _atom_site_hle17_ddec_sum_bond_order
 _atom_site_hle17_magmom
 _atom_site_hse06_10hf_bader_spin_density
 _atom_site_hse06_10hf_ddec_charge
 _atom_site_hse06_10hf_ddec_spin_density
 _atom_site_hse06_10hf_ddec_sum_bond_order
 _atom_site_hse06_10hf_magmom
 _atom_site_hse06_bader_spin_density
 _atom_site_hse06_ddec_charge
 _atom_site_hse06_ddec_spin_density
 _atom_site_hse06_ddec_sum_bond_order
 _atom_site_hse06_magmom
 _atom_site_pbe_bader_spin_density
 _atom_site_pbe_cm5_charge
 _atom_site_pbe_ddec_charge
 _atom_site_pbe_ddec_spin_density
 _atom_site_pbe_ddec_sum_bond_order
 _atom_site_pbe_magmom
Cd  Cd0  1  0.00000112  0.00000096  0.00000006  1  0  1.116452  0  1.802159  0  0  0.92293  0  2.261186  0  0  0.972761  0  2.214886  0  0  0.819747  0.888356  0  2.292999  0
Cd  Cd1  1  0.49999876  0.50000189  0.50000063  1  0  1.116418  0  1.802203  0  0  0.922892  0  2.261239  0  0  0.972723  0  2.214941  0  0  0.819739  0.888316  0  2.293049  0
H  H2  1  0.93085637  0.94209565  0.25919795  1  0  0.375684  0  0.937147  0  0  0.343951  0  1.012339  0  0  0.35532  0  0.996116  0  0  0.290454  0.336263  0  1.023235  0
H  H3  1  0.43085650  0.55790338  0.24079922  1  0  0.375648  0  0.937204  0  0  0.343916  0  1.012393  0  0  0.355284  0  0.99617  0  0  0.290408  0.336226  0  1.023291  0
H  H4  1  0.06914339  0.05790141  0.74080288  1  0  0.375703  0  0.937111  0  0  0.343971  0  1.012309  0  0  0.355337  0  0.99609  0  0  0.290464  0.336283  0  1.023206  0
H  H5  1  0.56914214  0.44209463  0.75919887  1  0  0.375676  0  0.937163  0  0  0.343947  0  1.012349  0  0  0.355315  0  0.996126  0  0  0.29044  0.336258  0  1.023246  0
H  H6  1  0.16510863  0.83687358  0.27233602  1  0  0.047307  0  0.927471  0  0  0.062894  0  0.989668  0  0  0.063217  0  0.989887  0  0  0.095165  0.06251  0  0.989821  0
H  H7  1  0.66510908  0.66312485  0.22766095  1  0  0.047315  0  0.927484  0  0  0.062915  0  0.989665  0  0  0.063236  0  0.989888  0  0  0.095159  0.062531  0  0.98982  0
H  H8  1  0.83489226  0.16312251  0.72766381  1  0  0.047334  0  0.927493  0  0  0.062932  0  0.989673  0  0  0.063253  0  0.989896  0  0  0.095189  0.062549  0  0.989827  0
H  H9  1  0.33488955  0.33687412  0.77233627  1  0  0.047316  0  0.927474  0  0  0.062908  0  0.989661  0  0  0.06323  0  0.98988  0  0  0.095166  0.062526  0  0.989815  0
H  H10  1  0.15871154  0.98252477  0.37097642  1  0  0.040635  0  0.935361  0  0  0.050965  0  1.00804  0  0  0.05119  0  1.007948  0  0  0.090989  0.050749  0  1.008109  0
H  H11  1  0.65871153  0.51747271  0.12902237  1  0  0.040713  0  0.935303  0  0  0.051034  0  1.008009  0  0  0.051261  0  1.007915  0  0  0.091013  0.050821  0  1.008081  0
H  H12  1  0.84129046  0.01747227  0.62902160  1  0  0.040673  0  0.935326  0  0  0.050995  0  1.008029  0  0  0.051223  0  1.007935  0  0  0.090998  0.050781  0  1.008098  0
H  H13  1  0.34128936  0.48252434  0.87097752  1  0  0.040643  0  0.935349  0  0  0.050961  0  1.008044  0  0  0.051186  0  1.007954  0  0  0.090991  0.050748  0  1.008117  0
H  H14  1  0.20215745  0.84229822  0.80492170  1  0  0.074175  0  0.941152  0  0  0.084589  0  1.00361  0  0  0.086495  0  1.002369  0  0  0.114535  0.083162  0  1.004709  0
H  H15  1  0.70215918  0.65769921  0.69508053  1  0  0.074195  0  0.94114  0  0  0.084616  0  1.003584  0  0  0.086522  0  1.002343  0  0  0.114551  0.083189  0  1.004685  0
H  H16  1  0.79784568  0.15770363  0.19507756  1  0  0.074151  0  0.941166  0  0  0.084569  0  1.003616  0  0  0.086472  0  1.00238  0  0  0.114541  0.083143  0  1.004712  0
H  H17  1  0.29784283  0.34229881  0.30492223  1  0  0.074181  0  0.941111  0  0  0.084597  0  1.003568  0  0  0.086504  0  1.002327  0  0  0.114548  0.08317  0  1.004667  0
H  H18  1  0.26384337  0.09486223  0.18144089  1  0  0.100887  0  0.945451  0  0  0.117811  0  1.006601  0  0  0.118758  0  1.007152  0  0  0.101132  0.117068  0  1.006309  0
H  H19  1  0.76384080  0.40513739  0.31856069  1  0  0.100899  0  0.945446  0  0  0.117801  0  1.006611  0  0  0.118748  0  1.007162  0  0  0.101118  0.117058  0  1.006321  0
H  H20  1  0.73615864  0.90513579  0.81856000  1  0  0.100884  0  0.945464  0  0  0.117792  0  1.006612  0  0  0.118743  0  1.007164  0  0  0.101115  0.11705  0  1.006321  0
H  H21  1  0.23615896  0.59486351  0.68144132  1  0  0.100886  0  0.945451  0  0  0.117824  0  1.006571  0  0  0.118773  0  1.007123  0  0  0.101135  0.117082  0  1.00628  0
H  H22  1  0.38701122  0.00233471  0.26878746  1  0  0.07717  0  0.987557  0  0  0.076627  0  1.080432  0  0  0.079855  0  1.076912  0  0  0.080152  0.074614  0  1.082406  0
H  H23  1  0.88700999  0.49766186  0.23121356  1  0  0.077155  0  0.987636  0  0  0.076627  0  1.080461  0  0  0.079853  0  1.076948  0  0  0.08015  0.074614  0  1.082437  0
H  H24  1  0.61298967  0.99766043  0.73121231  1  0  0.077201  0  0.987563  0  0  0.076662  0  1.080414  0  0  0.07989  0  1.076902  0  0  0.080161  0.074648  0  1.082388  0
H  H25  1  0.11298977  0.50233808  0.76878745  1  0  0.077167  0  0.987586  0  0  0.076632  0  1.080454  0  0  0.07986  0  1.076941  0  0  0.080147  0.07462  0  1.082431  0
H  H26  1  0.44257212  0.71923252  0.78325424  1  0  0.105765  0  0.975848  0  0  0.112842  0  1.041374  0  0  0.115734  0  1.041039  0  0  0.103587  0.110476  0  1.042308  0
H  H27  1  0.94257468  0.78076266  0.71674621  1  0  0.105792  0  0.975849  0  0  0.112867  0  1.041377  0  0  0.115761  0  1.041041  0  0  0.103591  0.110504  0  1.042304  0
H  H28  1  0.55742989  0.28076837  0.21674310  1  0  0.105788  0  0.975882  0  0  0.112861  0  1.041404  0  0  0.115755  0  1.041068  0  0  0.103601  0.110495  0  1.04234  0
H  H29  1  0.05742845  0.21923440  0.28325555  1  0  0.105781  0  0.975834  0  0  0.112863  0  1.041348  0  0  0.115759  0  1.041006  0  0  0.103594  0.110495  0  1.042287  0
H  H30  1  0.54871659  0.85932263  0.16200983  1  0  0.107913  0  0.959206  0  0  0.118107  0  1.020571  0  0  0.120535  0  1.021038  0  0  0.104732  0.116354  0  1.020362  0
H  H31  1  0.04871281  0.64067693  0.33798755  1  0  0.107978  0  0.959229  0  0  0.118146  0  1.020599  0  0  0.120575  0  1.021066  0  0  0.104736  0.116393  0  1.020395  0
H  H32  1  0.45128541  0.14067731  0.83798838  1  0  0.107937  0  0.959187  0  0  0.118117  0  1.020547  0  0  0.120546  0  1.021014  0  0  0.104725  0.116365  0  1.020342  0
H  H33  1  0.95128471  0.35932301  0.66201252  1  0  0.107917  0  0.959237  0  0  0.118131  0  1.020574  0  0  0.12056  0  1.021041  0  0  0.104741  0.116379  0  1.02037  0
H  H34  1  0.62007504  0.72709935  0.96763718  1  0  0.093097  0  0.94763  0  0  0.10517  0  1.005196  0  0  0.107011  0  1.004491  0  0  0.106321  0.104075  0  1.00518  0
H  H35  1  0.12007346  0.77289722  0.53236150  1  0  0.093138  0  0.947603  0  0  0.105178  0  1.005219  0  0  0.107018  0  1.004517  0  0  0.1063  0.104081  0  1.005202  0
H  H36  1  0.37992809  0.27290154  0.03236016  1  0  0.093101  0  0.947599  0  0  0.105154  0  1.005193  0  0  0.106995  0  1.004487  0  0  0.106302  0.104058  0  1.005177  0
H  H37  1  0.87992742  0.22710079  0.46763845  1  0  0.093113  0  0.94758  0  0  0.105156  0  1.005191  0  0  0.106998  0  1.004485  0  0  0.106308  0.10406  0  1.005172  0
Pt  Pt38  1  0.99999679  0.50000203  0.99999842  1  0  0.078959  0  4.129548  0  0  0.132727  0  4.677493  0  0  0.119386  0  4.655341  0  0  0.556294  0.144624  0  4.691572  0
Pt  Pt39  1  0.49999804  0.00000398  0.49999897  1  0  0.078949  0  4.129616  0  0  0.132796  0  4.677478  0  0  0.119455  0  4.655323  0  0  0.556269  0.144688  0  4.691554  0
C  C40  1  0.82405921  0.44095182  0.89851886  1  0  0.072495  0  3.631982  0  0  0.038595  0  3.982606  0  0  0.050116  0  3.991798  0  0  -0.006397  0.030434  0  3.976063  0
C  C41  1  0.32406330  0.05905349  0.60148554  1  0  0.072525  0  3.631956  0  0  0.038613  0  3.982564  0  0  0.050131  0  3.991755  0  0  -0.006356  0.03045  0  3.976021  0
C  C42  1  0.17593493  0.55905004  0.10148041  1  0  0.072494  0  3.631897  0  0  0.038595  0  3.982523  0  0  0.050115  0  3.991716  0  0  -0.006384  0.030432  0  3.975977  0
C  C43  1  0.67593309  0.94095222  0.39851491  1  0  0.072481  0  3.63192  0  0  0.038563  0  3.982546  0  0  0.050081  0  3.99174  0  0  -0.006399  0.030399  0  3.976001  0
C  C44  1  0.94135148  0.68030463  0.98313731  1  0  0.113812  0  3.601709  0  0  0.077365  0  3.944619  0  0  0.092226  0  3.952387  0  0  0.005714  0.066111  0  3.939536  0
C  C45  1  0.44135102  0.81969344  0.51686519  1  0  0.113803  0  3.601838  0  0  0.077352  0  3.944706  0  0  0.092207  0  3.952474  0  0  0.005695  0.066104  0  3.939624  0
C  C46  1  0.05864603  0.31969243  0.01686351  1  0  0.113904  0  3.601658  0  0  0.077468  0  3.944536  0  0  0.092323  0  3.9523  0  0  0.005715  0.066222  0  3.939455  0
C  C47  1  0.55864537  0.18030555  0.48313856  1  0  0.113842  0  3.601685  0  0  0.077369  0  3.944596  0  0  0.092229  0  3.952362  0  0  0.005663  0.066115  0  3.939513  0
C  C48  1  0.15723958  0.94241493  0.27299472  1  0  0.169316  0  3.61057  0  0  0.111178  0  3.882947  0  0  0.119016  0  3.888845  0  0  -0.073777  0.105799  0  3.878963  0
C  C49  1  0.65723796  0.55758447  0.22700327  1  0  0.16923  0  3.610535  0  0  0.111061  0  3.882958  0  0  0.118901  0  3.888854  0  0  -0.07381  0.105681  0  3.878975  0
C  C50  1  0.84276242  0.05758308  0.72700430  1  0  0.169251  0  3.610591  0  0  0.111079  0  3.883027  0  0  0.11892  0  3.888926  0  0  -0.073837  0.105699  0  3.879044  0
C  C51  1  0.34276067  0.44241546  0.77299587  1  0  0.169326  0  3.610535  0  0  0.111192  0  3.882928  0  0  0.119032  0  3.888828  0  0  -0.073777  0.105811  0  3.878949  0
C  C52  1  0.28192460  0.84240517  0.88225283  1  0  0.132555  0  3.725938  0  0  0.101425  0  3.977453  0  0  0.108234  0  3.998236  0  0  0.043335  0.097236  0  3.963076  0
C  C53  1  0.78192553  0.65759216  0.61774916  1  0  0.132575  0  3.725858  0  0  0.101437  0  3.977378  0  0  0.108247  0  3.998163  0  0  0.043349  0.097247  0  3.963003  0
C  C54  1  0.71807740  0.15759572  0.11774358  1  0  0.132548  0  3.725974  0  0  0.101422  0  3.977469  0  0  0.108232  0  3.998257  0  0  0.043321  0.097235  0  3.963091  0
C  C55  1  0.21807535  0.34240490  0.38225260  1  0  0.132558  0  3.72582  0  0  0.101425  0  3.977355  0  0  0.108232  0  3.99814  0  0  0.043325  0.097236  0  3.962975  0
C  C56  1  0.33702466  0.91821711  0.08691616  1  0  0.278216  0  3.699083  0  0  0.281434  0  3.9383  0  0  0.289822  0  3.96046  0  0  0.124707  0.275892  0  3.923578  0
C  C57  1  0.83702109  0.58178206  0.41308409  1  0  0.278203  0  3.699106  0  0  0.281513  0  3.938149  0  0  0.289903  0  3.960309  0  0  0.124771  0.27597  0  3.923428  0
C  C58  1  0.66297959  0.08178379  0.91308398  1  0  0.278225  0  3.699078  0  0  0.281436  0  3.938248  0  0  0.289829  0  3.960413  0  0  0.124742  0.275894  0  3.92353  0
C  C59  1  0.16297642  0.41821884  0.58691605  1  0  0.278132  0  3.699144  0  0  0.281469  0  3.938189  0  0  0.28986  0  3.960352  0  0  0.124706  0.275925  0  3.923471  0
C  C60  1  0.29101309  0.99617222  0.20390345  1  0  -0.241182  0  3.713272  0  0  -0.282497  0  3.960177  0  0  -0.286552  0  3.972009  0  0  -0.168716  -0.279992  0  3.952332  0
C  C61  1  0.79101239  0.50382606  0.29609781  1  0  -0.241126  0  3.713265  0  0  -0.282451  0  3.960193  0  0  -0.286505  0  3.972023  0  0  -0.168684  -0.279944  0  3.952348  0
C  C62  1  0.70899004  0.00382388  0.79609638  1  0  -0.241159  0  3.713236  0  0  -0.282451  0  3.960157  0  0  -0.286506  0  3.971978  0  0  -0.168661  -0.279945  0  3.952312  0
C  C63  1  0.20898737  0.49617292  0.70390407  1  0  -0.241167  0  3.713298  0  0  -0.282537  0  3.96021  0  0  -0.28659  0  3.972029  0  0  -0.168708  -0.28003  0  3.95237  0
C  C64  1  0.41598691  0.77436904  0.87050651  1  0  -0.127824  0  3.732374  0  0  -0.138725  0  3.981073  0  0  -0.146967  0  4.004058  0  0  -0.08742  -0.133317  0  3.965568  0
C  C65  1  0.91598768  0.72562713  0.62949407  1  0  -0.127891  0  3.732468  0  0  -0.138778  0  3.981174  0  0  -0.147019  0  4.004149  0  0  -0.087452  -0.13337  0  3.965669  0
C  C66  1  0.58401510  0.22563282  0.12949462  1  0  -0.127802  0  3.732293  0  0  -0.138692  0  3.980991  0  0  -0.14693  0  4.003961  0  0  -0.087384  -0.133286  0  3.965486  0
C  C67  1  0.08401433  0.27436993  0.37050769  1  0  -0.127921  0  3.732508  0  0  -0.138816  0  3.981203  0  0  -0.147058  0  4.004188  0  0  -0.087488  -0.133409  0  3.965696  0
C  C68  1  0.47404821  0.85218142  0.08116655  1  0  -0.15503  0  3.681601  0  0  -0.173354  0  3.926977  0  0  -0.181453  0  3.948903  0  0  -0.082505  -0.168655  0  3.912609  0
C  C69  1  0.97404788  0.64781756  0.41883235  1  0  -0.155206  0  3.681748  0  0  -0.173508  0  3.927073  0  0  -0.181609  0  3.948998  0  0  -0.082547  -0.16881  0  3.912705  0
C  C70  1  0.52595268  0.14781948  0.91883452  1  0  -0.155166  0  3.681729  0  0  -0.173434  0  3.927054  0  0  -0.181535  0  3.948981  0  0  -0.082536  -0.168735  0  3.912689  0
C  C71  1  0.02595189  0.35218238  0.58116866  1  0  -0.155031  0  3.681589  0  0  -0.173396  0  3.926912  0  0  -0.181497  0  3.948838  0  0  -0.082497  -0.168699  0  3.912549  0
C  C72  1  0.51357435  0.77888362  0.97260208  1  0  0.015387  0  3.711177  0  0  -0.002792  0  3.958936  0  0  0.001867  0  3.976886  0  0  -0.063064  -0.004946  0  3.945589  0
C  C73  1  0.01357512  0.72111406  0.52739791  1  0  0.015408  0  3.71128  0  0  -0.00278  0  3.959032  0  0  0.001881  0  3.976984  0  0  -0.063058  -0.004932  0  3.94568  0
C  C74  1  0.48642654  0.22111535  0.02739606  1  0  0.015404  0  3.711248  0  0  -0.002798  0  3.959005  0  0  0.001864  0  3.976955  0  0  -0.063091  -0.004951  0  3.945659  0
C  C75  1  0.98642689  0.27888492  0.47260210  1  0  0.015438  0  3.711199  0  0  -0.002733  0  3.958974  0  0  0.001927  0  3.976921  0  0  -0.063039  -0.004884  0  3.945621  0
N  N76  1  0.72142016  0.40728639  0.83604475  1  0  -0.426753  0  2.873423  0  0  -0.376044  0  3.128762  0  0  -0.39171  0  3.140747  0  0  -0.349208  -0.365588  0  3.120335  0
N  N77  1  0.22142280  0.09271426  0.66396152  1  0  -0.426777  0  2.873366  0  0  -0.376071  0  3.128727  0  0  -0.391735  0  3.140713  0  0  -0.349251  -0.365621  0  3.120302  0
N  N78  1  0.27857736  0.59270970  0.16395414  1  0  -0.426716  0  2.87338  0  0  -0.375993  0  3.128698  0  0  -0.39166  0  3.140685  0  0  -0.349184  -0.365538  0  3.120269  0
N  N79  1  0.77857471  0.90728953  0.33604068  1  0  -0.426717  0  2.87332  0  0  -0.37599  0  3.128652  0  0  -0.391657  0  3.140641  0  0  -0.34919  -0.365541  0  3.120225  0
N  N80  1  0.90862591  0.78786896  0.97243065  1  0  -0.469051  0  2.9511  0  0  -0.406576  0  3.243497  0  0  -0.425755  0  3.252339  0  0  -0.37677  -0.392955  0  3.23728  0
N  N81  1  0.40863006  0.71214069  0.52757269  1  0  -0.468979  0  2.95141  0  0  -0.406501  0  3.243792  0  0  -0.425677  0  3.252634  0  0  -0.376693  -0.392884  0  3.237574  0
N  N82  1  0.09136824  0.21214059  0.02757098  1  0  -0.469081  0  2.951235  0  0  -0.406598  0  3.243617  0  0  -0.425777  0  3.252467  0  0  -0.376718  -0.392975  0  3.237391  0
N  N83  1  0.59137307  0.28786791  0.47243261  1  0  -0.469076  0  2.951076  0  0  -0.406592  0  3.243473  0  0  -0.42577  0  3.252315  0  0  -0.376728  -0.392972  0  3.237254  0
N  N84  1  0.24249413  0.91233743  0.98763617  1  0  -0.384353  0  3.209445  0  0  -0.308749  0  3.464781  0  0  -0.329946  0  3.48485  0  0  -0.32855  -0.294631  0  3.450504  0
N  N85  1  0.74249224  0.58766090  0.51236319  1  0  -0.384331  0  3.209421  0  0  -0.308755  0  3.464736  0  0  -0.329952  0  3.484803  0  0  -0.328569  -0.294637  0  3.450459  0
N  N86  1  0.75750788  0.08766346  0.01236303  1  0  -0.384341  0  3.209499  0  0  -0.308736  0  3.464833  0  0  -0.329939  0  3.484906  0  0  -0.328578  -0.29462  0  3.450558  0
N  N87  1  0.25750752  0.41234000  0.48763788  1  0  -0.384292  0  3.209382  0  0  -0.30872  0  3.464667  0  0  -0.329917  0  3.484736  0  0  -0.328532  -0.294601  0  3.450389  0
O  O88  1  0.01966441  0.97939977  0.21522019  1  0  -0.597957  0  2.178744  0  0  -0.52211  0  2.42771  0  0  -0.543153  0  2.411233  0  0  -0.41247  -0.507213  0  2.438681  0
O  O89  1  0.51966260  0.52060079  0.28477827  1  0  -0.597957  0  2.178835  0  0  -0.522083  0  2.42779  0  0  -0.543126  0  2.411313  0  0  -0.412431  -0.507184  0  2.438761  0
O  O90  1  0.98033760  0.02059632  0.78477870  1  0  -0.59798  0  2.178774  0  0  -0.5221  0  2.427743  0  0  -0.543143  0  2.411266  0  0  -0.41244  -0.507203  0  2.438716  0
O  O91  1  0.48033716  0.47939915  0.71522087  1  0  -0.597958  0  2.178765  0  0  -0.522106  0  2.42773  0  0  -0.54315  0  2.411254  0  0  -0.412449  -0.507206  0  2.438702  0
