# generated using pymatgen
data_CdH24C34(N2O3)2
_symmetry_space_group_name_H-M   'P 1'
_cell_length_a   9.81919583
_cell_length_b   10.41500706
_cell_length_c   14.06619726
_cell_angle_alpha   86.40441738
_cell_angle_beta   81.53589014
_cell_angle_gamma   81.04782049
_symmetry_Int_Tables_number   1
_chemical_formula_structural   CdH24C34(N2O3)2
_chemical_formula_sum   'Cd2 H48 C68 N8 O12'
_cell_volume   1404.34050590
_cell_formula_units_Z   2
loop_
 _symmetry_equiv_pos_site_id
 _symmetry_equiv_pos_as_xyz
  1  'x, y, z'
loop_
 _atom_site_type_symbol
 _atom_site_label
 _atom_site_symmetry_multiplicity
 _atom_site_fract_x
 _atom_site_fract_y
 _atom_site_fract_z
 _atom_site_occupancy
 _atom_site_hle17_bader_spin_density
 _atom_site_hle17_ddec_charge
 _atom_site_hle17_ddec_spin_density
 _atom_site_hle17_ddec_sum_bond_order
 _atom_site_hle17_magmom
 _atom_site_hse06_10hf_bader_spin_density
 _atom_site_hse06_10hf_ddec_charge
 _atom_site_hse06_10hf_ddec_spin_density
 _atom_site_hse06_10hf_ddec_sum_bond_order
 _atom_site_hse06_10hf_magmom
 _atom_site_hse06_bader_spin_density
 _atom_site_hse06_ddec_charge
 _atom_site_hse06_ddec_spin_density
 _atom_site_hse06_ddec_sum_bond_order
 _atom_site_hse06_magmom
 _atom_site_pbe_bader_spin_density
 _atom_site_pbe_cm5_charge
 _atom_site_pbe_ddec_charge
 _atom_site_pbe_ddec_spin_density
 _atom_site_pbe_ddec_sum_bond_order
 _atom_site_pbe_magmom
Cd  Cd0  1  0.61306906  0.60714383  0.55323322  1  0  1.115967  0  1.712959  0  0  0.919786  0  2.168424  0  0  0.978722  0  2.114874  0  0  0.773816  0.874886  0  2.207135  0
Cd  Cd1  1  0.38693111  0.39285632  0.44676736  1  0  1.115998  0  1.712895  0  0  0.919801  0  2.168353  0  0  0.978736  0  2.114803  0  0  0.773832  0.8749  0  2.20706  0
H  H2  1  0.60660638  0.09436504  0.54281872  1  0  0.123002  0  0.955617  0  0  0.129004  0  1.025016  0  0  0.133483  0  1.020511  0  0  0.106531  0.125805  0  1.028289  0
H  H3  1  0.39339230  0.90563802  0.45718188  1  0  0.123  0  0.955629  0  0  0.129008  0  1.025025  0  0  0.133486  0  1.02052  0  0  0.106525  0.125808  0  1.028301  0
H  H4  1  0.95664680  0.84356688  0.63708524  1  0  0.093843  0  0.948045  0  0  0.102148  0  1.013171  0  0  0.105542  0  1.010802  0  0  0.099883  0.099731  0  1.014752  0
H  H5  1  0.04335011  0.15643425  0.36291352  1  0  0.093842  0  0.94801  0  0  0.102126  0  1.013161  0  0  0.105521  0  1.010792  0  0  0.099859  0.099704  0  1.014742  0
H  H6  1  0.07352293  0.03693068  0.65209638  1  0  0.08711  0  0.957661  0  0  0.09704  0  1.018969  0  0  0.099607  0  1.019027  0  0  0.097854  0.09519  0  1.019138  0
H  H7  1  0.92647723  0.96306947  0.34790278  1  0  0.087105  0  0.957652  0  0  0.097035  0  1.018963  0  0  0.099601  0  1.01902  0  0  0.097856  0.095186  0  1.019137  0
H  H8  1  0.95024298  0.25961544  0.61775795  1  0  0.095284  0  0.97016  0  0  0.102256  0  1.036979  0  0  0.10518  0  1.03571  0  0  0.098937  0.100316  0  1.037499  0
H  H9  1  0.04975631  0.74038373  0.38224277  1  0  0.095316  0  0.970175  0  0  0.102267  0  1.037005  0  0  0.105208  0  1.035718  0  0  0.098944  0.100331  0  1.037527  0
H  H10  1  0.28618133  0.29342555  0.23997919  1  0  0.304341  0  0.92273  0  0  0.28602  0  0.988552  0  0  0.293498  0  0.983496  0  0  0.302446  0.280683  0  0.992269  0
H  H11  1  0.71381883  0.70657460  0.76001997  1  0  0.30434  0  0.922732  0  0  0.286018  0  0.988553  0  0  0.293495  0  0.983497  0  0  0.302444  0.280682  0  0.992267  0
H  H12  1  0.80730662  0.89082382  0.96055456  1  0  0.291371  0  0.920155  0  0  0.272151  0  0.987178  0  0  0.279321  0  0.982047  0  0  0.307417  0.266934  0  0.991136  0
H  H13  1  0.19269386  0.10917438  0.03944537  1  0  0.291375  0  0.920117  0  0  0.272168  0  0.987151  0  0  0.279339  0  0.982015  0  0  0.307425  0.266951  0  0.991099  0
H  H14  1  0.32320671  0.04989994  0.24695344  1  0  0.099848  0  0.99136  0  0  0.111669  0  1.050588  0  0  0.113408  0  1.051261  0  0  0.101857  0.110377  0  1.050155  0
H  H15  1  0.67679464  0.95009923  0.75304635  1  0  0.099892  0  0.991406  0  0  0.111732  0  1.050601  0  0  0.113469  0  1.051279  0  0  0.101879  0.11044  0  1.050161  0
H  H16  1  0.50789483  0.86145811  0.21184895  1  0  0.086752  0  0.947331  0  0  0.10151  0  1.001385  0  0  0.103252  0  1.002205  0  0  0.100774  0.100467  0  1.000668  0
H  H17  1  0.49210563  0.13854010  0.78815027  1  0  0.086755  0  0.9473  0  0  0.101514  0  1.001355  0  0  0.103257  0  1.002175  0  0  0.100773  0.100463  0  1.00063  0
H  H18  1  0.69768326  0.87560053  0.07896745  1  0  0.099176  0  0.973927  0  0  0.109441  0  1.038347  0  0  0.112854  0  1.035429  0  0  0.105188  0.106946  0  1.040606  0
H  H19  1  0.30231690  0.12439962  0.92103172  1  0  0.099185  0  0.973894  0  0  0.109444  0  1.038322  0  0  0.112858  0  1.035405  0  0  0.10518  0.106944  0  1.040575  0
H  H20  1  0.45722862  0.39332284  0.02578048  1  0  0.089694  0  0.97537  0  0  0.099916  0  1.041379  0  0  0.102039  0  1.041312  0  0  0.098264  0.098506  0  1.041415  0
H  H21  1  0.54277288  0.60667536  0.97421934  1  0  0.089726  0  0.975317  0  0  0.099922  0  1.041374  0  0  0.102044  0  1.041308  0  0  0.09829  0.098522  0  1.041392  0
H  H22  1  0.64825604  0.40705008  0.89127280  1  0  0.08012  0  0.964124  0  0  0.091727  0  1.024817  0  0  0.093628  0  1.024923  0  0  0.09401  0.090244  0  1.024894  0
H  H23  1  0.35174441  0.59294812  0.10872571  1  0  0.08013  0  0.964103  0  0  0.09172  0  1.024811  0  0  0.093639  0  1.024897  0  0  0.094004  0.090228  0  1.024899  0
H  H24  1  0.82368223  0.21414479  0.84792220  1  0  0.114849  0  0.973165  0  0  0.124616  0  1.032447  0  0  0.127753  0  1.031406  0  0  0.105343  0.122454  0  1.033008  0
H  H25  1  0.17631720  0.78585341  0.15207713  1  0  0.114886  0  0.973037  0  0  0.124643  0  1.032337  0  0  0.127781  0  1.031295  0  0  0.10535  0.122484  0  1.032909  0
H  H26  1  0.88051545  0.45362708  0.41586755  1  0  0.093006  0  0.928774  0  0  0.102969  0  0.988519  0  0  0.105638  0  0.986392  0  0  0.120056  0.100906  0  0.990355  0
H  H27  1  0.11948502  0.54637112  0.58413309  1  0  0.092994  0  0.928848  0  0  0.102963  0  0.988581  0  0  0.105631  0  0.986455  0  0  0.120048  0.100901  0  0.990425  0
H  H28  1  0.62683151  0.80513875  0.38313346  1  0  0.092705  0  0.949239  0  0  0.10054  0  1.013016  0  0  0.103339  0  1.010332  0  0  0.118787  0.098541  0  1.01466  0
H  H29  1  0.37316999  0.19485944  0.61686707  1  0  0.092743  0  0.949175  0  0  0.100574  0  1.012946  0  0  0.103374  0  1.010261  0  0  0.118795  0.098568  0  1.014587  0
H  H30  1  0.77092465  0.85807289  0.22553442  1  0  0.105437  0  0.986691  0  0  0.112851  0  1.051896  0  0  0.116333  0  1.050562  0  0  0.106474  0.110275  0  1.05322  0
H  H31  1  0.22907332  0.14192823  0.77446706  1  0  0.105461  0  0.986669  0  0  0.112896  0  1.051857  0  0  0.116367  0  1.050532  0  0  0.106469  0.1103  0  1.053196  0
H  H32  1  0.96817206  0.69810703  0.16028435  1  0  0.110103  0  0.944351  0  0  0.121409  0  1.002821  0  0  0.125024  0  0.999383  0  0  0.113607  0.118869  0  1.005002  0
H  H33  1  0.03182605  0.30189312  0.83971645  1  0  0.110068  0  0.944366  0  0  0.121376  0  1.002833  0  0  0.124991  0  0.999395  0  0  0.11359  0.11883  0  1.005016  0
H  H34  1  0.09323261  0.38788098  0.30021346  1  0  0.115322  0  0.968544  0  0  0.12562  0  1.029565  0  0  0.129246  0  1.025918  0  0  0.110893  0.122885  0  1.03217  0
H  H35  1  0.90676651  0.61211917  0.69978439  1  0  0.115281  0  0.96866  0  0  0.125633  0  1.029621  0  0  0.12926  0  1.025975  0  0  0.110911  0.122899  0  1.032228  0
H  H36  1  0.06081863  0.51070988  0.09704372  1  0  0.111283  0  0.95038  0  0  0.121542  0  1.011478  0  0  0.125623  0  1.009448  0  0  0.105841  0.1187  0  1.013123  0
H  H37  1  0.93918034  0.48929125  0.90295481  1  0  0.111272  0  0.950404  0  0  0.121567  0  1.011459  0  0  0.125646  0  1.00943  0  0  0.105855  0.118727  0  1.013103  0
H  H38  1  0.37362337  0.79204914  0.66835459  1  0  0.094051  0  0.924638  0  0  0.103417  0  0.986305  0  0  0.105988  0  0.984523  0  0  0.121594  0.101525  0  0.987816  0
H  H39  1  0.62637886  0.20795100  0.33164507  1  0  0.094052  0  0.924663  0  0  0.103424  0  0.986321  0  0  0.105995  0  0.984538  0  0  0.121595  0.101533  0  0.987827  0
H  H40  1  0.52110483  0.40421835  0.72335301  1  0  0.079681  0  0.941204  0  0  0.08964  0  1.003513  0  0  0.091823  0  1.001474  0  0  0.116914  0.087902  0  1.005093  0
H  H41  1  0.47889858  0.59578082  0.27664728  1  0  0.079716  0  0.941154  0  0  0.089614  0  1.003513  0  0  0.091796  0  1.001476  0  0  0.116914  0.087882  0  1.005095  0
H  H42  1  0.34421335  0.39314904  0.87191328  1  0  0.116784  0  0.957701  0  0  0.125686  0  1.017505  0  0  0.128614  0  1.017653  0  0  0.109155  0.123431  0  1.01777  0
H  H43  1  0.65578918  0.60684916  0.12808714  1  0  0.116785  0  0.957679  0  0  0.125685  0  1.017483  0  0  0.128612  0  1.017629  0  0  0.109166  0.123436  0  1.017751  0
H  H44  1  0.17635215  0.59073797  0.91693865  1  0  0.098987  0  0.933488  0  0  0.112344  0  0.991063  0  0  0.114981  0  0.989098  0  0  0.110603  0.110341  0  0.992464  0
H  H45  1  0.82364919  0.40926120  0.08306043  1  0  0.099032  0  0.933452  0  0  0.112395  0  0.99103  0  0  0.115032  0  0.989065  0  0  0.110608  0.110395  0  0.992424  0
H  H46  1  0.19775347  0.91688104  0.77662985  1  0  0.093119  0  0.950132  0  0  0.103704  0  1.013521  0  0  0.106773  0  1.010871  0  0  0.107556  0.101263  0  1.01596  0
H  H47  1  0.80224494  0.08311717  0.22337030  1  0  0.093103  0  0.950165  0  0  0.103703  0  1.013539  0  0  0.106774  0  1.010889  0  0  0.107545  0.101261  0  1.015981  0
H  H48  1  0.00648551  0.76436653  0.91908260  1  0  0.113339  0  0.973742  0  0  0.121626  0  1.037488  0  0  0.125377  0  1.036193  0  0  0.103852  0.118783  0  1.038832  0
H  H49  1  0.99351511  0.23563070  0.08091736  1  0  0.113327  0  0.97373  0  0  0.121614  0  1.037486  0  0  0.125364  0  1.03619  0  0  0.10385  0.118769  0  1.038821  0
C  C50  1  0.77150872  0.19120448  0.57882510  1  0  -0.08174  0  3.766764  0  0  -0.052639  0  3.995954  0  0  -0.063498  0  4.020217  0  0  -0.024758  -0.045782  0  3.980262  0
C  C51  1  0.22848820  0.80879665  0.42117508  1  0  -0.081676  0  3.766684  0  0  -0.052577  0  3.995862  0  0  -0.063434  0  4.020133  0  0  -0.024722  -0.045722  0  3.980181  0
C  C52  1  0.70824497  0.08255362  0.56740288  1  0  -0.070801  0  3.667167  0  0  -0.106122  0  3.909006  0  0  -0.10283  0  3.926913  0  0  -0.07724  -0.108395  0  3.897896  0
C  C53  1  0.29175316  0.91744652  0.43260005  1  0  -0.070832  0  3.667187  0  0  -0.106162  0  3.909041  0  0  -0.102873  0  3.92695  0  0  -0.077275  -0.108432  0  3.897933  0
C  C54  1  0.77475075  0.95752493  0.58989138  1  0  -0.078062  0  3.772089  0  0  -0.04928  0  4.003063  0  0  -0.058896  0  4.025981  0  0  -0.023023  -0.043299  0  3.988067  0
C  C55  1  0.22524839  0.04247521  0.41010931  1  0  -0.078  0  3.772129  0  0  -0.049221  0  4.00308  0  0  -0.058836  0  4.025998  0  0  -0.022989  -0.043233  0  3.988068  0
C  C56  1  0.90652985  0.94150739  0.62023649  1  0  -0.053554  0  3.719712  0  0  -0.082616  0  3.97206  0  0  -0.079887  0  3.990402  0  0  -0.080995  -0.083535  0  3.95889  0
C  C57  1  0.09347003  0.05849470  0.37976545  1  0  -0.053583  0  3.719727  0  0  -0.08263  0  3.972074  0  0  -0.079902  0  3.990416  0  0  -0.08099  -0.083544  0  3.958893  0
C  C58  1  0.97118071  0.04930870  0.62877808  1  0  -0.070023  0  3.773139  0  0  -0.081807  0  4.029835  0  0  -0.086867  0  4.052323  0  0  -0.09072  -0.078494  0  4.014019  0
C  C59  1  0.02881916  0.95069339  0.37122245  1  0  -0.069973  0  3.773126  0  0  -0.081752  0  4.029811  0  0  -0.086811  0  4.052306  0  0  -0.090716  -0.07844  0  4.014001  0
C  C60  1  0.90342800  0.17370769  0.60912715  1  0  -0.047307  0  3.708395  0  0  -0.074453  0  3.955741  0  0  -0.071321  0  3.974333  0  0  -0.079879  -0.075671  0  3.942465  0
C  C61  1  0.09656894  0.82629343  0.39087444  1  0  -0.047376  0  3.708486  0  0  -0.074506  0  3.955843  0  0  -0.071391  0  3.97443  0  0  -0.079873  -0.075728  0  3.942584  0
C  C62  1  0.69882079  0.32737085  0.56390477  1  0  0.637887  0  3.938084  0  0  0.588569  0  4.227752  0  0  0.624083  0  4.220286  0  0  0.195704  0.564325  0  4.23215  0
C  C63  1  0.30117822  0.67263026  0.43609802  1  0  0.637968  0  3.938073  0  0  0.588663  0  4.227716  0  0  0.624177  0  4.220253  0  0  0.1958  0.564421  0  4.232126  0
C  C64  1  0.70321868  0.84106861  0.58656479  1  0  0.623817  0  3.937249  0  0  0.573116  0  4.230694  0  0  0.606766  0  4.22582  0  0  0.191311  0.550308  0  4.232921  0
C  C65  1  0.29678134  0.15893251  0.41343577  1  0  0.62369  0  3.937383  0  0  0.572994  0  4.230808  0  0  0.606644  0  4.225934  0  0  0.19127  0.55018  0  4.233027  0
C  C66  1  0.41358895  0.17568000  0.13817679  1  0  0.190271  0  3.750275  0  0  0.181203  0  4.003693  0  0  0.18681  0  4.024613  0  0  0.087348  0.17735  0  3.989631  0
C  C67  1  0.58640930  0.82431918  0.86182262  1  0  0.190255  0  3.750122  0  0  0.181213  0  4.003496  0  0  0.186821  0  4.024415  0  0  0.087317  0.17735  0  3.989435  0
C  C68  1  0.40980648  0.05924351  0.19051507  1  0  -0.146976  0  3.748072  0  0  -0.171094  0  4.00201  0  0  -0.173852  0  4.022795  0  0  -0.096465  -0.168633  0  3.987957  0
C  C69  1  0.59019471  0.94075664  0.80948327  1  0  -0.147111  0  3.748068  0  0  -0.171268  0  4.00202  0  0  -0.174026  0  4.022804  0  0  -0.096531  -0.168804  0  3.987951  0
C  C70  1  0.51394716  0.95224854  0.16962269  1  0  -0.056177  0  3.798707  0  0  -0.067751  0  4.051994  0  0  -0.070755  0  4.075387  0  0  -0.092399  -0.066409  0  4.036307  0
C  C71  1  0.48605315  0.04775063  0.83037650  1  0  -0.05616  0  3.798664  0  0  -0.067734  0  4.051959  0  0  -0.070739  0  4.075353  0  0  -0.092423  -0.066387  0  4.036242  0
C  C72  1  0.62022655  0.96095787  0.09484949  1  0  -0.106388  0  3.747923  0  0  -0.13633  0  4.009556  0  0  -0.137243  0  4.02924  0  0  -0.090744  -0.135245  0  3.996741  0
C  C73  1  0.37977464  0.03904228  0.90514957  1  0  -0.106408  0  3.747913  0  0  -0.136346  0  4.00954  0  0  -0.137257  0  4.029218  0  0  -0.090736  -0.13526  0  3.996704  0
C  C74  1  0.62738657  0.07813932  0.03867256  1  0  -0.018513  0  3.738996  0  0  -0.001779  0  3.962529  0  0  -0.004741  0  3.987545  0  0  -0.004271  0.000414  0  3.945737  0
C  C75  1  0.37261477  0.92185985  0.96132652  1  0  -0.018509  0  3.738998  0  0  -0.001775  0  3.962531  0  0  -0.004733  0  3.987541  0  0  -0.004245  0.000415  0  3.945738  0
C  C76  1  0.52326864  0.18956632  0.06100329  1  0  -0.004917  0  3.762333  0  0  0.007276  0  3.990742  0  0  0.006362  0  4.01525  0  0  -0.005545  0.007963  0  3.974137  0
C  C77  1  0.47673065  0.81043286  0.93899672  1  0  -0.00491  0  3.762341  0  0  0.007293  0  3.990703  0  0  0.00638  0  4.015209  0  0  -0.00555  0.007981  0  3.9741  0
C  C78  1  0.53396193  0.30826390  0.00755326  1  0  -0.117082  0  3.775452  0  0  -0.145144  0  4.035774  0  0  -0.148469  0  4.058581  0  0  -0.102148  -0.14348  0  4.020484  0
C  C79  1  0.46603956  0.69173430  0.99244585  1  0  -0.117024  0  3.775388  0  0  -0.145091  0  4.035738  0  0  -0.148416  0  4.05855  0  0  -0.102151  -0.143423  0  4.020455  0
C  C80  1  0.64099647  0.31582183  0.93301021  1  0  -0.064383  0  3.820044  0  0  -0.075049  0  4.074274  0  0  -0.076414  0  4.097579  0  0  -0.097132  -0.074054  0  4.058327  0
C  C81  1  0.35900296  0.68417638  0.06698841  1  0  -0.064468  0  3.820118  0  0  -0.075118  0  4.074337  0  0  -0.076498  0  4.097638  0  0  -0.097155  -0.07412  0  4.058409  0
C  C82  1  0.74197367  0.20722987  0.90821058  1  0  -0.16673  0  3.729563  0  0  -0.1887  0  3.980534  0  0  -0.194527  0  4.001817  0  0  -0.100515  -0.183956  0  3.965649  0
C  C83  1  0.25802766  0.79276931  0.09178779  1  0  -0.166706  0  3.729626  0  0  -0.188653  0  3.98058  0  0  -0.194482  0  4.00187  0  0  -0.100454  -0.183917  0  3.965719  0
C  C84  1  0.73668330  0.08975988  0.96017273  1  0  0.218609  0  3.758162  0  0  0.209174  0  4.00239  0  0  0.216746  0  4.02487  0  0  0.100828  0.203773  0  3.987202  0
C  C85  1  0.26331805  0.91023929  0.03982706  1  0  0.21856  0  3.758284  0  0  0.209122  0  4.002567  0  0  0.216693  0  4.025047  0  0  0.100764  0.203721  0  3.987387  0
C  C86  1  0.93911712  0.55816973  0.28044695  1  0  0.027458  0  3.804915  0  0  0.053438  0  4.038358  0  0  0.047337  0  4.063221  0  0  -0.004287  0.056669  0  4.021432  0
C  C87  1  0.06088201  0.44183042  0.71955232  1  0  0.027496  0  3.80479  0  0  0.053474  0  4.038247  0  0  0.047375  0  4.063107  0  0  -0.004306  0.056697  0  4.021322  0
C  C88  1  0.85740635  0.54023040  0.36976273  1  0  0.095647  0  3.641588  0  0  0.057648  0  3.887066  0  0  0.064311  0  3.906079  0  0  0.058  0.05284  0  3.874885  0
C  C89  1  0.14259279  0.45976975  0.63023796  1  0  0.0956  0  3.641709  0  0  0.057607  0  3.887158  0  0  0.064268  0  3.906174  0  0  0.058005  0.052792  0  3.874993  0
C  C90  1  0.71576870  0.73772322  0.35157502  1  0  0.11783  0  3.698955  0  0  0.085587  0  3.948824  0  0  0.092763  0  3.967639  0  0  0.045672  0.081038  0  3.935498  0
C  C91  1  0.28423060  0.26227595  0.64842641  1  0  0.117781  0  3.698893  0  0  0.085552  0  3.948746  0  0  0.09273  0  3.967558  0  0  0.045673  0.081008  0  3.935398  0
C  C92  1  0.79447781  0.76583260  0.26448804  1  0  -0.11287  0  3.74539  0  0  -0.124453  0  3.997542  0  0  -0.131328  0  4.017609  0  0  -0.081719  -0.120038  0  3.98367  0
C  C93  1  0.20551942  0.23416657  0.73551290  1  0  -0.112922  0  3.745473  0  0  -0.124537  0  3.997611  0  0  -0.131403  0  4.017685  0  0  -0.081742  -0.120113  0  3.983731  0
C  C94  1  0.90601817  0.67524650  0.22809031  1  0  -0.028482  0  3.64889  0  0  -0.054609  0  3.889212  0  0  -0.050313  0  3.904962  0  0  -0.055343  -0.056276  0  3.877612  0
C  C95  1  0.09398113  0.32475268  0.77191041  1  0  -0.028434  0  3.648852  0  0  -0.054562  0  3.889186  0  0  -0.050266  0  3.904933  0  0  -0.055328  -0.056227  0  3.877573  0
C  C96  1  0.05350040  0.45770985  0.24569584  1  0  -0.033087  0  3.690578  0  0  -0.061625  0  3.939152  0  0  -0.055883  0  3.956691  0  0  -0.06817  -0.063855  0  3.925974  0
C  C97  1  0.94649842  0.54229225  0.75430267  1  0  -0.033093  0  3.690703  0  0  -0.061698  0  3.939309  0  0  -0.055955  0  3.956844  0  0  -0.068214  -0.063913  0  3.926131  0
C  C98  1  0.10635518  0.44598747  0.15193502  1  0  -0.238037  0  3.705645  0  0  -0.252188  0  3.968054  0  0  -0.264615  0  3.986589  0  0  -0.097565  -0.24462  0  3.955483  0
C  C99  1  0.89364540  0.55401657  0.84806321  1  0  -0.237988  0  3.705762  0  0  -0.252178  0  3.968161  0  0  -0.264606  0  3.986696  0  0  -0.097548  -0.244617  0  3.955596  0
C  C100  1  0.21430028  0.34177919  0.11003003  1  0  0.569911  0  3.870922  0  0  0.527585  0  4.158623  0  0  0.558698  0  4.155417  0  0  0.229337  0.506797  0  4.159892  0
C  C101  1  0.78569813  0.65821902  0.88997012  1  0  0.569812  0  3.871074  0  0  0.527552  0  4.158663  0  0  0.558668  0  4.155453  0  0  0.229334  0.506766  0  4.159946  0
C  C102  1  0.25866176  0.70852412  0.79549956  1  0  0.031849  0  3.811507  0  0  0.056727  0  4.042523  0  0  0.051075  0  4.067693  0  0  -0.004068  0.060212  0  4.025712  0
C  C103  1  0.74133945  0.29147603  0.20450162  1  0  0.031806  0  3.811535  0  0  0.056793  0  4.042441  0  0  0.051141  0  4.067613  0  0  -0.004025  0.060282  0  4.025627  0
C  C104  1  0.36228372  0.70529487  0.71502193  1  0  0.090294  0  3.648063  0  0  0.052666  0  3.893671  0  0  0.058974  0  3.912784  0  0  0.053909  0.047249  0  3.882564  0
C  C105  1  0.63771748  0.29470527  0.28497855  1  0  0.090285  0  3.648158  0  0  0.052618  0  3.893746  0  0  0.058934  0  3.912846  0  0  0.053897  0.047211  0  3.882621  0
C  C106  1  0.44543231  0.48850775  0.74604669  1  0  0.131731  0  3.694664  0  0  0.096766  0  3.951981  0  0  0.105144  0  3.969694  0  0  0.048077  0.091304  0  3.939893  0
C  C107  1  0.55457213  0.51149141  0.25395348  1  0  0.131684  0  3.694744  0  0  0.09679  0  3.951994  0  0  0.105169  0  3.969707  0  0  0.048053  0.091326  0  3.939916  0
C  C108  1  0.34681477  0.48258014  0.82769461  1  0  -0.120375  0  3.743993  0  0  -0.133128  0  4.00023  0  0  -0.14073  0  4.022479  0  0  -0.081626  -0.12835  0  3.985086  0
C  C109  1  0.65318777  0.51741806  0.17230581  1  0  -0.120406  0  3.744093  0  0  -0.133138  0  4.000292  0  0  -0.140737  0  4.022537  0  0  -0.08163  -0.128359  0  3.985159  0
C  C110  1  0.25270453  0.59318672  0.85251819  1  0  -0.029663  0  3.670014  0  0  -0.0559  0  3.914859  0  0  -0.052308  0  3.933552  0  0  -0.05666  -0.057081  0  3.901337  0
C  C111  1  0.74729769  0.40681342  0.14748146  1  0  -0.029676  0  3.669991  0  0  -0.055988  0  3.914843  0  0  -0.052396  0  3.933536  0  0  -0.056664  -0.057162  0  3.901316  0
C  C112  1  0.16655151  0.82981303  0.81594132  1  0  -0.041108  0  3.747619  0  0  -0.06637  0  3.997692  0  0  -0.062099  0  4.016931  0  0  -0.071781  -0.069554  0  3.985468  0
C  C113  1  0.83344881  0.17018614  0.18405858  1  0  -0.041119  0  3.747699  0  0  -0.066434  0  3.99776  0  0  -0.062167  0  4.017005  0  0  -0.071797  -0.069622  0  3.985533  0
C  C114  1  0.04754857  0.84565860  0.87801742  1  0  -0.220249  0  3.671544  0  0  -0.239815  0  3.932755  0  0  -0.251281  0  3.951711  0  0  -0.096482  -0.232513  0  3.920846  0
C  C115  1  0.95245087  0.15433961  0.12198191  1  0  -0.220252  0  3.671552  0  0  -0.2398  0  3.932766  0  0  -0.251266  0  3.951725  0  0  -0.096489  -0.232491  0  3.920841  0
C  C116  1  0.96858726  0.97766721  0.89137537  1  0  0.577998  0  3.84578  0  0  0.536179  0  4.128319  0  0  0.566886  0  4.126686  0  0  0.231768  0.515408  0  4.129008  0
C  C117  1  0.03141526  0.02233098  0.10862292  1  0  0.577952  0  3.845758  0  0  0.53613  0  4.128333  0  0  0.566835  0  4.126707  0  0  0.231771  0.515362  0  4.129025  0
N  N118  1  0.30877236  0.28220497  0.16658402  1  0  -0.46266  0  3.317112  0  0  -0.405405  0  3.554275  0  0  -0.428377  0  3.564331  0  0  -0.402052  -0.389621  0  3.547279  0
N  N119  1  0.69122795  0.71779421  0.83341517  1  0  -0.46259  0  3.317042  0  0  -0.40534  0  3.554129  0  0  -0.428315  0  3.564185  0  0  -0.40197  -0.389547  0  3.547125  0
N  N120  1  0.83498827  0.97957490  0.93768246  1  0  -0.442733  0  3.353259  0  0  -0.382598  0  3.586668  0  0  -0.405601  0  3.596392  0  0  -0.394849  -0.366136  0  3.579618  0
N  N121  1  0.16501204  0.02042428  0.06231602  1  0  -0.44266  0  3.353298  0  0  -0.382578  0  3.58675  0  0  -0.405589  0  3.596497  0  0  -0.394827  -0.366092  0  3.579651  0
N  N122  1  0.74767079  0.62681700  0.40349327  1  0  -0.324001  0  3.279207  0  0  -0.24328  0  3.542871  0  0  -0.264479  0  3.564044  0  0  -0.328697  -0.228944  0  3.528437  0
N  N123  1  0.25232836  0.37318315  0.59650813  1  0  -0.323931  0  3.279177  0  0  -0.243215  0  3.542828  0  0  -0.264414  0  3.564002  0  0  -0.328683  -0.228884  0  3.528394  0
N  N124  1  0.45244352  0.59806700  0.69070215  1  0  -0.328152  0  3.288839  0  0  -0.248824  0  3.560752  0  0  -0.26958  0  3.579615  0  0  -0.331073  -0.234578  0  3.548214  0
N  N125  1  0.54755991  0.40193216  0.30929955  1  0  -0.328081  0  3.288853  0  0  -0.248766  0  3.560736  0  0  -0.269526  0  3.579603  0  0  -0.331032  -0.234513  0  3.548187  0
O  O126  1  0.76076259  0.42005203  0.58321479  1  0  -0.63472  0  1.972845  0  0  -0.571347  0  2.215562  0  0  -0.59964  0  2.204507  0  0  -0.333876  -0.550838  0  2.223289  0
O  O127  1  0.23923745  0.57994909  0.41678790  1  0  -0.634782  0  1.97283  0  0  -0.571412  0  2.215535  0  0  -0.599692  0  2.204459  0  0  -0.333935  -0.550892  0  2.223249  0
O  O128  1  0.57948040  0.34636677  0.53607961  1  0  -0.687272  0  2.05605  0  0  -0.623615  0  2.32912  0  0  -0.652788  0  2.315938  0  0  -0.342029  -0.602039  0  2.336273  0
O  O129  1  0.42051918  0.65363726  0.46392228  1  0  -0.687318  0  2.05614  0  0  -0.623666  0  2.329205  0  0  -0.652841  0  2.316024  0  0  -0.342065  -0.60208  0  2.33634  0
O  O130  1  0.59445770  0.85093352  0.54660678  1  0  -0.620333  0  1.949639  0  0  -0.564718  0  2.186483  0  0  -0.591493  0  2.177239  0  0  -0.321831  -0.545171  0  2.191591  0
O  O131  1  0.40553617  0.14906760  0.45339798  1  0  -0.620279  0  1.949759  0  0  -0.564651  0  2.186572  0  0  -0.591426  0  2.177327  0  0  -0.32179  -0.545106  0  2.191679  0
O  O132  1  0.75641391  0.73286059  0.62568488  1  0  -0.673559  0  1.99771  0  0  -0.607666  0  2.237011  0  0  -0.6351  0  2.226223  0  0  -0.339809  -0.587247  0  2.244553  0
O  O133  1  0.24358580  0.26714247  0.37431491  1  0  -0.673575  0  1.997733  0  0  -0.607638  0  2.236985  0  0  -0.635075  0  2.2262  0  0  -0.33983  -0.587221  0  2.244521  0
O  O134  1  0.21496483  0.31150699  0.02487612  1  0  -0.581866  0  1.892524  0  0  -0.536135  0  2.112694  0  0  -0.555713  0  2.103615  0  0  -0.310781  -0.52209  0  2.118019  0
O  O135  1  0.78503296  0.68849510  0.97512320  1  0  -0.581814  0  1.89259  0  0  -0.536117  0  2.112737  0  0  -0.555697  0  2.103657  0  0  -0.310784  -0.522072  0  2.118073  0
O  O136  1  0.02013946  0.07722607  0.86309586  1  0  -0.556629  0  1.956922  0  0  -0.510108  0  2.183389  0  0  -0.532357  0  2.179489  0  0  -0.291093  -0.495719  0  2.186344  0
O  O137  1  0.97986307  0.92277213  0.13690314  1  0  -0.556637  0  1.956895  0  0  -0.510109  0  2.183375  0  0  -0.532356  0  2.179472  0  0  -0.291104  -0.495722  0  2.186337  0
