# generated using pymatgen
data_AgH5C4S2N2O3
_symmetry_space_group_name_H-M   'P 1'
_cell_length_a   7.70834697
_cell_length_b   11.34066501
_cell_length_c   21.45970000
_cell_angle_alpha   96.76635024
_cell_angle_beta   97.22062564
_cell_angle_gamma   107.26052763
_symmetry_Int_Tables_number   1
_chemical_formula_structural   AgH5C4S2N2O3
_chemical_formula_sum   'Ag8 H40 C32 S16 N16 O24'
_cell_volume   1753.28555878
_cell_formula_units_Z   8
loop_
 _symmetry_equiv_pos_site_id
 _symmetry_equiv_pos_as_xyz
  1  'x, y, z'
loop_
 _atom_site_type_symbol
 _atom_site_label
 _atom_site_symmetry_multiplicity
 _atom_site_fract_x
 _atom_site_fract_y
 _atom_site_fract_z
 _atom_site_occupancy
 _atom_site_hle17_bader_spin_density
 _atom_site_hle17_ddec_charge
 _atom_site_hle17_ddec_spin_density
 _atom_site_hle17_ddec_sum_bond_order
 _atom_site_hle17_magmom
 _atom_site_hse06_10hf_bader_spin_density
 _atom_site_hse06_10hf_ddec_charge
 _atom_site_hse06_10hf_ddec_spin_density
 _atom_site_hse06_10hf_ddec_sum_bond_order
 _atom_site_hse06_10hf_magmom
 _atom_site_hse06_bader_spin_density
 _atom_site_hse06_ddec_charge
 _atom_site_hse06_ddec_spin_density
 _atom_site_hse06_ddec_sum_bond_order
 _atom_site_hse06_magmom
 _atom_site_pbe_bader_charge
 _atom_site_pbe_bader_spin_density
 _atom_site_pbe_cm5_charge
 _atom_site_pbe_ddec_charge
 _atom_site_pbe_ddec_spin_density
 _atom_site_pbe_ddec_sum_bond_order
 _atom_site_pbe_magmom
Ag  Ag0  1  0.25215698  0.39567485  0.24806607  1  0  0.445332  0  1.576771  0  0  0.335807  0  2.031325  0  0  0.361201  0  1.982233  0  0.580551  0  0.395093  0.317654  0  2.065932  0
Ag  Ag1  1  0.74783800  0.60432070  0.75193348  1  0  0.445272  0  1.576816  0  0  0.335734  0  2.03139  0  0  0.361122  0  1.982296  0  0.580552  0  0.395072  0.317581  0  2.065999  0
Ag  Ag2  1  0.36206626  0.69221080  0.29138347  1  0  0.463439  0  1.570091  0  0  0.316986  0  2.034155  0  0  0.344609  0  1.986904  0  0.55543  0  0.44405  0.298346  0  2.066475  0
Ag  Ag3  1  0.63793439  0.30778850  0.70861563  1  0  0.463463  0  1.570069  0  0  0.317005  0  2.034132  0  0  0.344631  0  1.98688  0  0.555336  0  0.44405  0.298367  0  2.066453  0
Ag  Ag4  1  0.96183611  0.96206428  0.24498231  1  0  0.479996  0  1.51772  0  0  0.369618  0  1.963249  0  0  0.395633  0  1.914413  0  0.612204  0  0.400545  0.350747  0  1.997712  0
Ag  Ag5  1  0.03815756  0.03793127  0.75501717  1  0  0.480018  0  1.517665  0  0  0.369638  0  1.963168  0  0  0.395647  0  1.914335  0  0.612219  0  0.400562  0.350771  0  1.997627  0
Ag  Ag6  1  0.89929375  0.67970214  0.28853615  1  0  0.489682  0  1.517286  0  0  0.339333  0  1.97577  0  0  0.367384  0  1.929377  0  0.564681  0  0.454299  0.32042  0  2.007463  0
Ag  Ag7  1  0.10070689  0.32029716  0.71146295  1  0  0.489687  0  1.517288  0  0  0.339341  0  1.975782  0  0  0.367389  0  1.929387  0  0.564604  0  0.454317  0.320433  0  2.007475  0
H  H8  1  0.83506684  0.32709530  0.38666946  1  0  0.136035  0  0.942496  0  0  0.152021  0  1.004069  0  0  0.153676  0  1.004143  0  0.080464  0  0.094713  0.150803  0  1.004047  0
H  H9  1  0.16493336  0.67290586  0.61333206  1  0  0.136006  0  0.942513  0  0  0.151982  0  1.004096  0  0  0.153633  0  1.004174  0  0.080517  0  0.094685  0.150764  0  1.004075  0
H  H10  1  0.02195485  0.26569017  0.37360017  1  0  0.142848  0  0.929682  0  0  0.163081  0  0.98363  0  0  0.16502  0  0.982794  0  0.102773  0  0.101413  0.161693  0  0.984145  0
H  H11  1  0.97804449  0.73431193  0.62639998  1  0  0.142827  0  0.929706  0  0  0.163061  0  0.983654  0  0  0.164998  0  0.982818  0  0.102744  0  0.101399  0.161672  0  0.98417  0
H  H12  1  0.83319689  0.23782648  0.31054632  1  0  0.159189  0  0.95736  0  0  0.171469  0  1.023479  0  0  0.174817  0  1.021134  0  0.175569  0  0.103574  0.168907  0  1.025373  0
H  H13  1  0.16680114  0.76217281  0.68945499  1  0  0.159208  0  0.957326  0  0  0.171491  0  1.023438  0  0  0.174836  0  1.021097  0  0.175575  0  0.103587  0.168929  0  1.025334  0
H  H14  1  0.55103931  0.77152716  0.44156494  1  0  0.104681  0  0.988763  0  0  0.112169  0  1.054986  0  0  0.114803  0  1.052905  0  0.165276  0  0.112033  0.110222  0  1.056552  0
H  H15  1  0.44895654  0.22847588  0.55843511  1  0  0.104682  0  0.988801  0  0  0.112174  0  1.055024  0  0  0.114813  0  1.05294  0  0.165144  0  0.112024  0.110227  0  1.05659  0
H  H16  1  0.45639844  0.64560471  0.53872811  1  0  0.14703  0  0.988785  0  0  0.148958  0  1.057613  0  0  0.153653  0  1.0541  0  0.201072  0  0.10887  0.145571  0  1.060082  0
H  H17  1  0.54360221  0.35440020  0.46127228  1  0  0.147028  0  0.988824  0  0  0.149002  0  1.057581  0  0  0.153694  0  1.05408  0  0.201082  0  0.108903  0.145607  0  1.060057  0
H  H18  1  0.02000818  0.41349717  0.04192305  1  0  0.103257  0  0.990023  0  0  0.110565  0  1.074042  0  0  0.112094  0  1.073967  0  0.065772  0  0.075344  0.109582  0  1.073981  0
H  H19  1  0.97999464  0.58650400  0.95807813  1  0  0.103247  0  0.989983  0  0  0.110547  0  1.074009  0  0  0.112077  0  1.07393  0  0.06575  0  0.07534  0.109565  0  1.073947  0
H  H20  1  0.98547813  0.28873909  0.08826538  1  0  0.163141  0  0.938914  0  0  0.178122  0  0.99914  0  0  0.181845  0  0.995764  0  0.177833  0  0.105134  0.175238  0  1.001845  0
H  H21  1  0.01452294  0.71126114  0.91173566  1  0  0.163169  0  0.938901  0  0  0.178122  0  0.999151  0  0  0.181844  0  0.995777  0  0.177817  0  0.105125  0.175239  0  1.001855  0
H  H22  1  0.21325700  0.36482627  0.07325199  1  0  0.131061  0  0.959787  0  0  0.145269  0  1.026833  0  0  0.146621  0  1.027302  0  0.071721  0  0.091404  0.144292  0  1.026553  0
H  H23  1  0.78674321  0.63517209  0.92674797  1  0  0.131038  0  0.959854  0  0  0.145253  0  1.026886  0  0  0.146594  0  1.027366  0  0.071737  0  0.091398  0.144276  0  1.026606  0
H  H24  1  0.54967751  0.89603065  0.20566732  1  0  0.118491  0  0.966367  0  0  0.122345  0  1.034976  0  0  0.125431  0  1.032349  0  0.203298  0  0.117957  0.119931  0  1.037241  0
H  H25  1  0.45031878  0.10397052  0.79433263  1  0  0.118451  0  0.966427  0  0  0.122321  0  1.035018  0  0  0.125406  0  1.032391  0  0.203275  0  0.117947  0.119905  0  1.037281  0
H  H26  1  0.50423153  0.88286211  0.08065223  1  0  0.155361  0  0.930623  0  0  0.168279  0  0.978966  0  0  0.171778  0  0.977161  0  0.16153  0  0.124044  0.165689  0  0.980417  0
H  H27  1  0.49576824  0.11713532  0.91934765  1  0  0.155379  0  0.930587  0  0  0.168302  0  0.978925  0  0  0.171801  0  0.977119  0  0.161619  0  0.124045  0.165704  0  0.980385  0
H  H28  1  0.97240496  0.79386379  0.03709665  1  0  0.123649  0  0.95185  0  0  0.143697  0  1.009651  0  0  0.144603  0  1.01027  0  0.04237  0  0.09122  0.14307  0  1.009239  0
H  H29  1  0.02760005  0.20613644  0.96290457  1  0  0.123644  0  0.951823  0  0  0.143688  0  1.009634  0  0  0.144593  0  1.010254  0  0.042403  0  0.091212  0.143061  0  1.009222  0
H  H30  1  0.03607453  0.95185724  0.07746710  1  0  0.165699  0  0.920955  0  0  0.187507  0  0.967901  0  0  0.189666  0  0.967132  0  0.14898  0  0.113625  0.185821  0  0.96862  0
H  H31  1  0.96392873  0.04814206  0.92253352  1  0  0.16572  0  0.920947  0  0  0.187523  0  0.967905  0  0  0.189682  0  0.967133  0  0.148927  0  0.113639  0.185836  0  0.968624  0
H  H32  1  0.79839822  0.85740861  0.06346316  1  0  0.134007  0  0.944738  0  0  0.149703  0  1.00694  0  0  0.151141  0  1.006655  0  0.104777  0  0.097414  0.148603  0  1.007278  0
H  H33  1  0.20160548  0.14259162  0.93653614  1  0  0.134015  0  0.944729  0  0  0.149722  0  1.006915  0  0  0.15116  0  1.00663  0  0.104742  0  0.097433  0.148623  0  1.007252  0
H  H34  1  0.63044802  0.42497810  0.20414313  1  0  0.121248  0  0.946975  0  0  0.127117  0  1.010664  0  0  0.130166  0  1.007707  0  0.168733  0  0.121831  0.124729  0  1.013229  0
H  H35  1  0.36954913  0.57502494  0.79585558  1  0  0.121251  0  0.946942  0  0  0.12715  0  1.010597  0  0  0.130194  0  1.007654  0  0.168715  0  0.121847  0.124768  0  1.013145  0
H  H36  1  0.53392189  0.36137899  0.07895313  1  0  0.151198  0  0.940245  0  0  0.162377  0  0.993656  0  0  0.16609  0  0.991311  0  0.164173  0  0.117861  0.159597  0  0.99561  0
H  H37  1  0.46608050  0.63862124  0.92104471  1  0  0.151209  0  0.940187  0  0  0.16237  0  0.993618  0  0  0.166082  0  0.991272  0  0.164296  0  0.117844  0.159589  0  0.995575  0
H  H38  1  0.53459771  0.08132876  0.37922859  1  0  0.138103  0  0.957043  0  0  0.153841  0  1.019863  0  0  0.155516  0  1.019866  0  0.086595  0  0.096515  0.152593  0  1.01993  0
H  H39  1  0.46540337  0.91867147  0.62077152  1  0  0.138083  0  0.957093  0  0  0.153836  0  1.019883  0  0  0.155511  0  1.019888  0  0.086597  0  0.096508  0.152588  0  1.019951  0
H  H40  1  0.36927326  0.15647245  0.35002116  1  0  0.149931  0  0.944848  0  0  0.167777  0  1.003267  0  0  0.169779  0  1.002326  0  0.099323  0  0.100483  0.166395  0  1.003786  0
H  H41  1  0.63072477  0.84352684  0.64997922  1  0  0.14995  0  0.944832  0  0  0.167783  0  1.003261  0  0  0.169791  0  1.002315  0  0.09929  0  0.100494  0.166397  0  1.003789  0
H  H42  1  0.50758751  0.10651362  0.29824199  1  0  0.159474  0  0.917351  0  0  0.180003  0  0.970034  0  0  0.181615  0  0.970235  0  0.102314  0  0.109467  0.178683  0  0.970095  0
H  H43  1  0.49241270  0.89348754  0.70175814  1  0  0.159439  0  0.917378  0  0  0.179987  0  0.970034  0  0  0.181598  0  0.970235  0  0.10231  0  0.109435  0.178667  0  0.970096  0
H  H44  1  0.88200572  0.69771727  0.44104860  1  0  0.107938  0  0.977379  0  0  0.116192  0  1.042188  0  0  0.118728  0  1.040263  0  0.156834  0  0.114525  0.114295  0  1.04366  0
H  H45  1  0.11799536  0.30228297  0.55895105  1  0  0.107933  0  0.977348  0  0  0.11619  0  1.042147  0  0  0.11873  0  1.040216  0  0.15683  0  0.114523  0.114292  0  1.043619  0
H  H46  1  0.09118750  0.88559522  0.53567341  1  0  0.14789  0  0.9856  0  0  0.149169  0  1.055759  0  0  0.153736  0  1.052444  0  0.159713  0  0.109801  0.145842  0  1.058183  0
H  H47  1  0.90881532  0.11440314  0.46432620  1  0  0.147874  0  0.985634  0  0  0.149164  0  1.055775  0  0  0.153732  0  1.052458  0  0.159682  0  0.10981  0.145839  0  1.058194  0
C  C48  1  0.91886848  0.30453217  0.35224467  1  0  -0.319845  0  3.565112  0  0  -0.393501  0  3.818688  0  0  -0.394649  0  3.823835  0  -0.22725  0  -0.231852  -0.392369  0  3.814998  0
C  C49  1  0.08113042  0.69546900  0.64775586  1  0  -0.319821  0  3.565179  0  0  -0.393469  0  3.818747  0  0  -0.394619  0  3.823906  0  -0.227285  0  -0.231821  -0.392332  0  3.815045  0
C  C50  1  0.18971658  0.53089924  0.38733204  1  0  0.080685  0  3.77707  0  0  0.075294  0  4.066627  0  0  0.087173  0  4.084735  0  0.328949  0  0.103916  0.0673  0  4.054277  0
C  C51  1  0.81028058  0.46910380  0.61266807  1  0  0.080613  0  3.777182  0  0  0.075267  0  4.066657  0  0  0.087147  0  4.084764  0  0.32887  0  0.103916  0.067278  0  4.054299  0
C  C52  1  0.43611376  0.68732677  0.43981221  1  0  0.078883  0  3.732138  0  0  0.041479  0  3.994549  0  0  0.045985  0  4.014728  0  0.422886  0  -0.002322  0.038464  0  3.980967  0
C  C53  1  0.56388471  0.31267627  0.56018843  1  0  0.078906  0  3.732235  0  0  0.041494  0  3.994646  0  0  0.045998  0  4.014826  0  0.423392  0  -0.002307  0.03848  0  3.981063  0
C  C54  1  0.38924096  0.62580838  0.48924243  1  0  -0.217395  0  3.683361  0  0  -0.23507  0  3.967514  0  0  -0.239292  0  3.985207  0  -0.295098  0  -0.108157  -0.232224  0  3.955829  0
C  C55  1  0.61075969  0.37419373  0.51075777  1  0  -0.217443  0  3.683463  0  0  -0.235147  0  3.967612  0  0  -0.239374  0  3.985305  0  -0.295473  0  -0.108198  -0.232295  0  3.955933  0
C  C56  1  0.08210494  0.37756425  0.08129131  1  0  -0.335987  0  3.61229  0  0  -0.406521  0  3.867018  0  0  -0.407827  0  3.8726  0  -0.221081  0  -0.237121  -0.405452  0  3.863329  0
C  C57  1  0.91789788  0.62243692  0.91870940  1  0  -0.335969  0  3.612328  0  0  -0.406481  0  3.867086  0  0  -0.407775  0  3.872675  0  -0.221082  0  -0.237089  -0.405413  0  3.863398  0
C  C58  1  0.26921830  0.61885860  0.14299846  1  0  0.075877  0  3.772794  0  0  0.071298  0  4.066647  0  0  0.083452  0  4.084886  0  0.320227  0  0.104833  0.063014  0  4.054164  0
C  C59  1  0.73078017  0.38114163  0.85700200  1  0  0.075926  0  3.772739  0  0  0.071323  0  4.066626  0  0  0.083478  0  4.084863  0  0.320209  0  0.104862  0.063039  0  4.054144  0
C  C60  1  0.46247354  0.81553212  0.17133980  1  0  0.100962  0  3.701514  0  0  0.065188  0  3.968738  0  0  0.070621  0  3.987225  0  0.400276  0  0.011209  0.061415  0  3.956793  0
C  C61  1  0.53752885  0.18446531  0.82866019  1  0  0.100974  0  3.701543  0  0  0.065186  0  3.968774  0  0  0.070618  0  3.987263  0  0.40007  0  0.011188  0.061406  0  3.956854  0
C  C62  1  0.44059463  0.80994047  0.10685013  1  0  -0.197905  0  3.654652  0  0  -0.216079  0  3.933683  0  0  -0.220005  0  3.951125  0  -0.229037  0  -0.095597  -0.213486  0  3.922425  0
C  C63  1  0.55941386  0.19005602  0.89314915  1  0  -0.197918  0  3.654619  0  0  -0.216098  0  3.933646  0  0  -0.220024  0  3.951089  0  -0.229139  0  -0.095582  -0.213497  0  3.922386  0
C  C64  1  0.94093637  0.85697618  0.07361998  1  0  -0.316438  0  3.588452  0  0  -0.386652  0  3.834564  0  0  -0.387246  0  3.841038  0  -0.182952  0  -0.222924  -0.386113  0  3.830279  0
C  C65  1  0.05906602  0.14302405  0.92638019  1  0  -0.316477  0  3.588444  0  0  -0.386692  0  3.834557  0  0  -0.387286  0  3.841031  0  -0.182894  0  -0.222965  -0.386154  0  3.830272  0
C  C66  1  0.82704544  0.66590929  0.14087805  1  0  0.078626  0  3.786547  0  0  0.074692  0  4.078634  0  0  0.086744  0  4.097598  0  0.325377  0  0.105386  0.066549  0  4.06569  0
C  C67  1  0.17295346  0.33408907  0.85912091  1  0  0.078736  0  3.786397  0  0  0.074811  0  4.078476  0  0  0.086862  0  4.097422  0  0.325442  0  0.105452  0.066673  0  4.065536  0
C  C68  1  0.67278717  0.48498579  0.16942415  1  0  0.113119  0  3.696346  0  0  0.08026  0  3.95577  0  0  0.086583  0  3.9731  0  0.41163  0  0.012793  0.075818  0  3.944544  0
C  C69  1  0.32720737  0.51501163  0.83057595  1  0  0.112978  0  3.696519  0  0  0.080069  0  3.956031  0  0  0.086382  0  3.973366  0  0.411655  0  0.012717  0.075634  0  3.944808  0
C  C70  1  0.62271062  0.45125902  0.10499632  1  0  -0.209207  0  3.670128  0  0  -0.229513  0  3.954729  0  0  -0.234  0  3.97278  0  -0.199324  0  -0.10474  -0.226545  0  3.943083  0
C  C71  1  0.37728654  0.54874121  0.89500128  1  0  -0.20917  0  3.67017  0  0  -0.229418  0  3.954722  0  0  -0.233905  0  3.972778  0  -0.199402  0  -0.104688  -0.22645  0  3.943074  0
C  C72  1  0.43626948  0.08596569  0.33874568  1  0  -0.317837  0  3.561643  0  0  -0.394056  0  3.814149  0  0  -0.395406  0  3.821327  0  -0.152764  0  -0.22762  -0.392925  0  3.809177  0
C  C73  1  0.56373072  0.91403548  0.66125445  1  0  -0.317839  0  3.561744  0  0  -0.394059  0  3.814219  0  0  -0.395417  0  3.821395  0  -0.152727  0  -0.227604  -0.392918  0  3.809237  0
C  C74  1  0.18462440  0.89613735  0.38093051  1  0  0.080944  0  3.787591  0  0  0.076172  0  4.074953  0  0  0.088482  0  4.092289  0  0.32961  0  0.10423  0.067935  0  4.063205  0
C  C75  1  0.81537494  0.10386195  0.61906854  1  0  0.081031  0  3.787435  0  0  0.076257  0  4.074766  0  0  0.088568  0  4.092101  0  0.329615  0  0.10425  0.068013  0  4.063029  0
C  C76  1  0.99591308  0.77875400  0.43727312  1  0  0.079  0  3.727407  0  0  0.041518  0  3.988989  0  0  0.045942  0  4.009273  0  0.436457  0  -0.000225  0.038571  0  3.975419  0
C  C77  1  0.00408713  0.22124437  0.56272590  1  0  0.079034  0  3.727432  0  0  0.041553  0  3.989006  0  0  0.045973  0  4.009288  0  0.43688  0  -0.00026  0.038607  0  3.975436  0
C  C78  1  0.10098778  0.87184543  0.48540351  1  0  -0.211759  0  3.673665  0  0  -0.229295  0  3.957619  0  0  -0.233408  0  3.975462  0  -0.248082  0  -0.1036  -0.226562  0  3.945839  0
C  C79  1  0.89901504  0.12815293  0.51459563  1  0  -0.211776  0  3.673754  0  0  -0.229327  0  3.957719  0  0  -0.23344  0  3.975562  0  -0.248107  0  -0.103615  -0.226594  0  3.945935  0
S  S80  1  0.03077376  0.44294737  0.32113342  1  0  0.08241  0  2.851739  0  0  0.102603  0  3.286112  0  0  0.098058  0  3.273079  0  0.180612  0  0.030774  0.105497  0  3.295222  0
S  S81  1  0.96922427  0.55705474  0.67886714  1  0  0.082477  0  2.851797  0  0  0.102655  0  3.286155  0  0  0.09811  0  3.273123  0  0.180618  0  0.030798  0.105546  0  3.295264  0
S  S82  1  0.19732377  0.49688044  0.46345312  1  0  0.181605  0  2.656489  0  0  0.189347  0  2.993156  0  0  0.187307  0  3.000011  0  0.316991  0  0.122291  0.190117  0  2.988653  0
S  S83  1  0.80267339  0.50312260  0.53654699  1  0  0.181665  0  2.656563  0  0  0.189397  0  2.993225  0  0  0.187358  0  3.000083  0  0.317085  0  0.122286  0.190165  0  2.988717  0
S  S84  1  0.11390716  0.48062030  0.15516196  1  0  0.117733  0  2.86557  0  0  0.131519  0  3.293736  0  0  0.126368  0  3.287563  0  0.219814  0  0.041802  0.135039  0  3.298561  0
S  S85  1  0.88609348  0.51937899  0.84483854  1  0  0.117727  0  2.865605  0  0  0.13152  0  3.293772  0  0  0.126369  0  3.287594  0  0.21985  0  0.041778  0.13504  0  3.298596  0
S  S86  1  0.29398131  0.66545252  0.06970802  1  0  0.120797  0  2.631946  0  0  0.133144  0  2.962848  0  0  0.130696  0  2.969504  0  0.21986  0  0.092651  0.134583  0  2.958594  0
S  S87  1  0.70601977  0.33454490  0.93029191  1  0  0.120805  0  2.63189  0  0  0.133159  0  2.962807  0  0  0.130709  0  2.969463  0  0.219881  0  0.092641  0.134599  0  2.95855  0
S  S88  1  0.98768604  0.81398866  0.15072570  1  0  0.096436  0  2.884781  0  0  0.104659  0  3.324452  0  0  0.099274  0  3.317922  0  0.208893  0  0.037246  0.108017  0  3.32947  0
S  S89  1  0.01231286  0.18601251  0.84927437  1  0  0.096405  0  2.88477  0  0  0.104635  0  3.324425  0  0  0.099249  0  3.317898  0  0.208889  0  0.037258  0.107995  0  3.329441  0
S  S90  1  0.72236512  0.57414604  0.06770172  1  0  0.102761  0  2.684495  0  0  0.107938  0  3.033767  0  0  0.104508  0  3.04249  0  0.222762  0  0.085187  0.109805  0  3.028251  0
S  S91  1  0.27763509  0.42585232  0.93229730  1  0  0.102711  0  2.684448  0  0  0.107878  0  3.03371  0  0  0.104448  0  3.042434  0  0.222743  0  0.085165  0.109746  0  3.028191  0
S  S92  1  0.26753158  0.93376536  0.31189101  1  0  0.06658  0  2.821431  0  0  0.088162  0  3.250784  0  0  0.083294  0  3.238413  0  0.157687  0  0.034495  0.091135  0  3.259533  0
S  S93  1  0.73246820  0.06623488  0.68810858  1  0  0.066638  0  2.821456  0  0  0.088213  0  3.250807  0  0  0.083345  0  3.238439  0  0.157686  0  0.034536  0.09119  0  3.259557  0
S  S94  1  0.26566093  0.98031341  0.45647707  1  0  0.191978  0  2.620899  0  0  0.200567  0  2.9499  0  0  0.198658  0  2.95634  0  0.313157  0  0.125483  0.201262  0  2.945678  0
S  S95  1  0.73434015  0.01968401  0.54352240  1  0  0.191981  0  2.620853  0  0  0.200568  0  2.949857  0  0  0.198658  0  2.956297  0  0.313142  0  0.125503  0.201264  0  2.945638  0
N  N96  1  0.27533886  0.15640319  0.18300055  1  0  0.695694  0  4.129976  0  0  0.741411  0  4.396854  0  0  0.771107  0  4.403592  0  0.81606  0  0.093099  0.721382  0  4.391508  0
N  N97  1  0.72465960  0.84359424  0.81700020  1  0  0.695678  0  4.130039  0  0  0.741411  0  4.396873  0  0  0.771097  0  4.403617  0  0.81606  0  0.09308  0.721382  0  4.391529  0
N  N98  1  0.58332832  0.46530365  0.35387910  1  0  0.698465  0  4.111466  0  0  0.72883  0  4.395942  0  0  0.757379  0  4.404251  0  0.827055  0  0.095841  0.711421  0  4.389451  0
N  N99  1  0.41666709  0.53469565  0.64612023  1  0  0.698449  0  4.111855  0  0  0.728812  0  4.39632  0  0  0.757358  0  4.404636  0  0.827081  0  0.095838  0.711407  0  4.389825  0
N  N100  1  0.75403100  0.93795114  0.35538953  1  0  0.697169  0  4.107535  0  0  0.72806  0  4.392678  0  0  0.756592  0  4.401353  0  0.843343  0  0.093606  0.70897  0  4.386208  0
N  N101  1  0.24597052  0.06205003  0.64461113  1  0  0.69706  0  4.107809  0  0  0.727967  0  4.392922  0  0  0.756502  0  4.401597  0  0.843618  0  0.093562  0.708876  0  4.386452  0
N  N102  1  0.80127323  0.15270039  0.17846469  1  0  0.697218  0  4.14813  0  0  0.744604  0  4.422983  0  0  0.75917  0  4.449569  0  0.85184  0  0.090012  0.724612  0  4.419205  0
N  N103  1  0.19872785  0.84729985  0.82153635  1  0  0.697243  0  4.148178  0  0  0.744623  0  4.423044  0  0  0.759192  0  4.449642  0  0.851331  0  0.090059  0.724633  0  4.419268  0
N  N104  1  0.32309564  0.63318871  0.38204874  1  0  -0.325168  0  3.359672  0  0  -0.24304  0  3.641312  0  0  -0.263648  0  3.658644  0  -1.184514  0  -0.371073  -0.229145  0  3.629404  0
N  N105  1  0.67690108  0.36681339  0.61795129  1  0  -0.325194  0  3.359783  0  0  -0.243073  0  3.641425  0  0  -0.263682  0  3.658758  0  -1.1844  0  -0.371075  -0.229179  0  3.629515  0
N  N106  1  0.36679194  0.70738518  0.19143305  1  0  -0.322824  0  3.351449  0  0  -0.241945  0  3.631609  0  0  -0.261979  0  3.6483  0  -1.16666  0  -0.361736  -0.228413  0  3.620052  0
N  N107  1  0.63320958  0.29261599  0.80856713  1  0  -0.322855  0  3.351471  0  0  -0.241975  0  3.631643  0  0  -0.26201  0  3.648333  0  -1.166461  0  -0.361743  -0.228446  0  3.620085  0
N  N108  1  0.78700429  0.60629004  0.18948378  1  0  -0.325662  0  3.361078  0  0  -0.242591  0  3.64129  0  0  -0.263055  0  3.657934  0  -1.176949  0  -0.363973  -0.228897  0  3.630016  0
N  N109  1  0.21299461  0.39371113  0.81051443  1  0  -0.325603  0  3.361014  0  0  -0.242553  0  3.641267  0  0  -0.262997  0  3.65789  0  -1.17699  0  -0.363998  -0.228875  0  3.630005  0
N  N110  1  0.04352184  0.79290346  0.37807320  1  0  -0.331406  0  3.376334  0  0  -0.24871  0  3.659433  0  0  -0.269488  0  3.676444  0  -1.177935  0  -0.374364  -0.234786  0  3.647818  0
N  N111  1  0.95647793  0.20709677  0.62192592  1  0  -0.331522  0  3.376305  0  0  -0.248831  0  3.659454  0  0  -0.269611  0  3.676466  0  -1.178207  0  -0.374395  -0.234905  0  3.64784  0
O  O112  1  0.19368195  0.16876209  0.23142895  1  0  -0.480678  0  1.853741  0  0  -0.447576  0  2.101433  0  0  -0.470007  0  2.091586  0  -0.569794  0  -0.215592  -0.431709  0  2.107912  0
O  O113  1  0.80631652  0.83123534  0.76857087  1  0  -0.480662  0  1.853701  0  0  -0.447559  0  2.101385  0  0  -0.46997  0  2.091525  0  -0.569847  0  -0.215599  -0.431692  0  2.107866  0
O  O114  1  0.34456307  0.25275470  0.15909809  1  0  -0.460947  0  1.789148  0  0  -0.446788  0  2.00793  0  0  -0.464735  0  2.001109  0  -0.530295  0  -0.195418  -0.433683  0  2.012168  0
O  O115  1  0.65543975  0.74724366  0.84090151  1  0  -0.46083  0  1.789093  0  0  -0.44669  0  2.007872  0  0  -0.464635  0  2.001054  0  -0.530334  0  -0.195352  -0.433587  0  2.012111  0
O  O116  1  0.28485323  0.05138903  0.16139362  1  0  -0.447219  0  1.771628  0  0  -0.445592  0  1.980865  0  0  -0.460885  0  1.975717  0  -0.518386  0  -0.187097  -0.434838  0  1.984347  0
O  O117  1  0.71514697  0.94860933  0.83860634  1  0  -0.447315  0  1.771771  0  0  -0.445686  0  1.980986  0  0  -0.460979  0  1.975842  0  -0.518337  0  -0.187133  -0.434931  0  1.984468  0
O  O118  1  0.57389287  0.50968113  0.30127370  1  0  -0.496875  0  1.867551  0  0  -0.459686  0  2.131032  0  0  -0.48044  0  2.118514  0  -0.574793  0  -0.211532  -0.445916  0  2.139514  0
O  O119  1  0.42610734  0.49032004  0.69872689  1  0  -0.496806  0  1.867509  0  0  -0.459613  0  2.13097  0  0  -0.480371  0  2.11846  0  -0.574808  0  -0.211459  -0.445848  0  2.139454  0
O  O120  1  0.44891645  0.37582236  0.36186762  1  0  -0.450535  0  1.779908  0  0  -0.43254  0  1.993884  0  0  -0.448731  0  1.988824  0  -0.530796  0  -0.183833  -0.421788  0  1.996983  0
O  O121  1  0.55108027  0.62417694  0.63813131  1  0  -0.450525  0  1.779973  0  0  -0.432519  0  1.993934  0  0  -0.448688  0  1.98885  0  -0.530756  0  -0.183845  -0.421773  0  1.997039  0
O  O122  1  0.72557985  0.51168136  0.39550973  1  0  -0.455587  0  1.81801  0  0  -0.444762  0  2.044129  0  0  -0.460201  0  2.04025  0  -0.547948  0  -0.17929  -0.434228  0  2.046548  0
O  O123  1  0.27441470  0.48831607  0.60449271  1  0  -0.455633  0  1.818367  0  0  -0.444803  0  2.04448  0  0  -0.460245  0  2.040603  0  -0.547986  0  -0.179339  -0.43427  0  2.046897  0
O  O124  1  0.69937700  0.85690411  0.30397573  1  0  -0.493159  0  1.869354  0  0  -0.456885  0  2.132543  0  0  -0.477087  0  2.120288  0  -0.583753  0  -0.208296  -0.442795  0  2.140712  0
O  O125  1  0.30062190  0.14309425  0.69602370  1  0  -0.493077  0  1.869556  0  0  -0.45679  0  2.13272  0  0  -0.476991  0  2.120469  0  -0.583981  0  -0.208244  -0.442698  0  2.140886  0
O  O126  1  0.90078447  0.02841312  0.36000052  1  0  -0.44539  0  1.793877  0  0  -0.423251  0  2.013081  0  0  -0.441057  0  2.008694  0  -0.542362  0  -0.181714  -0.410616  0  2.015729  0
O  O127  1  0.09921487  0.97158618  0.63999852  1  0  -0.445367  0  1.793881  0  0  -0.423231  0  2.013098  0  0  -0.441028  0  2.008693  0  -0.542359  0  -0.181717  -0.410596  0  2.015749  0
O  O128  1  0.66106618  0.92671543  0.39971759  1  0  -0.458202  0  1.821857  0  0  -0.44771  0  2.048733  0  0  -0.462884  0  2.044375  0  -0.541582  0  -0.178981  -0.436708  0  2.0514  0
O  O129  1  0.33893795  0.07328574  0.60028225  1  0  -0.458193  0  1.821851  0  0  -0.447736  0  2.048745  0  0  -0.462921  0  2.044394  0  -0.541632  0  -0.178993  -0.436742  0  2.051431  0
O  O130  1  0.76071082  0.08891782  0.22352619  1  0  -0.49782  0  1.822897  0  0  -0.475977  0  2.056586  0  0  -0.489864  0  2.052739  0  -0.590234  0  -0.221048  -0.46227  0  2.06308  0
O  O131  1  0.23929070  0.91108335  0.77647539  1  0  -0.497815  0  1.822969  0  0  -0.475939  0  2.056625  0  0  -0.489822  0  2.052776  0  -0.59018  0  -0.221049  -0.462242  0  2.06313  0
O  O132  1  0.82039033  0.09962282  0.12587781  1  0  -0.48287  0  1.687039  0  0  -0.482489  0  1.879751  0  0  -0.491886  0  1.879231  0  -0.557553  0  -0.217684  -0.471927  0  1.883992  0
O  O133  1  0.17960770  0.90037648  0.87412350  1  0  -0.482885  0  1.687002  0  0  -0.482536  0  1.879743  0  0  -0.491939  0  1.879232  0  -0.557604  0  -0.217717  -0.471972  0  1.883983  0
O  O134  1  0.82266101  0.26851314  0.18845816  1  0  -0.4749  0  1.773434  0  0  -0.467935  0  1.993112  0  0  -0.479229  0  1.993717  0  -0.556367  0  -0.200281  -0.456244  0  1.996975  0
O  O135  1  0.17734094  0.73148616  0.81154333  1  0  -0.474939  0  1.77348  0  0  -0.46795  0  1.993133  0  0  -0.479243  0  1.993741  0  -0.55585  0  -0.200299  -0.456253  0  1.996986  0
