# generated using pymatgen
data_Li2B2H12C14O11
_symmetry_space_group_name_H-M   'P 1'
_cell_length_a   6.86844032
_cell_length_b   7.49436023
_cell_length_c   16.62672496
_cell_angle_alpha   86.04382295
_cell_angle_beta   78.39816841
_cell_angle_gamma   77.87030893
_symmetry_Int_Tables_number   1
_chemical_formula_structural   Li2B2H12C14O11
_chemical_formula_sum   'Li4 B4 H24 C28 O22'
_cell_volume   819.33092369
_cell_formula_units_Z   2
loop_
 _symmetry_equiv_pos_site_id
 _symmetry_equiv_pos_as_xyz
  1  'x, y, z'
loop_
 _atom_site_type_symbol
 _atom_site_label
 _atom_site_symmetry_multiplicity
 _atom_site_fract_x
 _atom_site_fract_y
 _atom_site_fract_z
 _atom_site_occupancy
 _atom_site_pbe_bader_spin_density
 _atom_site_pbe_cm5_charge
 _atom_site_pbe_ddec_charge
 _atom_site_pbe_ddec_spin_density
 _atom_site_pbe_ddec_sum_bond_order
 _atom_site_pbe_magmom
Li  Li0  1  0.48817461  0.31729211  0.37691726  1  0  0.572679  0.829557  0  0.477241  0
Li  Li1  1  0.51203582  0.68266617  0.62295154  1  0  0.571884  0.829339  0  0.477775  0
Li  Li2  1  0.75951158  0.74045239  0.39669406  1  0  0.53895  0.824954  0  0.462796  0
Li  Li3  1  0.24067420  0.25901054  0.60351353  1  0  0.539291  0.82569  0  0.460951  0
B  B4  1  0.44675333  0.70018499  0.30907235  1  0  0.033453  0.978359  0  3.173448  0
B  B5  1  0.55354304  0.29968594  0.69092044  1  0  0.033645  0.978747  0  3.173164  0
B  B6  1  0.79352438  0.10518717  0.42123644  1  0  0.017757  0.993772  0  3.17177  0
B  B7  1  0.20650753  0.89481885  0.57872891  1  0  0.017424  0.993718  0  3.171712  0
H  H8  1  0.60976193  0.22252522  0.52474939  1  0  0.327008  0.401702  0  0.924782  0
H  H9  1  0.39032280  0.77754253  0.47522709  1  0  0.326822  0.401418  0  0.925269  0
H  H10  1  0.71292423  0.52190134  0.29517886  1  0  0.331764  0.400995  0  0.921041  0
H  H11  1  0.28743012  0.47807437  0.70478654  1  0  0.33202  0.40117  0  0.920498  0
H  H12  1  0.45789798  0.94559877  0.35493931  1  0  0.337208  0.399091  0  0.917646  0
H  H13  1  0.54279231  0.05417514  0.64503968  1  0  0.337317  0.399446  0  0.91831  0
H  H14  1  0.87048976  0.89698399  0.50517121  1  0  0.324291  0.390554  0  0.947872  0
H  H15  1  0.12947783  0.10315547  0.49482747  1  0  0.324436  0.391002  0  0.947182  0
H  H16  1  0.60984886  0.81147036  0.06882362  1  0  0.103822  0.118137  0  1.00656  0
H  H17  1  0.39017315  0.18867098  0.93118923  1  0  0.103992  0.118353  0  1.006311  0
H  H18  1  0.44438230  0.71878105  0.96168215  1  0  0.102534  0.099145  0  0.997002  0
H  H19  1  0.55564798  0.28128139  0.03834403  1  0  0.102666  0.099194  0  0.996833  0
H  H20  1  0.12868578  0.59542757  0.00261207  1  0  0.096182  0.097967  0  1.022534  0
H  H21  1  0.87135840  0.40458713  0.99742718  1  0  0.096252  0.098184  0  1.02245  0
H  H22  1  0.97761980  0.56461858  0.15191253  1  0  0.10809  0.110306  0  0.995416  0
H  H23  1  0.02249175  0.43537055  0.84813892  1  0  0.108045  0.11025  0  0.995782  0
H  H24  1  0.66179640  0.04006200  0.19876386  1  0  0.111885  0.127944  0  1.023683  0
H  H25  1  0.33836518  0.95982335  0.80120332  1  0  0.111904  0.12792  0  1.023876  0
H  H26  1  0.88981576  0.07065094  0.06338822  1  0  0.098081  0.08831  0  1.028842  0
H  H27  1  0.11037139  0.92924755  0.93658006  1  0  0.098134  0.088265  0  1.028605  0
H  H28  1  0.22145977  0.16131317  0.05651849  1  0  0.095736  0.092087  0  1.038139  0
H  H29  1  0.77869021  0.83866518  0.94347847  1  0  0.095656  0.091843  0  1.038084  0
H  H30  1  0.32921909  0.21208566  0.18703396  1  0  0.108919  0.104784  0  1.01016  0
H  H31  1  0.67086520  0.78790086  0.81297949  1  0  0.108938  0.104913  0  1.010339  0
C  C32  1  0.21282820  0.66176035  0.19292061  1  0  -0.028876  -0.205729  0  4.008232  0
C  C33  1  0.78733324  0.33817333  0.80711838  1  0  -0.0289  -0.206205  0  4.009167  0
C  C34  1  0.39211263  0.73304052  0.16945310  1  0  0.115102  0.326368  0  4.052774  0
C  C35  1  0.60802120  0.26695747  0.83057219  1  0  0.114912  0.326189  0  4.052896  0
C  C36  1  0.47238738  0.75554386  0.08550788  1  0  -0.106861  -0.218737  0  3.975185  0
C  C37  1  0.52767103  0.24453430  0.91450949  1  0  -0.107066  -0.21873  0  3.975357  0
C  C38  1  0.37814045  0.70533180  0.02664725  1  0  -0.082199  -0.042793  0  4.033599  0
C  C39  1  0.62188481  0.29474839  0.97337635  1  0  -0.08233  -0.042933  0  4.034091  0
C  C40  1  0.20003618  0.63511077  0.04961192  1  0  -0.107874  -0.137485  0  4.046443  0
C  C41  1  0.80000572  0.36495284  0.95041689  1  0  -0.107964  -0.137841  0  4.047273  0
C  C42  1  0.11734641  0.61593391  0.13226422  1  0  -0.077649  -0.051681  0  3.996196  0
C  C43  1  0.88276359  0.38406334  0.86778047  1  0  -0.077552  -0.051353  0  3.997065  0
C  C44  1  0.12219075  0.65071637  0.28029514  1  0  0.259298  0.62239  0  4.117875  0
C  C45  1  0.87804017  0.34916711  0.71974585  1  0  0.259719  0.623411  0  4.116982  0
C  C46  1  0.05721357  0.15728497  0.26419253  1  0  -0.030962  -0.207453  0  4.009403  0
C  C47  1  0.94286929  0.84267280  0.73580093  1  0  -0.031164  -0.208174  0  4.009874  0
C  C48  1  0.86561398  0.11343968  0.26744849  1  0  0.122759  0.329946  0  4.039448  0
C  C49  1  0.13450955  0.88647912  0.73253091  1  0  0.122539  0.330003  0  4.039099  0
C  C50  1  0.80621323  0.08172621  0.19462776  1  0  -0.095278  -0.206291  0  3.93941  0
C  C51  1  0.19394631  0.91816878  0.80534829  1  0  -0.095334  -0.206509  0  3.939941  0
C  C52  1  0.93553496  0.09719214  0.11978601  1  0  -0.080386  -0.03989  0  4.01815  0
C  C53  1  0.06462137  0.90271917  0.88018375  1  0  -0.080261  -0.039459  0  4.017253  0
C  C54  1  0.12314360  0.14708215  0.11568344  1  0  -0.106461  -0.129689  0  4.048314  0
C  C55  1  0.87697714  0.85285035  0.88429994  1  0  -0.106545  -0.129496  0  4.047516  0
C  C56  1  0.18349915  0.17572526  0.18764409  1  0  -0.075863  -0.051963  0  3.996298  0
C  C57  1  0.81658062  0.82422576  0.81234924  1  0  -0.075929  -0.052142  0  3.996665  0
C  C58  1  0.12532719  0.17815429  0.34032950  1  0  0.259259  0.627477  0  4.109571  0
C  C59  1  0.87471040  0.82187366  0.65966293  1  0  0.259372  0.627859  0  4.109554  0
O  O60  1  0.94689748  0.62031789  0.30540841  1  0  -0.366187  -0.628837  0  2.215784  0
O  O61  1  0.05332085  0.37959046  0.69464724  1  0  -0.366612  -0.629583  0  2.215411  0
O  O62  1  0.22775050  0.68199529  0.33404788  1  0  -0.147645  -0.490189  0  2.443666  0
O  O63  1  0.77254034  0.31781221  0.66598472  1  0  -0.147861  -0.49074  0  2.443698  0
O  O64  1  0.48399220  0.78455303  0.22531434  1  0  -0.175567  -0.471511  0  2.474446  0
O  O65  1  0.51611793  0.21547399  0.77471554  1  0  -0.175658  -0.471644  0  2.473516  0
O  O66  1  0.00276108  0.15539693  0.41068435  1  0  -0.147318  -0.47952  0  2.479275  0
O  O67  1  0.99725379  0.84461907  0.58929649  1  0  -0.147335  -0.479606  0  2.479314  0
O  O68  1  0.29624554  0.21051721  0.34072215  1  0  -0.367563  -0.621459  0  2.221886  0
O  O69  1  0.70375960  0.78956736  0.65929573  1  0  -0.367419  -0.621325  0  2.222556  0
O  O70  1  0.73587789  0.10297048  0.33930535  1  0  -0.204668  -0.51846  0  2.544491  0
O  O71  1  0.26419001  0.89704162  0.66065326  1  0  -0.204375  -0.518547  0  2.544261  0
O  O72  1  0.64226653  0.24744065  0.46500924  1  0  -0.460755  -0.865038  0  2.144627  0
O  O73  1  0.35773196  0.75259861  0.53495593  1  0  -0.460843  -0.865317  0  2.145133  0
O  O74  1  0.56900614  0.51735918  0.31267907  1  0  -0.484476  -0.863978  0  2.167066  0
O  O75  1  0.43136067  0.48251365  0.68722373  1  0  -0.484728  -0.864119  0  2.167049  0
O  O76  1  0.49240496  0.81458365  0.36773993  1  0  -0.452932  -0.81905  0  2.213004  0
O  O77  1  0.50798687  0.18519589  0.63226433  1  0  -0.453144  -0.819636  0  2.213293  0
O  O78  1  0.80546601  0.92300996  0.45684131  1  0  -0.4979  -0.886117  0  2.219253  0
O  O79  1  0.19449094  0.07706437  0.54315376  1  0  -0.498359  -0.886557  0  2.217717  0
O  O80  1  0.08895323  0.47490925  0.50066708  1  0  0.033713  -0.027867  0  1.934827  0
O  O81  1  0.90549866  0.52663748  0.49924837  1  0  0.033346  -0.027104  0  1.938584  0
