# generated using pymatgen
data_CdH20C18N6(ClO)2
_symmetry_space_group_name_H-M   'P 1'
_cell_length_a   5.74958594
_cell_length_b   11.87172464
_cell_length_c   14.60340069
_cell_angle_alpha   95.57345049
_cell_angle_beta   90.00023137
_cell_angle_gamma   89.99980382
_symmetry_Int_Tables_number   1
_chemical_formula_structural   CdH20C18N6(ClO)2
_chemical_formula_sum   'Cd2 H40 C36 N12 Cl4 O4'
_cell_volume   992.07931699
_cell_formula_units_Z   2
loop_
 _symmetry_equiv_pos_site_id
 _symmetry_equiv_pos_as_xyz
  1  'x, y, z'
loop_
 _atom_site_type_symbol
 _atom_site_label
 _atom_site_symmetry_multiplicity
 _atom_site_fract_x
 _atom_site_fract_y
 _atom_site_fract_z
 _atom_site_occupancy
 _atom_site_hle17_bader_spin_density
 _atom_site_hle17_ddec_charge
 _atom_site_hle17_ddec_spin_density
 _atom_site_hle17_ddec_sum_bond_order
 _atom_site_hle17_magmom
 _atom_site_hse06_10hf_bader_spin_density
 _atom_site_hse06_10hf_ddec_charge
 _atom_site_hse06_10hf_ddec_spin_density
 _atom_site_hse06_10hf_ddec_sum_bond_order
 _atom_site_hse06_10hf_magmom
 _atom_site_hse06_bader_spin_density
 _atom_site_hse06_ddec_charge
 _atom_site_hse06_ddec_spin_density
 _atom_site_hse06_ddec_sum_bond_order
 _atom_site_hse06_magmom
 _atom_site_pbe_bader_spin_density
 _atom_site_pbe_cm5_charge
 _atom_site_pbe_ddec_charge
 _atom_site_pbe_ddec_spin_density
 _atom_site_pbe_ddec_sum_bond_order
 _atom_site_pbe_magmom
Cd  Cd0  1  0.49999774  0.00000065  0.00000048  1  0  1.123976  0  1.768175  0  0  0.951825  0  2.215846  0  0  0.998264  0  2.169991  0  0  0.698625  0.91889  0  2.247245  0
Cd  Cd1  1  0.99999821  0.50000244  0.00000338  1  0  1.124042  0  1.768165  0  0  0.951918  0  2.215809  0  0  0.998354  0  2.169954  0  0  0.698628  0.918985  0  2.247206  0
H  H2  1  0.94658073  0.13070727  0.03692952  1  0  0.405097  0  0.903999  0  0  0.374479  0  0.968715  0  0  0.384801  0  0.953861  0  0  0.255972  0.367155  0  0.979238  0
H  H3  1  0.44657744  0.36930047  0.96307743  1  0  0.405029  0  0.904093  0  0  0.374422  0  0.968793  0  0  0.384747  0  0.953936  0  0  0.255913  0.367097  0  0.979318  0
H  H4  1  0.05341620  0.86929414  0.96307207  1  0  0.405126  0  0.903972  0  0  0.374497  0  0.968699  0  0  0.384821  0  0.953844  0  0  0.255934  0.367175  0  0.979221  0
H  H5  1  0.55341600  0.63070093  0.03692895  1  0  0.405199  0  0.903879  0  0  0.374579  0  0.968591  0  0  0.384902  0  0.953737  0  0  0.255992  0.367258  0  0.979111  0
H  H6  1  0.78462704  0.19522873  0.97029962  1  0  0.393898  0  0.921723  0  0  0.361907  0  0.990494  0  0  0.371909  0  0.976079  0  0  0.255522  0.354796  0  1.000722  0
H  H7  1  0.28462607  0.30477574  0.02970885  1  0  0.39392  0  0.921675  0  0  0.361923  0  0.990462  0  0  0.371925  0  0.976045  0  0  0.255544  0.35481  0  1.000692  0
H  H8  1  0.21537337  0.80477352  0.02970477  1  0  0.393961  0  0.921636  0  0  0.361972  0  0.990404  0  0  0.371972  0  0.97599  0  0  0.255528  0.35486  0  1.000636  0
H  H9  1  0.71536738  0.69522482  0.97029816  1  0  0.393998  0  0.921589  0  0  0.362001  0  0.990374  0  0  0.372003  0  0.975958  0  0  0.255565  0.354888  0  1.000608  0
H  H10  1  0.92070271  0.83461692  0.12252095  1  0  0.104582  0  0.981482  0  0  0.109781  0  1.054827  0  0  0.113004  0  1.050276  0  0  0.128597  0.107282  0  1.058228  0
H  H11  1  0.42069196  0.66539141  0.87748381  1  0  0.104401  0  0.981611  0  0  0.109684  0  1.054894  0  0  0.112918  0  1.050327  0  0  0.128533  0.107186  0  1.058294  0
H  H12  1  0.07931509  0.16539210  0.87748672  1  0  0.104505  0  0.981524  0  0  0.109731  0  1.054865  0  0  0.112961  0  1.050302  0  0  0.128561  0.107232  0  1.058265  0
H  H13  1  0.57930845  0.33461761  0.12251770  1  0  0.104509  0  0.98158  0  0  0.109779  0  1.054867  0  0  0.112948  0  1.050375  0  0  0.128571  0.107277  0  1.058267  0
H  H14  1  0.30585981  0.99680818  0.21835280  1  0  0.089925  0  0.951342  0  0  0.099154  0  1.015033  0  0  0.1009  0  1.013146  0  0  0.125423  0.097824  0  1.016475  0
H  H15  1  0.80585919  0.50318331  0.78165385  1  0  0.089889  0  0.951334  0  0  0.099132  0  1.015012  0  0  0.100877  0  1.013131  0  0  0.12541  0.0978  0  1.016452  0
H  H16  1  0.69412668  0.00317799  0.78164210  1  0  0.089897  0  0.951454  0  0  0.099154  0  1.015101  0  0  0.100896  0  1.013226  0  0  0.125436  0.097824  0  1.016542  0
H  H17  1  0.19413600  0.49681640  0.21835651  1  0  0.08991  0  0.951418  0  0  0.099172  0  1.015078  0  0  0.100914  0  1.013202  0  0  0.125433  0.097841  0  1.016517  0
H  H18  1  0.99167409  0.84183906  0.35522979  1  0  0.089846  0  0.950052  0  0  0.102639  0  1.019286  0  0  0.102764  0  1.0203  0  0  0.114023  0.102626  0  1.018407  0
H  H19  1  0.49166297  0.65815821  0.64477080  1  0  0.089844  0  0.950067  0  0  0.102643  0  1.019287  0  0  0.102764  0  1.020313  0  0  0.114028  0.102631  0  1.018401  0
H  H20  1  0.00833327  0.15815811  0.64477147  1  0  0.089884  0  0.950138  0  0  0.10265  0  1.019343  0  0  0.10277  0  1.020365  0  0  0.114027  0.102637  0  1.018461  0
H  H21  1  0.50833396  0.34183812  0.35523039  1  0  0.089907  0  0.950079  0  0  0.10267  0  1.019305  0  0  0.10279  0  1.020324  0  0  0.114039  0.102658  0  1.01842  0
H  H22  1  0.02187911  0.73874663  0.25975499  1  0  0.094379  0  0.936885  0  0  0.108778  0  1.00316  0  0  0.10942  0  1.002928  0  0  0.109521  0.108204  0  1.003486  0
H  H23  1  0.52188073  0.76125101  0.74024481  1  0  0.094387  0  0.936898  0  0  0.108787  0  1.003175  0  0  0.109431  0  1.002939  0  0  0.10952  0.108211  0  1.003502  0
H  H24  1  0.97812826  0.26124970  0.74024278  1  0  0.094465  0  0.936842  0  0  0.108863  0  1.003074  0  0  0.10949  0  1.002848  0  0  0.109562  0.108286  0  1.003399  0
H  H25  1  0.47812663  0.23874871  0.25975870  1  0  0.094453  0  0.936864  0  0  0.108849  0  1.003104  0  0  0.10949  0  1.002867  0  0  0.109561  0.108273  0  1.003432  0
H  H26  1  0.47535044  0.66615677  0.27223209  1  0  0.088921  0  0.983125  0  0  0.094055  0  1.055964  0  0  0.097007  0  1.054602  0  0  0.088156  0.09192  0  1.056985  0
H  H27  1  0.97535644  0.83385237  0.72776804  1  0  0.088919  0  0.983058  0  0  0.094051  0  1.055907  0  0  0.097002  0  1.054543  0  0  0.088185  0.091899  0  1.05695  0
H  H28  1  0.52466214  0.33384210  0.72776862  1  0  0.08891  0  0.982977  0  0  0.094026  0  1.055853  0  0  0.096975  0  1.054495  0  0  0.088134  0.091872  0  1.056892  0
H  H29  1  0.02465092  0.16614989  0.27222951  1  0  0.088858  0  0.982995  0  0  0.093984  0  1.055864  0  0  0.096933  0  1.054504  0  0  0.088131  0.091829  0  1.056901  0
H  H30  1  0.28779022  0.53411536  0.36763844  1  0  0.084369  0  0.990459  0  0  0.096545  0  1.053853  0  0  0.098813  0  1.053022  0  0  0.097857  0.094559  0  1.055309  0
H  H31  1  0.78779574  0.96589816  0.63236856  1  0  0.084354  0  0.990518  0  0  0.096547  0  1.053886  0  0  0.098814  0  1.053056  0  0  0.097854  0.094589  0  1.055303  0
H  H32  1  0.71221541  0.46588859  0.63236130  1  0  0.084305  0  0.990534  0  0  0.096497  0  1.05392  0  0  0.098765  0  1.053087  0  0  0.097822  0.094532  0  1.055354  0
H  H33  1  0.21220640  0.03410748  0.36763610  1  0  0.084327  0  0.990552  0  0  0.096523  0  1.053918  0  0  0.098789  0  1.053088  0  0  0.097841  0.09456  0  1.05535  0
H  H34  1  0.86027910  0.57438158  0.56003803  1  0  0.087903  0  1.005796  0  0  0.090456  0  1.082634  0  0  0.094046  0  1.080241  0  0  0.094561  0.087925  0  1.084393  0
H  H35  1  0.36028078  0.92561241  0.43996891  1  0  0.087903  0  1.005927  0  0  0.090471  0  1.082743  0  0  0.09406  0  1.080353  0  0  0.094531  0.087941  0  1.084504  0
H  H36  1  0.13969870  0.42561898  0.43996418  1  0  0.087886  0  1.005784  0  0  0.090451  0  1.082614  0  0  0.09404  0  1.080226  0  0  0.094538  0.08792  0  1.08437  0
H  H37  1  0.63971441  0.07438646  0.56003659  1  0  0.087928  0  1.00574  0  0  0.090491  0  1.082575  0  0  0.094081  0  1.080183  0  0  0.094563  0.087959  0  1.084335  0
H  H38  1  0.03806226  0.70925534  0.46747482  1  0  0.091426  0  0.981633  0  0  0.102019  0  1.043722  0  0  0.103612  0  1.045622  0  0  0.097104  0.100625  0  1.043071  0
H  H39  1  0.53805817  0.79073890  0.53252749  1  0  0.091472  0  0.981713  0  0  0.102049  0  1.043809  0  0  0.103638  0  1.045717  0  0  0.097113  0.100661  0  1.043137  0
H  H40  1  0.96194336  0.29073252  0.53252776  1  0  0.09151  0  0.981768  0  0  0.102123  0  1.043825  0  0  0.103712  0  1.045736  0  0  0.097128  0.100735  0  1.04315  0
H  H41  1  0.46194224  0.20926505  0.46747431  1  0  0.091491  0  0.981819  0  0  0.102098  0  1.043876  0  0  0.103689  0  1.04578  0  0  0.097108  0.100706  0  1.043209  0
C  C42  1  0.77398957  0.86573584  0.16427486  1  0  0.172861  0  3.639108  0  0  0.096989  0  3.900152  0  0  0.111212  0  3.911925  0  0  0.158037  0.087996  0  3.892012  0
C  C43  1  0.27397527  0.63426668  0.83572919  1  0  0.173061  0  3.639123  0  0  0.097113  0  3.900127  0  0  0.11133  0  3.91189  0  0  0.158139  0.088115  0  3.891993  0
C  C44  1  0.22601779  0.13426641  0.83572885  1  0  0.172997  0  3.639016  0  0  0.097091  0  3.900024  0  0  0.111308  0  3.911795  0  0  0.158115  0.088097  0  3.891883  0
C  C45  1  0.72601644  0.36573980  0.16427555  1  0  0.172988  0  3.638987  0  0  0.097063  0  3.899991  0  0  0.111323  0  3.911801  0  0  0.158034  0.088068  0  3.891852  0
C  C46  1  0.46436711  0.94713296  0.21607374  1  0  0.193814  0  3.729565  0  0  0.139848  0  4.021422  0  0  0.150977  0  4.035504  0  0  0.138059  0.132648  0  4.011558  0
C  C47  1  0.96436775  0.55286264  0.78393214  1  0  0.193737  0  3.729421  0  0  0.139756  0  4.02129  0  0  0.150882  0  4.035373  0  0  0.137957  0.13256  0  4.011421  0
C  C48  1  0.53562807  0.05285067  0.78392712  1  0  0.193769  0  3.729339  0  0  0.13978  0  4.021202  0  0  0.150906  0  4.035285  0  0  0.137962  0.132578  0  4.011345  0
C  C49  1  0.03563613  0.44714215  0.21607588  1  0  0.193765  0  3.729433  0  0  0.139776  0  4.021304  0  0  0.150902  0  4.035393  0  0  0.138004  0.132576  0  4.01144  0
C  C50  1  0.89500286  0.78107906  0.30811196  1  0  -0.054805  0  3.635591  0  0  -0.133542  0  3.878708  0  0  -0.129704  0  3.889263  0  0  -0.04091  -0.135817  0  3.871406  0
C  C51  1  0.39500028  0.71891914  0.69189058  1  0  -0.054838  0  3.635687  0  0  -0.1336  0  3.878804  0  0  -0.129755  0  3.889362  0  0  -0.040931  -0.135868  0  3.871494  0
C  C52  1  0.10499754  0.21891643  0.69188574  1  0  -0.054911  0  3.635969  0  0  -0.133511  0  3.878923  0  0  -0.129654  0  3.889468  0  0  -0.040906  -0.135784  0  3.871622  0
C  C53  1  0.60499839  0.28108142  0.30811574  1  0  -0.054952  0  3.635985  0  0  -0.133536  0  3.879017  0  0  -0.129689  0  3.889558  0  0  -0.040946  -0.135806  0  3.871702  0
C  C54  1  0.77192859  0.69740769  0.36254103  1  0  0.077783  0  3.739675  0  0  0.097712  0  3.98072  0  0  0.097545  0  4.003666  0  0  -0.011822  0.09783  0  3.96493  0
C  C55  1  0.27192639  0.80258976  0.63745919  1  0  0.077749  0  3.739633  0  0  0.097671  0  3.980688  0  0  0.097486  0  4.003657  0  0  -0.011813  0.09779  0  3.964893  0
C  C56  1  0.22808573  0.30258610  0.63746544  1  0  0.07789  0  3.739737  0  0  0.097646  0  3.980934  0  0  0.097484  0  4.003866  0  0  -0.0118  0.097765  0  3.965139  0
C  C57  1  0.72808445  0.19741166  0.36253556  1  0  0.077912  0  3.739516  0  0  0.097595  0  3.980834  0  0  0.097429  0  4.003773  0  0  -0.011836  0.097717  0  3.96504  0
C  C58  1  0.56088569  0.64579011  0.33528179  1  0  -0.115307  0  3.752098  0  0  -0.138062  0  4.005844  0  0  -0.140522  0  4.026979  0  0  -0.099815  -0.136091  0  3.991204  0
C  C59  1  0.06087976  0.85421597  0.66471532  1  0  -0.115194  0  3.751991  0  0  -0.137941  0  4.005742  0  0  -0.140395  0  4.026884  0  0  -0.099793  -0.13596  0  3.991123  0
C  C60  1  0.43911471  0.35421130  0.66471364  1  0  -0.115267  0  3.752097  0  0  -0.137946  0  4.005859  0  0  -0.140409  0  4.027  0  0  -0.099748  -0.135958  0  3.991233  0
C  C61  1  0.93911891  0.14578629  0.33528702  1  0  -0.115254  0  3.751947  0  0  -0.137914  0  4.00573  0  0  -0.140375  0  4.026868  0  0  -0.099711  -0.135925  0  3.991104  0
C  C62  1  0.45562483  0.56976687  0.38930294  1  0  -0.112959  0  3.746779  0  0  -0.13168  0  3.995449  0  0  -0.134002  0  4.016739  0  0  -0.095112  -0.130109  0  3.981626  0
C  C63  1  0.95562530  0.93023890  0.61069415  1  0  -0.113105  0  3.747047  0  0  -0.131833  0  3.995738  0  0  -0.134153  0  4.017024  0  0  -0.095195  -0.130275  0  3.981904  0
C  C64  1  0.54438253  0.43023708  0.61069886  1  0  -0.113015  0  3.746516  0  0  -0.131743  0  3.99522  0  0  -0.134061  0  4.016502  0  0  -0.095178  -0.13019  0  3.981383  0
C  C65  1  0.04438207  0.06976166  0.38930395  1  0  -0.113012  0  3.74686  0  0  -0.131748  0  3.995531  0  0  -0.134066  0  4.016814  0  0  -0.095212  -0.130193  0  3.981698  0
C  C66  1  0.55766924  0.54012588  0.47134843  1  0  0.040498  0  3.770621  0  0  0.054779  0  4.000684  0  0  0.055079  0  4.023656  0  0  -0.012952  0.054638  0  3.984881  0
C  C67  1  0.05766967  0.95987850  0.52865471  1  0  0.04067  0  3.770454  0  0  0.054896  0  4.000576  0  0  0.055196  0  4.023548  0  0  -0.012865  0.054763  0  3.984764  0
C  C68  1  0.44232943  0.45987468  0.52864830  1  0  0.040594  0  3.770418  0  0  0.054783  0  4.00057  0  0  0.055084  0  4.02354  0  0  -0.012935  0.05465  0  3.984758  0
C  C69  1  0.94233422  0.04012714  0.47134859  1  0  0.040618  0  3.770588  0  0  0.05486  0  4.000696  0  0  0.05516  0  4.023667  0  0  -0.012908  0.054724  0  3.984888  0
C  C70  1  0.77185670  0.59140426  0.49689348  1  0  -0.107851  0  3.736442  0  0  -0.124669  0  3.984873  0  0  -0.126853  0  4.003675  0  0  -0.091312  -0.12287  0  3.971882  0
C  C71  1  0.27186610  0.90859403  0.50311160  1  0  -0.108024  0  3.736582  0  0  -0.124864  0  3.985056  0  0  -0.127051  0  4.003859  0  0  -0.091391  -0.123067  0  3.972063  0
C  C72  1  0.22814197  0.40859376  0.50310922  1  0  -0.107818  0  3.736591  0  0  -0.124626  0  3.985025  0  0  -0.126813  0  4.003833  0  0  -0.091288  -0.122828  0  3.972027  0
C  C73  1  0.72814301  0.09140738  0.49689136  1  0  -0.107992  0  3.736507  0  0  -0.124825  0  3.98496  0  0  -0.127013  0  4.003764  0  0  -0.091365  -0.123028  0  3.97197  0
C  C74  1  0.87511567  0.66912464  0.44402115  1  0  -0.113652  0  3.741432  0  0  -0.130608  0  3.982938  0  0  -0.133093  0  4.004496  0  0  -0.092971  -0.128915  0  3.968917  0
C  C75  1  0.37512113  0.83087103  0.55598527  1  0  -0.113559  0  3.741654  0  0  -0.130478  0  3.983104  0  0  -0.132958  0  4.004666  0  0  -0.092905  -0.128782  0  3.969088  0
C  C76  1  0.12488299  0.33086407  0.55597875  1  0  -0.113855  0  3.741466  0  0  -0.130784  0  3.982998  0  0  -0.13327  0  4.004548  0  0  -0.093025  -0.12909  0  3.968985  0
C  C77  1  0.62487406  0.16913207  0.44402125  1  0  -0.113702  0  3.741269  0  0  -0.130583  0  3.982783  0  0  -0.13307  0  4.00434  0  0  -0.092936  -0.128888  0  3.968765  0
N  N78  1  0.60075404  0.93138272  0.13929300  1  0  -0.42086  0  3.208475  0  0  -0.345786  0  3.49582  0  0  -0.369463  0  3.512273  0  0  -0.352785  -0.329729  0  3.484055  0
N  N79  1  0.10075280  0.56861824  0.86071268  1  0  -0.420825  0  3.208427  0  0  -0.345765  0  3.495805  0  0  -0.369437  0  3.512258  0  0  -0.352818  -0.329708  0  3.484043  0
N  N80  1  0.39924984  0.06861700  0.86071051  1  0  -0.420827  0  3.208472  0  0  -0.345747  0  3.49581  0  0  -0.369421  0  3.512266  0  0  -0.352814  -0.32969  0  3.484048  0
N  N81  1  0.89925282  0.43138993  0.13929424  1  0  -0.420961  0  3.208415  0  0  -0.345888  0  3.495797  0  0  -0.369562  0  3.512236  0  0  -0.352822  -0.329832  0  3.484035  0
N  N82  1  0.54432824  0.89622355  0.28659546  1  0  -0.259238  0  2.861823  0  0  -0.255452  0  3.132164  0  0  -0.263513  0  3.146819  0  0  -0.212365  -0.249683  0  3.122226  0
N  N83  1  0.04432874  0.60376899  0.71341014  1  0  -0.259097  0  2.861655  0  0  -0.255343  0  3.132016  0  0  -0.263402  0  3.146672  0  0  -0.212292  -0.249576  0  3.122074  0
N  N84  1  0.45565999  0.10375924  0.71340260  1  0  -0.259199  0  2.861633  0  0  -0.255429  0  3.131949  0  0  -0.263491  0  3.146606  0  0  -0.212325  -0.249661  0  3.122011  0
N  N85  1  0.95566992  0.39623241  0.28659762  1  0  -0.259184  0  2.86174  0  0  -0.255392  0  3.132074  0  0  -0.263458  0  3.146736  0  0  -0.212355  -0.249626  0  3.122133  0
N  N86  1  0.74126774  0.84420989  0.25207327  1  0  0.053069  0  3.549755  0  0  0.173718  0  3.734464  0  0  0.163673  0  3.757486  0  0  -0.127564  0.179373  0  3.720452  0
N  N87  1  0.24126631  0.65578928  0.74792772  1  0  0.052966  0  3.549809  0  0  0.173678  0  3.734438  0  0  0.163626  0  3.757476  0  0  -0.127543  0.17933  0  3.720428  0
N  N88  1  0.25873093  0.15578475  0.74792300  1  0  0.052987  0  3.549822  0  0  0.173655  0  3.734445  0  0  0.163616  0  3.757452  0  0  -0.127545  0.179312  0  3.720431  0
N  N89  1  0.75873410  0.34421551  0.25207962  1  0  0.053075  0  3.549746  0  0  0.17369  0  3.734443  0  0  0.163661  0  3.757421  0  0  -0.127477  0.179345  0  3.720434  0
Cl  Cl90  1  0.73921848  0.83802796  0.89727623  1  0  -0.607327  0  0.883675  0  0  -0.543634  0  1.124002  0  0  -0.559806  0  1.102083  0  0  -0.276758  -0.531637  0  1.139113  0
Cl  Cl91  1  0.23923353  0.66197290  0.10272899  1  0  -0.607368  0  0.883675  0  0  -0.543662  0  1.123965  0  0  -0.559831  0  1.102047  0  0  -0.276749  -0.531676  0  1.139097  0
Cl  Cl92  1  0.26077671  0.16197006  0.10272646  1  0  -0.607362  0  0.883691  0  0  -0.543654  0  1.124013  0  0  -0.559823  0  1.102085  0  0  -0.276779  -0.531666  0  1.139129  0
Cl  Cl93  1  0.76076687  0.33803105  0.89727828  1  0  -0.607352  0  0.883664  0  0  -0.54363  0  1.123936  0  0  -0.559802  0  1.102012  0  0  -0.276766  -0.531651  0  1.139068  0
O  O94  1  0.81677418  0.12019920  0.99207576  1  0  -0.838333  0  1.966644  0  0  -0.775319  0  2.155756  0  0  -0.796916  0  2.124411  0  0  -0.597765  -0.75998  0  2.177625  0
O  O95  1  0.31676878  0.37980779  0.00793434  1  0  -0.838305  0  1.966689  0  0  -0.77532  0  2.155815  0  0  -0.796913  0  2.124461  0  0  -0.597737  -0.759978  0  2.17768  0
O  O96  1  0.18322449  0.87980474  0.00792809  1  0  -0.838441  0  1.966553  0  0  -0.775399  0  2.15566  0  0  -0.796994  0  2.124313  0  0  -0.597724  -0.760058  0  2.177526  0
O  O97  1  0.68322119  0.62019192  0.99207397  1  0  -0.838564  0  1.966507  0  0  -0.775554  0  2.155656  0  0  -0.797153  0  2.124305  0  0  -0.597837  -0.760214  0  2.177522  0
