# generated using pymatgen
data_CoH32C34(N2O5)2
_symmetry_space_group_name_H-M   'P 1'
_cell_length_a   8.79189169
_cell_length_b   9.73293250
_cell_length_c   9.71497811
_cell_angle_alpha   93.80046536
_cell_angle_beta   112.39830959
_cell_angle_gamma   103.79007817
_symmetry_Int_Tables_number   1
_chemical_formula_structural   CoH32C34(N2O5)2
_chemical_formula_sum   'Co1 H32 C34 N4 O10'
_cell_volume   734.93253175
_cell_formula_units_Z   1
loop_
 _symmetry_equiv_pos_site_id
 _symmetry_equiv_pos_as_xyz
  1  'x, y, z'
loop_
 _atom_site_type_symbol
 _atom_site_label
 _atom_site_symmetry_multiplicity
 _atom_site_fract_x
 _atom_site_fract_y
 _atom_site_fract_z
 _atom_site_occupancy
 _atom_site_hse06_10hf_ddec_charge
 _atom_site_hse06_10hf_ddec_spin_density
 _atom_site_hse06_10hf_ddec_sum_bond_order
 _atom_site_hse06_10hf_magmom
 _atom_site_hse06_ddec_charge
 _atom_site_hse06_ddec_spin_density
 _atom_site_hse06_ddec_sum_bond_order
 _atom_site_hse06_magmom
 _atom_site_pbe_cm5_charge
 _atom_site_pbe_ddec_charge
 _atom_site_pbe_ddec_spin_density
 _atom_site_pbe_ddec_sum_bond_order
 _atom_site_pbe_magmom
Co  Co0  1  0.00000254  0.50000129  0.50000088  1  0.75854  -1.023451  2.749916  -0.957  0.839125  -1.015363  2.669307  -0.955  0.617548  0.721972  -1.024341  2.794894  -0.948
H  H1  1  0.00597806  0.48856288  0.80017323  1  0.091035  0.000252  1.024307  0.0  0.093334  0.000347  1.020658  0.0  0.119439  0.088564  0.000297  1.028272  0.0
H  H2  1  0.99403136  0.51144228  0.19982569  1  0.09103  0.000252  1.024252  0.0  0.093328  0.000347  1.020605  0.0  0.119427  0.088546  0.000297  1.028237  0.0
H  H3  1  0.04473954  0.66296325  0.01824029  1  0.12335  -1.6e-05  1.013954  0.0  0.126442  1e-05  1.013028  0.0  0.10667  0.121411  -1.1e-05  1.013977  0.0
H  H4  1  0.95525739  0.33703774  0.98175929  1  0.12333  -1.6e-05  1.013965  0.0  0.126422  1e-05  1.01304  0.0  0.106663  0.121392  -1.1e-05  1.013984  0.0
H  H5  1  0.02167277  0.98560599  0.73239308  1  0.120117  5.5e-05  1.033363  0.0  0.123435  9.4e-05  1.032356  0.0  0.104092  0.117777  4.8e-05  1.034104  0.0
H  H6  1  0.97831841  0.01439612  0.26760665  1  0.120071  5.5e-05  1.033409  0.0  0.123383  9.4e-05  1.032403  0.0  0.104089  0.117738  4.8e-05  1.034146  0.0
H  H7  1  0.00068642  0.80358896  0.53301584  1  0.081981  0.000331  1.048909  0.0  0.084083  0.000361  1.045772  0.0  0.116623  0.080693  0.000386  1.050597  0.0
H  H8  1  0.99931233  0.19641734  0.46698155  1  0.081895  0.000331  1.049024  0.0  0.084023  0.000362  1.045858  0.0  0.116584  0.080607  0.000387  1.050707  0.0
H  H9  1  0.19129685  0.01370936  0.08247598  1  0.092854  0.000574  1.009825  0.0  0.093887  0.000289  1.011166  0.0  0.090408  0.092264  0.000613  1.008843  0.0
H  H10  1  0.80869282  0.98628842  0.91752095  1  0.092881  0.000574  1.009806  0.0  0.0939  0.000288  1.011143  0.0  0.090386  0.092291  0.000614  1.008827  0.0
H  H11  1  0.02896101  0.89035840  0.10972429  1  0.103557  2.3e-05  1.039715  0.0  0.105861  2.2e-05  1.038965  0.0  0.092755  0.102332  7e-06  1.039402  0.0
H  H12  1  0.97102571  0.10964152  0.89027071  1  0.103595  2.2e-05  1.039781  0.0  0.105894  2.2e-05  1.039014  0.0  0.092751  0.10237  7e-06  1.039468  0.0
H  H13  1  0.76209840  0.95508268  0.49120153  1  0.108756  1e-05  1.018076  0.0  0.11222  9e-06  1.016136  0.0  0.102555  0.105783  1.7e-05  1.020584  0.0
H  H14  1  0.23790044  0.04492035  0.50879264  1  0.108769  1e-05  1.017994  0.0  0.112232  1.1e-05  1.016054  0.0  0.102567  0.105795  1.7e-05  1.020498  0.0
H  H15  1  0.62484323  0.48129004  0.80142525  1  0.272505  2e-06  1.034497  0.0  0.284369  0.0  1.025788  0.0  0.294323  0.264161  7e-06  1.040662  0.0
H  H16  1  0.37515870  0.51870765  0.19857278  1  0.27248  3e-06  1.034515  0.0  0.284332  0.0  1.025808  0.0  0.294334  0.264135  7e-06  1.040686  0.0
H  H17  1  0.25767097  0.40144771  0.62321620  1  0.391167  4.8e-05  0.950745  0.0  0.402425  0.000451  0.934807  0.001  0.291839  0.383154  -2.2e-05  0.962156  0.0
H  H18  1  0.74233247  0.59855433  0.37678567  1  0.391197  4.8e-05  0.950702  0.0  0.402453  0.000451  0.934766  0.001  0.291851  0.383183  -2.2e-05  0.962115  0.0
H  H19  1  0.10079773  0.34529467  0.67531678  1  0.357617  4e-05  1.009666  0.0  0.369542  -0.000247  0.992805  0.0  0.281611  0.348804  4e-05  1.019205  0.0
H  H20  1  0.89920696  0.65470740  0.32468757  1  0.357658  4.1e-05  1.009608  0.0  0.369586  -0.000246  0.992743  0.0  0.281628  0.348847  4.1e-05  1.019156  0.0
H  H21  1  0.48137796  0.62815426  0.63558903  1  0.118505  7e-06  0.992117  0.0  0.121976  2.9e-05  0.988269  0.0  0.134292  0.116003  -2.8e-05  0.994694  0.0
H  H22  1  0.51862363  0.37184241  0.36441192  1  0.118536  7e-06  0.992117  0.0  0.122007  2.8e-05  0.988271  0.0  0.134302  0.116033  -2.8e-05  0.994699  0.0
H  H23  1  0.42219175  0.84030982  0.73682850  1  0.122666  6.2e-05  1.032472  0.0  0.124698  4.9e-05  1.034133  0.0  0.110751  0.120613  6.7e-05  1.032749  0.0
H  H24  1  0.57780949  0.15968582  0.26317536  1  0.12264  6.2e-05  1.032414  0.0  0.124669  4.8e-05  1.034078  0.0  0.11073  0.120566  6.6e-05  1.032718  0.0
H  H25  1  0.68392333  0.75673016  0.18687317  1  0.133056  -6.1e-05  1.001936  0.0  0.136199  -6.9e-05  1.00149  0.0  0.115937  0.130761  -9.1e-05  1.002642  0.0
H  H26  1  0.31608074  0.24326653  0.81313069  1  0.13308  -6.1e-05  1.001963  0.0  0.136227  -6.8e-05  1.001517  0.0  0.115937  0.130781  -9.1e-05  1.002667  0.0
H  H27  1  0.73041535  0.54493778  0.06594045  1  0.103866  3.3e-05  1.011566  0.0  0.106844  2.4e-05  1.00898  0.0  0.127623  0.10138  4.7e-05  1.01369  0.0
H  H28  1  0.26958989  0.45505881  0.93405763  1  0.103931  3.2e-05  1.011482  0.0  0.106901  2.2e-05  1.008919  0.0  0.127663  0.101444  4.7e-05  1.0136  0.0
H  H29  1  0.62009857  0.98221703  0.15755240  1  0.095559  -2e-06  1.014789  0.0  0.095767  -8e-06  1.016219  0.0  0.096916  0.094623  9e-06  1.015334  0.0
H  H30  1  0.37990021  0.01777861  0.84244959  1  0.09551  -2e-06  1.014785  0.0  0.095704  -8e-06  1.016229  0.0  0.096917  0.094567  9e-06  1.015313  0.0
H  H31  1  0.39926033  0.89470970  0.06829358  1  0.117995  1e-05  0.985515  0.0  0.118259  6e-06  0.986952  0.0  0.10526  0.117605  2.6e-05  0.98433  0.0
H  H32  1  0.60073925  0.10528475  0.93170245  1  0.117988  1e-05  0.985487  0.0  0.118253  6e-06  0.986921  0.0  0.105258  0.117585  2.6e-05  0.984302  0.0
C  C33  1  0.01614748  0.60092070  0.79171059  1  0.106142  0.007169  3.917069  0.004  0.119055  0.004684  3.931565  0.003  0.043721  0.097322  0.008767  3.909127  0.005
C  C34  1  0.98385310  0.39908021  0.20828611  1  0.106163  0.007171  3.916854  0.004  0.119078  0.004684  3.93135  0.003  0.043727  0.097352  0.008769  3.90893  0.005
C  C35  1  0.03350945  0.69848431  0.91157392  1  -0.198842  -0.000643  3.958417  -0.001  -0.207212  -0.000588  3.976055  -0.001  -0.089853  -0.192793  -0.000337  3.945495  -0.001
C  C36  1  0.96648499  0.30151662  0.08842172  1  -0.198871  -0.000644  3.958367  -0.001  -0.207245  -0.000586  3.976009  -0.001  -0.089857  -0.192816  -0.000337  3.945443  -0.001
C  C37  1  0.03744776  0.84149286  0.89618371  1  0.170904  0.007569  3.942276  0.005  0.180291  0.004375  3.960871  0.003  0.00742  0.163922  0.010442  3.929485  0.006
C  C38  1  0.96254216  0.15850922  0.10381353  1  0.170955  0.00757  3.942132  0.005  0.180329  0.004371  3.960717  0.003  0.007427  0.163971  0.010446  3.929354  0.006
C  C39  1  0.02426363  0.87782640  0.75574714  1  -0.194472  -0.000635  3.951136  -0.001  -0.204017  -0.000579  3.970126  -0.001  -0.090112  -0.18823  -0.000398  3.939346  -0.001
C  C40  1  0.97572715  0.12217460  0.24425033  1  -0.194333  -0.000636  3.951086  -0.001  -0.203875  -0.000578  3.970085  -0.001  -0.090053  -0.188098  -0.000398  3.939307  -0.001
C  C41  1  0.01080425  0.77545044  0.64195264  1  0.094042  0.007473  3.94834  0.004  0.106363  0.005107  3.963985  0.003  0.040675  0.085775  0.008616  3.939605  0.005
C  C42  1  0.98919143  0.22455049  0.35804342  1  0.094072  0.007473  3.94841  0.004  0.106373  0.005106  3.964049  0.003  0.040687  0.085807  0.008617  3.939679  0.005
C  C43  1  0.05575861  0.94870802  0.02468724  1  -0.200152  0.000523  3.92837  0.0  -0.20246  0.000274  3.93808  0.0  -0.162401  -0.198712  0.000632  3.921366  0.0
C  C44  1  0.94422896  0.05129081  0.97530696  1  -0.200379  0.000522  3.928443  0.0  -0.202616  0.000276  3.938093  0.0  -0.162415  -0.198938  0.000632  3.921444  0.0
C  C45  1  0.65491710  0.11199905  0.55785463  1  -0.041591  -0.001441  3.96692  -0.002  -0.044455  -0.001091  3.984565  -0.002  -0.011728  -0.041095  -0.003111  3.956823  -0.004
C  C46  1  0.34508723  0.88800196  0.44215058  1  -0.041416  -0.001441  3.966723  -0.002  -0.044266  -0.001088  3.984345  -0.002  -0.011659  -0.040913  -0.003111  3.956617  -0.004
C  C47  1  0.50565779  0.13633599  0.56301381  1  -0.049799  -0.000126  3.973916  0.0  -0.053477  4e-06  3.992627  0.0  -0.012644  -0.048113  -0.000106  3.96296  0.0
C  C48  1  0.49434519  0.86366823  0.43699007  1  -0.049831  -0.000126  3.973847  0.0  -0.053499  9e-06  3.992532  0.0  -0.012662  -0.048148  -0.000105  3.962901  0.0
C  C49  1  0.64735727  0.97545265  0.49587714  1  -0.13451  -0.000139  3.984289  0.0  -0.134717  -9.8e-05  4.002395  0.0  -0.086818  -0.134982  -0.001089  3.97518  -0.001
C  C50  1  0.35264654  0.02455046  0.50412490  1  -0.134529  -0.000138  3.984235  0.0  -0.134734  -9.9e-05  4.002339  0.0  -0.086816  -0.135  -0.001089  3.975115  -0.001
C  C51  1  0.81540236  0.23307981  0.59736568  1  0.585792  -0.000218  4.222517  -0.001  0.62047  2.2e-05  4.213721  -0.001  0.204705  0.562458  -2.4e-05  4.226465  0.0
C  C52  1  0.18460195  0.76692116  0.40263746  1  0.585645  -0.000219  4.222805  -0.001  0.620317  1.8e-05  4.214003  -0.001  0.204637  0.562308  -2.4e-05  4.226754  0.0
C  C53  1  0.50699389  0.27884571  0.63426517  1  0.595646  -0.000188  4.221724  0.0  0.628922  -0.000114  4.212257  0.0  0.207126  0.573332  -0.000222  4.226978  0.0
C  C54  1  0.49300461  0.72115631  0.36573294  1  0.595512  -0.000188  4.221591  0.0  0.628788  -0.000115  4.212123  0.0  0.207103  0.5732  -0.000222  4.226851  0.0
C  C55  1  0.52569415  0.66274845  0.75655396  1  0.141141  1.5e-05  3.849686  0.0  0.15209  6.4e-05  3.862093  0.0  0.079221  0.134263  5e-06  3.84106  0.0
C  C56  1  0.47430856  0.33725146  0.24344857  1  0.141108  1.5e-05  3.849764  0.0  0.152033  6.6e-05  3.86216  0.0  0.079246  0.134228  5e-06  3.841139  0.0
C  C57  1  0.49331578  0.78073260  0.81583518  1  -0.175971  0.000133  3.902717  0.0  -0.185422  8e-05  3.924106  0.0  -0.073101  -0.169876  0.000135  3.88833  0.0
C  C58  1  0.50668693  0.21926729  0.18416632  1  -0.175857  0.000133  3.902579  0.0  -0.185308  8.3e-05  3.923977  0.0  -0.07306  -0.169746  0.000135  3.888216  0.0
C  C59  1  0.54865059  0.81746489  0.97256752  1  0.184144  -4.1e-05  3.922458  0.0  0.190703  -2e-05  3.943375  0.0  0.027468  0.179998  -7.4e-05  3.907004  0.0
C  C60  1  0.45135419  0.18253389  0.02743361  1  0.184053  -4e-05  3.922486  0.0  0.190612  -2.2e-05  3.943401  0.0  0.027407  0.179892  -7.4e-05  3.907019  0.0
C  C61  1  0.63801918  0.73266688  0.06454090  1  -0.172262  -5.4e-05  3.920583  0.0  -0.180808  -8e-05  3.941342  0.0  -0.07462  -0.167085  -5.8e-05  3.906535  0.0
C  C62  1  0.36198561  0.26733193  0.93546125  1  -0.172177  -5.3e-05  3.920688  0.0  -0.180726  -8.1e-05  3.941454  0.0  -0.074574  -0.166999  -5.8e-05  3.906633  0.0
C  C63  1  0.66613723  0.61611457  0.99946845  1  0.09917  -6.8e-05  3.913607  0.0  0.107724  -5e-05  3.929995  0.0  0.060036  0.093373  -0.000158  3.902851  0.0
C  C64  1  0.33386718  0.38388315  0.00053249  1  0.099035  -6.8e-05  3.913747  0.0  0.107563  -4.9e-05  3.930123  0.0  0.059955  0.093243  -0.000158  3.902977  0.0
C  C65  1  0.51346183  0.93997105  0.04579204  1  -0.206865  4e-06  3.959561  0.0  -0.208267  1e-06  3.971683  0.0  -0.15612  -0.205167  -3e-06  3.949893  0.0
C  C66  1  0.48653939  0.06002454  0.95420872  1  -0.206724  3e-06  3.959448  0.0  -0.208116  2e-06  3.971575  0.0  -0.156098  -0.204964  -3e-06  3.949732  0.0
N  N67  1  0.00765396  0.63783807  0.65766896  1  -0.203807  0.010655  3.611627  0.007  -0.23352  0.00797  3.629752  0.005  -0.340039  -0.188774  0.011925  3.602132  0.008
N  N68  1  0.99234652  0.36216609  0.34232994  1  -0.203814  0.010655  3.611564  0.007  -0.233525  0.007973  3.629697  0.005  -0.340039  -0.188778  0.011925  3.602071  0.008
N  N69  1  0.61051624  0.58383117  0.84848836  1  -0.164028  7.5e-05  3.670018  0.0  -0.181455  0.00013  3.687227  0.0  -0.334028  -0.152536  2.3e-05  3.658531  0.0
N  N70  1  0.38948817  0.41616656  0.15151361  1  -0.164034  7.4e-05  3.670107  0.0  -0.181395  0.000126  3.68725  0.0  -0.334057  -0.15254  2.3e-05  3.658624  0.0
O  O71  1  0.79561056  0.33830380  0.52903591  1  -0.559217  -0.022102  2.312465  -0.038  -0.590501  -0.017978  2.303181  -0.031  -0.29726  -0.536603  -0.02539  2.316875  -0.043
O  O72  1  0.20439741  0.66169711  0.47096539  1  -0.559167  -0.022103  2.312684  -0.038  -0.590463  -0.017979  2.303425  -0.031  -0.297246  -0.536551  -0.02539  2.317096  -0.043
O  O73  1  0.95959560  0.21788021  0.68572724  1  -0.589528  0.000423  2.203715  0.0  -0.61347  0.000406  2.192875  0.0  -0.327035  -0.571195  0.000376  2.208232  0.0
O  O74  1  0.04041084  0.78211976  0.31428069  1  -0.589489  0.000422  2.203836  0.0  -0.613426  0.000404  2.192989  0.0  -0.326998  -0.571158  0.000376  2.208356  0.0
O  O75  1  0.63859686  0.34297766  0.75599487  1  -0.553114  4.3e-05  2.205995  0.0  -0.578112  5.1e-05  2.19884  0.0  -0.323652  -0.535628  8.6e-05  2.209591  0.0
O  O76  1  0.36139906  0.65702756  0.24400046  1  -0.553031  4.3e-05  2.205833  0.0  -0.578029  5.1e-05  2.198684  0.0  -0.323643  -0.535545  8.6e-05  2.20944  0.0
O  O77  1  0.37675466  0.32272020  0.57108414  1  -0.58265  0.000222  2.182622  0.0  -0.605485  0.000349  2.172763  0.0  -0.326023  -0.567079  0.000338  2.188776  0.0
O  O78  1  0.62324148  0.67727856  0.42891094  1  -0.582587  0.000221  2.182604  0.0  -0.605422  0.000349  2.172747  0.0  -0.326012  -0.567014  0.000338  2.188765  0.0
O  O79  1  0.17596651  0.43456239  0.65784407  1  -0.76405  0.001709  2.302069  0.001  -0.801186  0.003394  2.270939  0.001  -0.56482  -0.739529  0.00038  2.320398  0.0
O  O80  1  0.82403533  0.56543858  0.34215719  1  -0.764146  0.00171  2.30206  0.001  -0.801286  0.003391  2.27093  0.001  -0.564849  -0.739622  0.00038  2.320395  0.0
