# generated using pymatgen
data_Mn2H50C49N6O11
_symmetry_space_group_name_H-M   'P 1'
_cell_length_a   11.26498320
_cell_length_b   11.62636785
_cell_length_c   20.68100145
_cell_angle_alpha   96.74369343
_cell_angle_beta   91.32927793
_cell_angle_gamma   108.52182843
_symmetry_Int_Tables_number   1
_chemical_formula_structural   Mn2H50C49N6O11
_chemical_formula_sum   'Mn4 H100 C98 N12 O22'
_cell_volume   2545.27043949
_cell_formula_units_Z   2
loop_
 _symmetry_equiv_pos_site_id
 _symmetry_equiv_pos_as_xyz
  1  'x, y, z'
loop_
 _atom_site_type_symbol
 _atom_site_label
 _atom_site_symmetry_multiplicity
 _atom_site_fract_x
 _atom_site_fract_y
 _atom_site_fract_z
 _atom_site_occupancy
 _atom_site_pbe_bader_charge
 _atom_site_pbe_bader_spin_density
 _atom_site_pbe_cm5_charge
 _atom_site_pbe_ddec_charge
 _atom_site_pbe_ddec_spin_density
 _atom_site_pbe_ddec_sum_bond_order
 _atom_site_pbe_magmom
Mn  Mn0  1  0.14037036  0.48957761  0.23962224  1  1.471975  4.507013  0.589764  0.816509  4.639878  2.502693  4.431
Mn  Mn1  1  0.85973820  0.51052519  0.76049298  1  1.471699  4.506882  0.589658  0.816256  4.637726  2.503138  4.431
Mn  Mn2  1  0.00004934  0.99997560  0.49996661  1  1.474591  4.561015  0.57553  0.904962  4.699682  2.322013  4.483
Mn  Mn3  1  0.49996743  0.49993105  0.00002441  1  1.491398  4.53816  0.591519  0.908657  4.67883  2.382615  4.465
H  H4  1  0.15167594  0.26426860  0.22045961  1  0.615313  0.00138  0.313931  0.38811  0.001216  0.902931  0.001
H  H5  1  0.18022209  0.31542658  0.29834762  1  0.643625  0.000374  0.284083  0.365884  0.000768  0.986799  0.0
H  H6  1  0.23872998  0.09248497  0.56000438  1  0.627845  0.001196  0.274934  0.323775  0.001  1.045427  0.002
H  H7  1  0.15484066  0.96316466  0.58203736  1  0.636053  0.00064  0.277083  0.357871  0.001205  0.999404  0.001
H  H8  1  0.52632293  0.28542527  0.97227911  1  0.648846  0.000494  0.278104  0.366618  0.001077  0.989547  0.001
H  H9  1  0.38872523  0.24232124  0.00173259  1  0.595584  0.003635  0.321801  0.395596  0.002235  0.885568  0.002
H  H10  1  0.02678113  0.66035806  0.32873075  1  0.092806  0.00107  0.116815  0.088089  0.000378  1.015854  0.001
H  H11  1  0.62244682  0.60856612  0.87380055  1  0.107745  0.001257  0.123973  0.100357  0.000418  0.989077  0.0
H  H12  1  0.56240651  0.60951417  0.75865779  1  0.10082  0.000746  0.105105  0.121062  0.000106  1.032993  0.0
H  H13  1  0.33131890  0.63725711  0.14966451  1  0.146225  0.00092  0.120192  0.093164  8.2e-05  1.033265  0.0
H  H14  1  0.26008543  0.40974920  0.91095494  1  0.113028  0.001229  0.119463  0.088636  0.000529  1.002209  0.001
H  H15  1  0.18389197  0.39833797  0.79554467  1  0.089752  0.000586  0.099585  0.100411  8.8e-05  1.064161  0.0
H  H16  1  0.55279699  0.76924952  0.15029592  1  0.103945  0.000947  0.108723  0.122856  0.000286  1.024942  0.0
H  H17  1  0.58046560  0.75975649  0.35850922  1  0.10329  0.000882  0.101916  0.109378  0.000492  1.044838  0.0
H  H18  1  0.09412854  0.13571581  0.38174615  1  0.128868  0.001364  0.11891  0.092877  0.000808  1.039298  0.001
H  H19  1  0.95848715  0.84409562  0.32540318  1  0.111631  0.000592  0.111862  0.128169  -7.9e-05  1.008017  0.0
H  H20  1  0.35502808  0.62672983  0.34828451  1  0.095432  0.001173  0.113248  0.083536  0.000321  1.016811  0.001
H  H21  1  0.77008848  0.78456961  0.27843766  1  0.044132  0.000507  0.09562  0.094804  0.000265  1.028303  0.0
H  H22  1  0.74345354  0.92121100  0.30300361  1  0.030449  0.00125  0.096721  0.102936  0.000636  0.997138  0.0
H  H23  1  0.89478690  0.40971725  0.14735993  1  0.115153  0.001354  0.114544  0.074673  0.000917  1.031543  0.0
H  H24  1  0.68002549  0.26119048  0.12733847  1  0.084906  0.000652  0.110105  0.122568  0.00029  0.992059  0.0
H  H25  1  0.74118085  0.13003624  0.30868859  1  0.05022  0.000674  0.106991  0.118477  0.000385  1.017367  0.0
H  H26  1  0.02504652  0.82176031  0.11978651  1  0.100949  0.000739  0.117165  0.131113  0.000402  0.971598  0.0
H  H27  1  0.76342491  0.82515380  0.15948559  1  0.021791  0.000252  0.092601  0.087977  8.2e-05  0.996525  0.0
H  H28  1  0.75262816  0.97045868  0.18798680  1  0.038514  0.000168  0.090405  0.084979  0.000102  1.013094  0.0
H  H29  1  0.20111937  0.86764775  0.45819016  1  0.077787  0.00133  0.11405  0.075017  0.000702  1.028033  0.001
H  H30  1  0.32901500  0.84383810  0.36338278  1  0.079053  0.000691  0.101361  0.10555  0.000292  1.038736  0.0
H  H31  1  0.27684281  0.40520188  0.67509810  1  0.061544  0.000434  0.098604  0.104495  0.00024  0.973337  0.0
H  H32  1  0.23743665  0.53710327  0.69968113  1  0.049903  0.000429  0.098506  0.104405  8.8e-05  0.988327  0.0
H  H33  1  0.45950850  0.66629664  0.67919355  1  0.022177  8.6e-05  0.087291  0.076343  5.9e-05  1.02421  0.0
H  H34  1  0.48903416  0.53142950  0.64805390  1  0.012992  8.1e-05  0.090687  0.08189  4e-06  0.998545  0.0
H  H35  1  0.09591676  0.64238712  0.13294808  1  0.136286  0.000968  0.116754  0.085498  0.000349  1.040036  0.001
H  H36  1  0.22169864  0.12742594  0.28576929  1  0.083794  0.001802  0.104951  0.111637  0.00105  1.023346  0.0
H  H37  1  0.30864716  0.98786783  0.21397809  1  0.038807  0.000275  0.098289  0.102212  0.00015  0.969333  0.0
H  H38  1  0.36983906  0.88371625  0.24761792  1  0.044218  0.000163  0.092663  0.094643  -7e-05  1.0241  0.0
H  H39  1  0.95129195  0.27706521  0.31919448  1  0.132644  0.001005  0.111702  0.078617  0.000562  1.069926  0.0
H  H40  1  0.56728142  0.99727693  0.18613695  1  0.046026  0.000439  0.099523  0.10424  0.000284  0.993232  0.0
H  H41  1  0.50573248  0.11202908  0.16809064  1  0.036602  0.000226  0.098745  0.100458  0.000132  0.969025  0.0
H  H42  1  0.33391290  0.77027020  0.52588276  1  0.093777  0.000108  0.102718  0.115769  4.5e-05  1.027324  0.0
H  H43  1  0.59926538  0.58297812  0.56255209  1  0.075624  9.2e-05  0.106499  0.11579  3.6e-05  1.00703  0.0
H  H44  1  0.88299560  0.34299734  0.56624805  1  0.070883  0.000546  0.10084  0.09922  -4.8e-05  1.040666  0.0
H  H45  1  0.95305596  0.01591295  0.25920160  1  0.039649  0.000276  0.095178  0.098588  7.1e-05  0.993817  0.0
H  H46  1  0.97149551  0.99865470  0.17379638  1  0.046505  0.000284  0.102749  0.112044  0.000145  0.964685  0.0
H  H47  1  0.31817286  0.48867271  0.56031791  1  0.06225  2.9e-05  0.097417  0.101782  1.3e-05  0.991112  0.0
H  H48  1  0.27718360  0.61604927  0.59447423  1  0.050419  2.4e-05  0.097528  0.104678  -9e-06  0.981494  0.0
H  H49  1  0.86383433  0.31344620  0.04044305  1  0.097499  0.000115  0.102881  0.110169  -1.7e-05  1.018655  0.0
H  H50  1  0.54268310  0.05172777  0.30694878  1  0.023855  0.000118  0.09064  0.08366  7.5e-05  0.990943  0.0
H  H51  1  0.47633929  0.16157619  0.28614905  1  0.027677  8.4e-05  0.088111  0.079191  4.6e-05  1.01705  0.0
H  H52  1  0.74994423  0.72503449  0.49927960  1  0.12245  0.000133  0.11704  0.094434  -0.000359  1.017637  0.0
H  H53  1  0.49495506  0.90215092  0.46089555  1  0.058909  9.3e-05  0.107894  0.069906  4.6e-05  1.010654  0.0
H  H54  1  0.84831493  0.73574578  0.77953510  1  0.615599  0.001373  0.313885  0.388012  0.001214  0.903005  0.001
H  H55  1  0.81978474  0.68459051  0.70164260  1  0.643345  0.000377  0.284109  0.366071  0.000766  0.986539  0.0
H  H56  1  0.76127867  0.90751583  0.43999837  1  0.628067  0.001199  0.274896  0.32377  0.001001  1.04539  0.002
H  H57  1  0.84517329  0.03683338  0.41796382  1  0.636056  0.00064  0.277118  0.35797  0.001206  0.999273  0.001
H  H58  1  0.47369203  0.71454894  0.02771574  1  0.648355  0.000492  0.278185  0.366845  0.001073  0.989229  0.001
H  H59  1  0.61127506  0.75763005  0.99825775  1  0.596012  0.003633  0.321749  0.395455  0.002233  0.88599  0.002
H  H60  1  0.97321344  0.33962707  0.67126312  1  0.093052  0.001069  0.116799  0.088065  0.000378  1.015914  0.001
H  H61  1  0.37752969  0.39140991  0.12619834  1  0.107917  0.001261  0.124019  0.100376  0.000423  0.98912  0.001
H  H62  1  0.43758018  0.39047926  0.24134377  1  0.100836  0.000747  0.105127  0.121136  0.000105  1.033029  0.0
H  H63  1  0.66869211  0.36275639  0.85033085  1  0.146298  0.000919  0.120222  0.093126  8.2e-05  1.033401  0.0
H  H64  1  0.73988809  0.59023405  0.08903761  1  0.112471  0.001231  0.119449  0.08863  0.000531  1.002146  0.001
H  H65  1  0.81609282  0.60165260  0.20444653  1  0.089988  0.000588  0.09953  0.100274  8.9e-05  1.064274  0.0
H  H66  1  0.44721872  0.23074851  0.84970335  1  0.104026  0.000946  0.108698  0.122826  0.000285  1.024922  0.0
H  H67  1  0.41952826  0.24025066  0.64149232  1  0.103321  0.000882  0.101879  0.109351  0.000492  1.044838  0.0
H  H68  1  0.90587988  0.86429233  0.61825948  1  0.12866  0.001358  0.118907  0.092919  0.000803  1.039265  0.001
H  H69  1  0.04150661  0.15589232  0.67459714  1  0.112035  0.000593  0.111865  0.128188  -7.8e-05  1.007985  0.0
H  H70  1  0.64496041  0.37327726  0.65171261  1  0.095333  0.001165  0.113246  0.083534  0.000315  1.016856  0.001
H  H71  1  0.22991301  0.21542293  0.72156352  1  0.044319  0.000505  0.095651  0.094901  0.000264  1.028338  0.0
H  H72  1  0.25655124  0.07878341  0.69700062  1  0.030423  0.001248  0.09669  0.102912  0.000636  0.997225  0.0
H  H73  1  0.10521013  0.59027799  0.85263847  1  0.115101  0.001361  0.11459  0.074735  0.000924  1.031524  0.0
H  H74  1  0.31997041  0.73880665  0.87266487  1  0.084848  0.000652  0.110093  0.122609  0.000289  0.99191  0.0
H  H75  1  0.25882605  0.86997003  0.69131449  1  0.050207  0.000676  0.107005  0.118529  0.000385  1.017325  0.0
H  H76  1  0.97494107  0.17824131  0.88021219  1  0.101055  0.000738  0.117194  0.131108  0.000402  0.971633  0.0
H  H77  1  0.23657692  0.17484788  0.84051569  1  0.021977  0.000252  0.0926  0.087969  8.2e-05  0.996529  0.0
H  H78  1  0.24736836  0.02954030  0.81201860  1  0.038225  0.000168  0.090381  0.08498  0.000102  1.013148  0.0
H  H79  1  0.79888643  0.13236045  0.54182076  1  0.077989  0.001325  0.114052  0.075032  0.000697  1.02812  0.001
H  H80  1  0.67098032  0.15615176  0.63662494  1  0.079136  0.00069  0.101308  0.105466  0.000292  1.038795  0.0
H  H81  1  0.72314853  0.59479510  0.32489358  1  0.061666  0.000437  0.098574  0.104483  0.000241  0.973381  0.0
H  H82  1  0.76255768  0.46289464  0.30031209  1  0.049986  0.000431  0.098555  0.10448  8.9e-05  0.988262  0.0
H  H83  1  0.54048880  0.33369947  0.32080104  1  0.02199  8.5e-05  0.08729  0.076349  5.9e-05  1.024213  0.0
H  H84  1  0.51096076  0.46856478  0.35194055  1  0.012974  8.1e-05  0.090741  0.081937  4e-06  0.998592  0.0
H  H85  1  0.90407047  0.35761353  0.86704475  1  0.136318  0.000971  0.116766  0.08547  0.000351  1.039995  0.001
H  H86  1  0.77830468  0.87257212  0.71423517  1  0.083883  0.001801  0.104908  0.111619  0.001049  1.023475  0.0
H  H87  1  0.69135534  0.01213575  0.78602961  1  0.038485  0.000273  0.098229  0.102116  0.000149  0.969371  0.0
H  H88  1  0.63016072  0.11628182  0.75238746  1  0.044267  0.000162  0.092666  0.094664  -7e-05  1.024083  0.0
H  H89  1  0.04871489  0.72293827  0.68080406  1  0.132897  0.001006  0.111731  0.078641  0.000562  1.069865  0.0
H  H90  1  0.43271895  0.00272023  0.81386886  1  0.046646  0.000443  0.099527  0.104233  0.000287  0.993182  0.0
H  H91  1  0.49426343  0.88796261  0.83191623  1  0.036523  0.000227  0.098753  0.100459  0.000133  0.96886  0.0
H  H92  1  0.66608297  0.22972961  0.47411592  1  0.093892  0.000107  0.102745  0.115794  4.5e-05  1.027256  0.0
H  H93  1  0.40073043  0.41701890  0.43744254  1  0.07551  9.2e-05  0.106468  0.115776  3.6e-05  1.007006  0.0
H  H94  1  0.11700831  0.65701072  0.43375124  1  0.070899  0.000549  0.100755  0.099066  -4.7e-05  1.040827  0.0
H  H95  1  0.04694292  0.98408509  0.74080232  1  0.039463  0.000276  0.095199  0.098611  7.1e-05  0.993799  0.0
H  H96  1  0.02850368  0.00134701  0.82620778  1  0.046383  0.000284  0.102786  0.112056  0.000145  0.964791  0.0
H  H97  1  0.68181824  0.51132614  0.43967775  1  0.061824  2.9e-05  0.0974  0.101765  1.3e-05  0.991104  0.0
H  H98  1  0.72281492  0.38395326  0.40552223  1  0.050292  2.4e-05  0.097508  0.104591  -9e-06  0.981456  0.0
H  H99  1  0.13615478  0.68657092  0.95955229  1  0.097677  0.000115  0.102892  0.110321  -1.7e-05  1.018461  0.0
H  H100  1  0.45732260  0.94826940  0.69305757  1  0.023689  0.000118  0.090682  0.083644  7.5e-05  0.991016  0.0
H  H101  1  0.52366642  0.83842100  0.71385827  1  0.027512  8.4e-05  0.088073  0.079138  4.6e-05  1.017028  0.0
H  H102  1  0.25005376  0.27497173  0.50072047  1  0.122878  0.000133  0.117034  0.094415  -0.000358  1.017629  0.0
H  H103  1  0.50504175  0.09785441  0.53910542  1  0.058988  9.3e-05  0.107909  0.0699  4.6e-05  1.010761  0.0
C  C104  1  0.96458289  0.24091239  0.46292360  1  1.609291  0.007842  0.213209  0.582166  0.007831  4.24002  0.007
C  C105  1  0.11788235  0.43760804  0.38325168  1  1.550095  0.016508  0.209908  0.564981  0.015484  4.210005  0.013
C  C106  1  0.98943731  0.37625351  0.48101075  1  -0.021576  0.00379  -0.008372  -0.032068  0.002637  3.951048  0.002
C  C107  1  0.02491335  0.69976958  0.28352031  1  0.461431  0.007974  0.045429  0.088702  0.006467  3.961736  0.005
C  C108  1  0.52483654  0.56572263  0.85506761  1  0.52884  0.008372  0.053393  0.096569  0.006506  3.951645  0.006
C  C109  1  0.48988478  0.56474836  0.78981847  1  -0.040824  -0.000172  -0.088851  -0.190887  -0.000873  3.936605  0.0
C  C110  1  0.05614580  0.46661096  0.44373322  1  -0.071125  0.003911  -0.015306  -0.054335  0.002759  3.962025  0.002
C  C111  1  0.38953610  0.66805510  0.19511263  1  0.438832  0.007796  0.054386  0.104272  0.006074  3.931357  0.005
C  C112  1  0.32341553  0.45285015  0.87520219  1  0.401117  0.007583  0.046128  0.093088  0.005898  3.963586  0.005
C  C113  1  0.28193023  0.44677097  0.81092777  1  -0.005453  -0.000458  -0.092237  -0.195378  -0.001028  3.978643  0.0
C  C114  1  0.51404468  0.74272176  0.19617189  1  0.0018  -0.000116  -0.086626  -0.19122  -0.000693  3.932306  0.0
C  C115  1  0.58676761  0.77681799  0.25519606  1  -0.040214  0.00673  0.011305  0.166868  0.005151  3.948439  0.004
C  C116  1  0.52793891  0.73551805  0.31118237  1  -0.128796  -0.000193  -0.094997  -0.202272  -0.000688  3.966925  0.0
C  C117  1  0.14647565  0.07130885  0.37577925  1  0.476892  0.007289  0.051157  0.098419  0.005896  3.945144  0.005
C  C118  1  0.10040631  0.37860625  0.09333438  1  1.608769  0.015317  0.19844  0.582619  0.015002  4.245832  0.013
C  C119  1  0.98623979  0.80152833  0.28100738  1  -0.049968  -0.000234  -0.087974  -0.198902  -0.000824  3.959915  0.0
C  C120  1  0.98380411  0.84823526  0.22154791  1  -0.007108  0.006749  0.012829  0.16392  0.005168  3.949266  0.004
C  C121  1  0.36533088  0.50465013  0.76643248  1  -0.031923  0.006805  0.009987  0.159214  0.005198  3.947661  0.004
C  C122  1  0.40354118  0.66158509  0.30598518  1  0.508419  0.007159  0.039317  0.078336  0.005818  3.996083  0.005
C  C123  1  0.72416992  0.84749192  0.26163585  1  0.008476  0.000585  -0.162508  -0.208514  0.000513  3.957719  0.0
C  C124  1  0.85788457  0.34447045  0.18153679  1  0.483271  0.005689  0.050327  0.107416  0.004533  3.966199  0.004
C  C125  1  0.73710916  0.26106737  0.17069160  1  -0.064408  -0.000126  -0.083649  -0.186877  -0.000678  3.931172  0.0
C  C126  1  0.68975706  0.17957055  0.21577762  1  -0.001657  0.00466  0.012243  0.162496  0.003524  3.944817  0.003
C  C127  1  0.76975985  0.18787438  0.27030531  1  -0.015438  0.000239  -0.088069  -0.184254  -0.000222  3.93664  0.0
C  C128  1  0.02446755  0.78995710  0.16742245  1  -0.070156  -0.000371  -0.082405  -0.187848  -0.000919  3.929724  0.0
C  C129  1  0.78651018  0.89730095  0.20170182  1  -0.028587  0.000762  -0.159524  -0.131916  0.000643  3.919068  0.001
C  C130  1  0.20658488  0.92210391  0.41818534  1  0.480163  0.007564  0.047064  0.093353  0.005755  3.976876  0.005
C  C131  1  0.27904006  0.91047457  0.36581360  1  -0.080044  -0.000121  -0.091538  -0.197312  -0.000737  3.956047  0.0
C  C132  1  0.28401122  0.98241609  0.31557642  1  -0.005208  0.006165  0.013214  0.172097  0.004661  3.953543  0.004
C  C133  1  0.31736687  0.50151201  0.69743784  1  -0.048936  7.1e-05  -0.155294  -0.199709  3.3e-05  3.951455  0.0
C  C134  1  0.41404690  0.57285131  0.65436549  1  -0.001104  0.00013  -0.162933  -0.131215  0.000113  3.956085  0.0
C  C135  1  0.06351789  0.68957808  0.17409437  1  0.433336  0.007339  0.048466  0.095582  0.005666  3.941498  0.005
C  C136  1  0.21817953  0.06637331  0.32243096  1  -0.047472  0.000468  -0.087261  -0.187865  -0.000135  3.940145  0.0
C  C137  1  0.35914444  0.97469482  0.25728599  1  -0.002888  0.000175  -0.15773  -0.202712  0.000137  3.942281  0.0
C  C138  1  0.88974558  0.27262369  0.27700722  1  0.449273  0.005401  0.040556  0.087003  0.003805  3.969083  0.003
C  C139  1  0.56007855  0.08708625  0.20583034  1  -0.010865  0.00013  -0.153726  -0.19965  0.000172  3.944823  0.0
C  C140  1  0.27042151  0.58230873  0.02551181  1  1.57577  0.012268  0.210562  0.574606  0.011963  4.205323  0.01
C  C141  1  0.42414694  0.75533334  0.51956010  1  -0.068412  8.2e-05  -0.092847  -0.19881  4.3e-05  3.947835  0.0
C  C142  1  0.57019364  0.65096957  0.54028205  1  -0.045518  0.000135  -0.086224  -0.185477  0.000115  3.942904  0.0
C  C143  1  0.93511751  0.41146296  0.53662795  1  0.017457  0.003946  -0.08792  -0.132434  0.002826  3.974369  0.002
C  C144  1  0.93049862  0.94959912  0.21445743  1  0.002484  0.000167  -0.156312  -0.207691  0.000164  3.935486  0.0
C  C145  1  0.35682396  0.58116271  0.58785955  1  -0.032323  3.7e-05  -0.156968  -0.202161  1.6e-05  3.93362  0.0
C  C146  1  0.92456643  0.39537637  0.02274884  1  0.017939  0.004323  -0.088583  -0.137414  0.003374  3.972278  0.003
C  C147  1  0.48850342  0.07347562  0.26792210  1  -0.017671  0.000727  -0.159101  -0.126161  0.000631  3.932138  0.001
C  C148  1  0.65512972  0.72978259  0.50449452  1  0.457671  0.000165  0.044776  0.09034  3.5e-05  3.95758  0.0
C  C149  1  0.51419390  0.82943832  0.48398125  1  0.491816  0.000158  0.035965  0.07867  0.000137  4.020166  0.0
C  C150  1  0.45096992  0.66228356  0.54840344  1  0.019847  9.7e-05  0.012681  0.167936  6e-05  3.940218  0.0
C  C151  1  0.12980850  0.54112439  0.01584215  1  -0.073128  0.004396  -0.015687  -0.054938  0.003006  3.963732  0.002
C  C152  1  0.05324644  0.43578785  0.04014250  1  -0.057118  0.004953  -0.0124  -0.041607  0.003302  3.932864  0.002
C  C153  1  0.03542813  0.75909023  0.53707880  1  1.608675  0.007868  0.213349  0.582363  0.007858  4.239658  0.007
C  C154  1  0.88211089  0.56239180  0.61674988  1  1.549575  0.01643  0.210088  0.565138  0.015402  4.209818  0.013
C  C155  1  0.01056536  0.62375083  0.51898394  1  -0.021613  0.003771  -0.008412  -0.032164  0.002622  3.951316  0.002
C  C156  1  0.97508129  0.30022381  0.71647699  1  0.460842  0.007972  0.045486  0.08883  0.006463  3.961533  0.005
C  C157  1  0.47514028  0.43425432  0.14493280  1  0.527817  0.00842  0.053497  0.096577  0.006548  3.951254  0.006
C  C158  1  0.51009859  0.43524046  0.21017986  1  -0.038037  -0.000184  -0.088918  -0.191073  -0.000886  3.936705  0.0
C  C159  1  0.94385269  0.53339424  0.55625761  1  -0.071096  0.00392  -0.015328  -0.054398  0.002766  3.961762  0.002
C  C160  1  0.61047192  0.33195201  0.80488326  1  0.438562  0.007752  0.054413  0.10426  0.006038  3.931185  0.005
C  C161  1  0.67656600  0.54713042  0.12479366  1  0.401216  0.007627  0.046101  0.093178  0.005933  3.963594  0.005
C  C162  1  0.71805248  0.55321322  0.18906494  1  -0.012992  -0.000465  -0.092101  -0.195335  -0.00104  3.979071  0.0
C  C163  1  0.48596542  0.25727809  0.80382792  1  0.001582  -0.000113  -0.086681  -0.191256  -0.000689  3.932316  0.0
C  C164  1  0.41323656  0.22318003  0.74480404  1  -0.03994  0.006695  0.011247  0.166778  0.005123  3.948588  0.004
C  C165  1  0.47205700  0.26448454  0.68881938  1  -0.128266  -0.000182  -0.094969  -0.202233  -0.000674  3.966822  0.0
C  C166  1  0.85353304  0.92869746  0.62422579  1  0.476982  0.007219  0.051054  0.098278  0.005836  3.944858  0.005
C  C167  1  0.89960342  0.62143838  0.90666583  1  1.609496  0.015414  0.198704  0.582993  0.015107  4.245803  0.013
C  C168  1  0.01375605  0.19846327  0.71899223  1  -0.049999  -0.000229  -0.08793  -0.198886  -0.000818  3.959689  0.0
C  C169  1  0.01619415  0.15176366  0.77845316  1  -0.006894  0.006739  0.01277  0.16383  0.005161  3.949242  0.004
C  C170  1  0.63465574  0.49534048  0.23356262  1  -0.026312  0.006845  0.01007  0.159418  0.005231  3.947698  0.004
C  C171  1  0.59645918  0.33842296  0.69401407  1  0.507891  0.007132  0.039366  0.078472  0.00579  3.995791  0.005
C  C172  1  0.27583187  0.15250153  0.73836539  1  0.007859  0.000585  -0.162513  -0.208573  0.000513  3.957722  0.0
C  C173  1  0.14211840  0.65552664  0.81846227  1  0.483225  0.005738  0.050288  0.107258  0.004576  3.966258  0.004
C  C174  1  0.26289149  0.73893340  0.82931057  1  -0.064278  -0.000139  -0.083516  -0.186765  -0.000694  3.931003  0.0
C  C175  1  0.31024421  0.82042934  0.78422741  1  -0.001789  0.004709  0.012234  0.162481  0.003562  3.944559  0.003
C  C176  1  0.23024466  0.81213005  0.72969665  1  -0.015589  0.00023  -0.088152  -0.184454  -0.000233  3.936489  0.0
C  C177  1  0.97552181  0.21004452  0.83257579  1  -0.070569  -0.000374  -0.082366  -0.18775  -0.000922  3.929849  0.0
C  C178  1  0.21348929  0.10269619  0.79830253  1  -0.028295  0.00076  -0.159494  -0.131926  0.000642  3.918994  0.001
C  C179  1  0.79342680  0.07790333  0.58182172  1  0.480338  0.007493  0.046967  0.093055  0.005697  3.977125  0.005
C  C180  1  0.72096092  0.08952171  0.63419506  1  -0.080126  -0.000105  -0.091555  -0.197049  -0.000718  3.955733  0.0
C  C181  1  0.71599036  0.01758201  0.68443140  1  -0.005277  0.006097  0.013248  0.171863  0.004608  3.953504  0.004
C  C182  1  0.68262510  0.49848409  0.30255717  1  -0.048791  7.1e-05  -0.155305  -0.199769  3.3e-05  3.951599  0.0
C  C183  1  0.58594835  0.42714664  0.34563064  1  -0.001217  0.00013  -0.163035  -0.131405  0.000113  3.956385  0.0
C  C184  1  0.93647467  0.31041712  0.82590108  1  0.433356  0.007328  0.048452  0.095546  0.005659  3.941798  0.005
C  C185  1  0.78182738  0.93362753  0.67757613  1  -0.047745  0.000483  -0.087293  -0.187824  -0.000117  3.939864  0.0
C  C186  1  0.64085951  0.02530511  0.74272149  1  -0.002814  0.000175  -0.157674  -0.202559  0.000136  3.942207  0.0
C  C187  1  0.11026127  0.72737980  0.72299181  1  0.449075  0.005449  0.040731  0.087262  0.003841  3.968874  0.003
C  C188  1  0.43992329  0.91291000  0.79417543  1  -0.011539  0.00013  -0.153757  -0.199628  0.000171  3.944423  0.0
C  C189  1  0.72957428  0.41769098  0.97447864  1  1.576103  0.012272  0.210433  0.57465  0.011967  4.205585  0.01
C  C190  1  0.57585159  0.24466918  0.48043587  1  -0.069056  8.2e-05  -0.092869  -0.198771  4.3e-05  3.947758  0.0
C  C191  1  0.42979688  0.34902748  0.45971591  1  -0.045436  0.000136  -0.086234  -0.185418  0.000116  3.943059  0.0
C  C192  1  0.06488131  0.58854321  0.46336681  1  0.017112  0.003983  -0.087822  -0.132218  0.002855  3.974527  0.002
C  C193  1  0.06950207  0.05040444  0.78554783  1  0.002832  0.000166  -0.156379  -0.207719  0.000163  3.9356  0.0
C  C194  1  0.64317129  0.41883798  0.41213628  1  -0.031609  3.7e-05  -0.156866  -0.201863  1.6e-05  3.933412  0.0
C  C195  1  0.07543330  0.60463799  0.97724307  1  0.017098  0.004342  -0.088657  -0.137987  0.003388  3.972804  0.003
C  C196  1  0.51150021  0.92652064  0.73208417  1  -0.017212  0.000724  -0.15909  -0.126089  0.000628  3.931995  0.001
C  C197  1  0.34487121  0.27022726  0.49550243  1  0.456782  0.000166  0.044821  0.090318  3.6e-05  3.957807  0.0
C  C198  1  0.48580262  0.17056609  0.51602014  1  0.491972  0.000158  0.035972  0.07871  0.000137  4.020171  0.0
C  C199  1  0.54902885  0.33770891  0.45159238  1  0.020369  9.7e-05  0.012686  0.167767  6e-05  3.940145  0.0
C  C200  1  0.87018499  0.45890084  0.98414264  1  -0.073338  0.004416  -0.015792  -0.055582  0.003021  3.964111  0.002
C  C201  1  0.94672868  0.56422462  0.95984757  1  -0.058038  0.004941  -0.012397  -0.041356  0.003288  3.933161  0.002
N  N202  1  0.44325124  0.51232598  0.89761646  1  -1.284464  0.049601  -0.326084  -0.264774  0.033467  3.530097  0.016
N  N203  1  0.13898635  0.99918058  0.42292729  1  -1.237747  0.049083  -0.323025  -0.259705  0.033803  3.514871  0.016
N  N204  1  0.06274893  0.64367992  0.23106058  1  -1.25503  0.052146  -0.323275  -0.254754  0.035961  3.517822  0.018
N  N205  1  0.93484149  0.35117350  0.23356549  1  -1.271188  0.045776  -0.317371  -0.269398  0.032668  3.490937  0.017
N  N206  1  0.62800858  0.81748992  0.47598380  1  -1.251131  0.001078  -0.314468  -0.257729  0.000273  3.420993  0.001
N  N207  1  0.33449539  0.62705320  0.24871273  1  -1.274711  0.053238  -0.32447  -0.246749  0.036294  3.507403  0.02
N  N208  1  0.55672825  0.48764826  0.10238574  1  -1.284303  0.049624  -0.326296  -0.264743  0.033486  3.529957  0.016
N  N209  1  0.86102916  0.00083028  0.57707617  1  -1.237703  0.049009  -0.322796  -0.259594  0.033764  3.514172  0.016
N  N210  1  0.93724718  0.35631527  0.76893394  1  -1.25494  0.052134  -0.323311  -0.254785  0.035963  3.517947  0.018
N  N211  1  0.06516623  0.64882724  0.76643289  1  -1.270874  0.045829  -0.317537  -0.269421  0.03269  3.491434  0.017
N  N212  1  0.37199385  0.18251359  0.52401808  1  -1.25078  0.001076  -0.314516  -0.257756  0.000271  3.420942  0.001
N  N213  1  0.66551564  0.37296033  0.75128553  1  -1.274122  0.053105  -0.324462  -0.246915  0.036269  3.506344  0.02
O  O214  1  0.14116411  0.51738252  0.34336539  1  -1.186893  0.055904  -0.321083  -0.561587  0.039362  2.354296  0.021
O  O215  1  0.02948512  0.19208153  0.49504600  1  -1.203769  0.058834  -0.314427  -0.560278  0.04154  2.298555  0.026
O  O216  1  0.14231094  0.33771673  0.37449944  1  -1.182082  0.0132  -0.308884  -0.54526  0.008993  2.20042  0.01
O  O217  1  0.87396971  0.18482485  0.42131426  1  -1.183327  0.005366  -0.321112  -0.566187  0.003219  2.16408  0.004
O  O218  1  0.20917439  0.32612165  0.25270902  1  -1.270918  0.054979  -0.560472  -0.73394  0.040024  2.090783  0.027
O  O219  1  0.15835740  0.46063924  0.14197269  1  -1.211558  0.078341  -0.341709  -0.591634  0.054544  2.393956  0.037
O  O220  1  0.15593730  0.04903603  0.57740496  1  -1.305731  0.061623  -0.583575  -0.751172  0.045051  2.143028  0.03
O  O221  1  0.07545113  0.26604673  0.09140507  1  -1.180678  0.016763  -0.359614  -0.571439  0.011904  2.022181  0.013
O  O222  1  0.43736663  0.29309575  0.97123223  1  -1.26408  0.057473  -0.564502  -0.7586  0.042243  2.070771  0.027
O  O223  1  0.31996829  0.49756364  0.02777317  1  -1.202694  0.063976  -0.319483  -0.564622  0.044271  2.323939  0.028
O  O224  1  0.33080687  0.69564449  0.02783293  1  -1.181381  0.009313  -0.332392  -0.558226  0.006076  2.123574  0.007
O  O225  1  0.85883746  0.48263192  0.65663331  1  -1.186626  0.055653  -0.320901  -0.561496  0.039199  2.353424  0.021
O  O226  1  0.97052122  0.80792569  0.50495955  1  -1.203931  0.058921  -0.31442  -0.560253  0.041567  2.298755  0.026
O  O227  1  0.85769472  0.66229946  0.62549216  1  -1.181513  0.013132  -0.30919  -0.545564  0.008944  2.200191  0.01
O  O228  1  0.12604892  0.81517132  0.57868250  1  -1.182672  0.005383  -0.321205  -0.566287  0.003231  2.164011  0.004
O  O229  1  0.79082708  0.67388722  0.74728207  1  -1.27101  0.054981  -0.560441  -0.733996  0.040024  2.09057  0.027
O  O230  1  0.84166652  0.53941629  0.85802014  1  -1.211394  0.078708  -0.341998  -0.591408  0.054768  2.395372  0.037
O  O231  1  0.84407576  0.95096473  0.42259396  1  -1.305913  0.061615  -0.583585  -0.751289  0.045054  2.143007  0.03
O  O232  1  0.92453361  0.73397320  0.90859621  1  -1.181383  0.01688  -0.359497  -0.57149  0.01199  2.022816  0.013
O  O233  1  0.56263884  0.70686843  0.02876623  1  -1.264058  0.057373  -0.564681  -0.758865  0.042198  2.07077  0.027
O  O234  1  0.68001158  0.50241489  0.97220512  1  -1.203051  0.063907  -0.319477  -0.564774  0.044233  2.323784  0.028
O  O235  1  0.66919669  0.30434624  0.97216961  1  -1.18151  0.009305  -0.332326  -0.558167  0.006068  2.123398  0.007
