# generated using pymatgen
data_Zr3H32(C21O8)2
_symmetry_space_group_name_H-M   'P 1'
_cell_length_a   18.16725994
_cell_length_b   20.44980649
_cell_length_c   20.44344418
_cell_angle_alpha   67.08723265
_cell_angle_beta   87.42278818
_cell_angle_gamma   87.42317474
_symmetry_Int_Tables_number   1
_chemical_formula_structural   Zr3H32(C21O8)2
_chemical_formula_sum   'Zr6 H64 C84 O32'
_cell_volume   6985.63665238
_cell_formula_units_Z   2
loop_
 _symmetry_equiv_pos_site_id
 _symmetry_equiv_pos_as_xyz
  1  'x, y, z'
loop_
 _atom_site_type_symbol
 _atom_site_label
 _atom_site_symmetry_multiplicity
 _atom_site_fract_x
 _atom_site_fract_y
 _atom_site_fract_z
 _atom_site_occupancy
 _atom_site_pbe_bader_charge
 _atom_site_pbe_bader_spin_density
 _atom_site_pbe_cm5_charge
 _atom_site_pbe_ddec_charge
 _atom_site_pbe_ddec_spin_density
 _atom_site_pbe_ddec_sum_bond_order
 _atom_site_pbe_magmom
Zr  Zr0  1  0.90748187  0.90293524  0.09348369  1  2.602361  0  1.545915  2.352012  0  2.855363  0
Zr  Zr1  1  0.10315743  0.90402055  0.08054778  1  2.600006  0  1.547045  2.353301  0  2.851225  0
Zr  Zr2  1  0.89844560  0.05808579  0.93553053  1  2.603934  0  1.547982  2.354341  0  2.848711  0
Zr  Zr3  1  0.09414001  0.06234361  0.92582351  1  2.59175  0  1.545438  2.35235  0  2.853459  0
Zr  Zr4  1  0.99904102  0.05555820  0.08253925  1  2.631983  0  1.606028  2.359969  0  2.781355  0
Zr  Zr5  1  0.00250975  0.90817169  0.93514011  1  2.633348  0  1.607161  2.359571  0  2.787721  0
H  H6  1  0.00114955  0.79795234  0.08542485  1  0.619061  0  0.329528  0.435831  0  0.845075  0
H  H7  1  0.16218220  0.03127331  0.05892086  1  0.615492  0  0.329587  0.436233  0  0.844162  0
H  H8  1  0.00227997  0.05825402  0.82487314  1  0.652672  0  0.329772  0.436237  0  0.844566  0
H  H9  1  0.83720944  0.03917942  0.06583231  1  0.61866  0  0.33  0.436547  0  0.844124  0
H  H10  1  0.24414556  0.88306296  0.06063259  1  0.575662  0  0.284568  0.389147  0  0.915464  0
H  H11  1  0.22964874  0.04563440  0.88095487  1  0.640314  0  0.318968  0.407579  0  0.90375  0
H  H12  1  0.09759411  0.19227792  0.83029917  1  0.593934  0  0.286508  0.391914  0  0.911046  0
H  H13  1  0.85809141  0.15554596  0.80272945  1  0.634098  0  0.335935  0.41744  0  0.866375  0
H  H14  1  0.75810603  0.04375027  0.92182984  1  0.597222  0  0.283765  0.388242  0  0.916556  0
H  H15  1  0.76099556  0.89044780  0.14445686  1  0.647023  0  0.333921  0.413966  0  0.870114  0
H  H16  1  0.90265812  0.80680308  0.22313935  1  0.595121  0  0.286162  0.391244  0  0.911938  0
H  H17  1  0.14218171  0.76904211  0.17992849  1  0.618741  0  0.337301  0.4185  0  0.86247  0
H  H18  1  0.87807997  0.19404564  0.85328728  1  0.63476  0  0.323061  0.412714  0  0.892777  0
H  H19  1  0.77375629  0.86540897  0.08048122  1  0.642385  0  0.317735  0.406531  0  0.906627  0
H  H20  1  0.12090649  0.82360249  0.21603512  1  0.652382  0  0.321785  0.411866  0  0.895687  0
H  H21  1  0.23913566  0.10760657  0.90796131  1  0.632233  0  0.333406  0.413668  0  0.871945  0
H  H22  1  0.82102269  0.48865439  0.00731002  1  0.020025  0  0.101087  0.101978  0  1.017251  0
H  H23  1  0.61586369  0.39110923  0.00839880  1  0.058689  0  0.100461  0.101215  0  1.018638  0
H  H24  1  0.61596674  0.60285898  0.00581892  1  0.056001  0  0.099583  0.098578  0  1.014056  0
H  H25  1  0.18178214  0.47953436  0.00462492  1  0.074366  0  0.101192  0.101868  0  1.01782  0
H  H26  1  0.38392600  0.36098670  0.00620813  1  0.045589  0  0.099798  0.10034  0  1.011805  0
H  H27  1  0.38954779  0.57119688  0.00689727  1  0.085467  0  0.100086  0.100264  0  1.02268  0
H  H28  1  0.81974014  0.98288627  0.51486290  1  0.041793  0  0.101332  0.102166  0  1.017128  0
H  H29  1  0.61468417  0.97837775  0.41984867  1  0.057944  0  0.100733  0.101221  0  1.02006  0
H  H30  1  0.61491484  0.97936032  0.63028988  1  0.04292  0  0.099946  0.099744  0  1.012684  0
H  H31  1  0.18118150  0.97524529  0.50737763  1  0.060304  0  0.100987  0.101561  0  1.017209  0
H  H32  1  0.38297954  0.98047121  0.38699679  1  0.056929  0  0.100291  0.100762  0  1.011324  0
H  H33  1  0.38910758  0.97663920  0.59898354  1  0.051667  0  0.099988  0.100185  0  1.023806  0
H  H34  1  0.49775117  0.98286504  0.43170685  1  0.069932  0  0.098873  0.097289  0  1.005512  0
H  H35  1  0.50281081  0.97493633  0.58495635  1  0.049633  0  0.098678  0.096573  0  1.008836  0
H  H36  1  0.50423986  0.55695199  0.00415205  1  0.03348  0  0.098263  0.095601  0  1.008774  0
H  H37  1  0.49810812  0.40461326  0.00996287  1  0.042874  0  0.099066  0.097323  0  1.005661  0
H  H38  1  0.23841947  0.23640589  0.92167107  1  0.072794  0  0.100473  0.099105  0  1.010066  0
H  H39  1  0.08666102  0.25329918  0.08168358  1  0.106829  0  0.10882  0.113473  0  0.992972  0
H  H40  1  0.15436821  0.35658609  0.08250302  1  0.060475  0  0.102536  0.103494  0  0.999147  0
H  H41  1  0.30828073  0.33745851  0.92386900  1  0.057089  0  0.100938  0.10093  0  1.002218  0
H  H42  1  0.24989981  0.72195552  0.07874266  1  0.072195  0  0.101727  0.101964  0  1.005332  0
H  H43  1  0.09724167  0.70978972  0.92999545  1  0.091917  0  0.109167  0.114555  0  0.992378  0
H  H44  1  0.16183149  0.59922702  0.93094155  1  0.064565  0  0.101986  0.102115  0  1.000027  0
H  H45  1  0.31527400  0.61183270  0.08010034  1  0.060698  0  0.100766  0.100509  0  1.003788  0
H  H46  1  0.91238326  0.26096260  0.08221937  1  0.086327  0  0.108155  0.111741  0  0.993563  0
H  H47  1  0.76291317  0.24547490  0.93257431  1  0.097995  0  0.105243  0.108802  0  1.000217  0
H  H48  1  0.69238239  0.35267660  0.93337440  1  0.05465  0  0.100697  0.100604  0  1.00334  0
H  H49  1  0.84331241  0.36898776  0.08272945  1  0.066679  0  0.101682  0.102773  0  1.000606  0
H  H50  1  0.90963329  0.71812931  0.92710856  1  0.099268  0  0.10825  0.112996  0  0.99459  0
H  H51  1  0.75531204  0.73480964  0.08539034  1  0.07776  0  0.102908  0.101454  0  1.006961  0
H  H52  1  0.68971780  0.63015008  0.08626735  1  0.066328  0  0.100469  0.100653  0  1.002231  0
H  H53  1  0.84549512  0.61211679  0.92848145  1  0.03379  0  0.101508  0.102481  0  0.999708  0
H  H54  1  0.24925925  0.04936061  0.74930873  1  0.053161  0  0.102982  0.102014  0  1.006186  0
H  H55  1  0.09855187  0.89808390  0.73937579  1  0.082274  0  0.108168  0.113127  0  0.994651  0
H  H56  1  0.16264063  0.89937572  0.62840825  1  0.06067  0  0.101365  0.101669  0  1.000444  0
H  H57  1  0.31448268  0.05053509  0.63929789  1  0.061014  0  0.100577  0.100552  0  1.002908  0
H  H58  1  0.08211223  0.05298889  0.28424675  1  0.103086  0  0.107861  0.113396  0  0.991369  0
H  H59  1  0.23728644  0.89929888  0.25917124  1  0.096474  0  0.105988  0.110244  0  0.99863  0
H  H60  1  0.30860302  0.90048825  0.36021582  1  0.079587  0  0.100565  0.100248  0  1.003201  0
H  H61  1  0.15159505  0.05326016  0.38672771  1  0.046074  0  0.101446  0.101792  0  1.000314  0
H  H62  1  0.91201331  0.90669153  0.74116423  1  0.123443  0  0.109268  0.113995  0  0.992848  0
H  H63  1  0.75283378  0.05900158  0.76278821  1  0.093001  0  0.101802  0.102579  0  1.005708  0
H  H64  1  0.68661195  0.05910004  0.65863571  1  0.082649  0  0.100622  0.100392  0  1.002915  0
H  H65  1  0.84702407  0.90699233  0.63599359  1  0.070632  0  0.102185  0.103249  0  0.999373  0
H  H66  1  0.90617812  0.05882302  0.28374760  1  0.081122  0  0.109458  0.114336  0  0.992599  0
H  H67  1  0.76377814  0.89961438  0.27772594  1  0.077977  0  0.100633  0.099303  0  1.009419  0
H  H68  1  0.69419871  0.90103631  0.38488575  1  0.050335  0  0.100924  0.100913  0  1.002631  0
H  H69  1  0.83847111  0.05933221  0.39255569  1  0.040564  0  0.102575  0.103246  0  0.999243  0
C  C70  1  0.87987954  0.97840989  0.20941420  1  1.554174  0  0.230478  0.635418  0  4.129484  0
C  C71  1  0.12985009  0.78781106  0.00489883  1  1.541586  0  0.229741  0.635568  0  4.127872  0
C  C72  1  0.11418646  0.97480914  0.20486393  1  1.568493  0  0.233408  0.635738  0  4.121629  0
C  C73  1  0.87485839  0.79606864  0.00572527  1  1.562449  0  0.232983  0.634721  0  4.121925  0
C  C74  1  0.87558059  0.98280156  0.82087269  1  1.565787  0  0.229575  0.633262  0  4.130141  0
C  C75  1  0.11811388  0.17666942  0.00113765  1  1.569155  0  0.22929  0.633609  0  4.127461  0
C  C76  1  0.13071693  0.97397847  0.81678998  1  1.563859  0  0.232229  0.634229  0  4.120344  0
C  C77  1  0.88360746  0.18322470  0.00544804  1  1.560503  0  0.23334  0.637359  0  4.119545  0
C  C78  1  0.72305366  0.55244612  0.00748648  1  -0.009378  0  -0.009303  0.075255  0  4.042864  0
C  C79  1  0.76088716  0.49125480  0.00743516  1  -0.055415  0  -0.088674  -0.181699  0  3.931195  0
C  C80  1  0.72241544  0.43306968  0.00746008  1  0.025005  0  -0.007495  0.075787  0  4.03326  0
C  C81  1  0.64529147  0.43687894  0.00724937  1  -0.038284  0  -0.087827  -0.176526  0  3.905242  0
C  C82  1  0.60576447  0.49772944  0.00708484  1  -0.025892  0  -0.014667  0.118645  0  4.077427  0
C  C83  1  0.64586712  0.55479279  0.00735096  1  -0.024052  0  -0.088484  -0.181357  0  3.926666  0
C  C84  1  0.28191675  0.53231407  0.00615881  1  0.036818  0  -0.008721  0.074073  0  4.040093  0
C  C85  1  0.24186385  0.47550861  0.00510307  1  -0.064769  0  -0.089161  -0.182055  0  3.935066  0
C  C86  1  0.27811865  0.41382427  0.00453910  1  0.037057  0  -0.008843  0.076931  0  4.041075  0
C  C87  1  0.35532948  0.40944238  0.00528898  1  -0.09687  0  -0.088502  -0.183774  0  3.924118  0
C  C88  1  0.39695931  0.46507627  0.00681424  1  -0.008761  0  -0.013653  0.121078  0  4.07398  0
C  C89  1  0.35892850  0.52643270  0.00717369  1  -0.080387  0  -0.087769  -0.176564  0  3.908109  0
C  C90  1  0.72190200  0.98207436  0.57925615  1  0.046123  0  -0.009292  0.075457  0  4.041846  0
C  C91  1  0.75965901  0.98192006  0.51803802  1  -0.025213  0  -0.089028  -0.182455  0  3.93383  0
C  C92  1  0.72112976  0.98024843  0.46065042  1  -0.074974  0  -0.007773  0.074699  0  4.04008  0
C  C93  1  0.64411181  0.97867001  0.46506588  1  -0.005355  0  -0.087977  -0.176251  0  3.909336  0
C  C94  1  0.60462701  0.97903375  0.52572352  1  -0.046276  0  -0.0144  0.119191  0  4.078875  0
C  C95  1  0.64473651  0.98069302  0.58222595  1  -0.040848  0  -0.088961  -0.182342  0  3.923687  0
C  C96  1  0.28143331  0.97638867  0.56014268  1  0.024423  0  -0.008368  0.075004  0  4.038354  0
C  C97  1  0.24124661  0.97618794  0.50304468  1  -0.05163  0  -0.088757  -0.181013  0  3.929888  0
C  C98  1  0.27726835  0.97711774  0.44063359  1  -0.01436  0  -0.008603  0.076964  0  4.038095  0
C  C99  1  0.35448468  0.97836322  0.43593376  1  -0.053163  0  -0.089214  -0.184015  0  3.92202  0
C  C100  1  0.39621409  0.97865309  0.49206788  1  -0.039705  0  -0.013934  0.120141  0  4.07539  0
C  C101  1  0.35838030  0.97770346  0.55398167  1  -0.040049  0  -0.088462  -0.17755  0  3.911299  0
C  C102  1  0.47641192  0.97986533  0.48369672  1  -0.016687  0  -0.092978  -0.13024  0  3.995533  0
C  C103  1  0.52444056  0.97773260  0.53313442  1  -0.053682  0  -0.093369  -0.130652  0  3.99992  0
C  C104  1  0.52556282  0.50523829  0.00636496  1  -0.035566  0  -0.092987  -0.12867  0  4.000955  0
C  C105  1  0.47714275  0.45639266  0.00785745  1  -0.055723  0  -0.093782  -0.131898  0  3.998366  0
C  C106  1  0.22095155  0.26259015  0.95732487  1  -0.03738  0  -0.088103  -0.089178  0  4.011372  0
C  C107  1  0.15842093  0.23858272  0.00163051  1  -0.032107  0  -0.021267  -0.046366  0  3.974752  0
C  C108  1  0.13477315  0.27287937  0.04672798  1  -0.122758  0  -0.080733  -0.080535  0  3.975653  0
C  C109  1  0.17270199  0.33044207  0.04691296  1  0.037347  0  -0.090708  -0.137733  0  3.983167  0
C  C110  1  0.23621889  0.35399928  0.00340462  1  -0.055259  0  -0.002792  0.079758  0  3.996171  0
C  C111  1  0.25983015  0.31898587  0.95874751  1  -0.030895  0  -0.093603  -0.13886  0  3.99766  0
C  C112  1  0.23125798  0.69468320  0.04638989  1  -0.004333  0  -0.087856  -0.089785  0  4.006337  0
C  C113  1  0.16952090  0.72239665  0.00448540  1  -0.013287  0  -0.022434  -0.048881  0  3.976673  0
C  C114  1  0.14485491  0.68750821  0.96293487  1  -0.041792  0  -0.080589  -0.080741  0  3.979065  0
C  C115  1  0.18091047  0.62565993  0.96397491  1  -0.090336  0  -0.090447  -0.135225  0  3.983144  0
C  C116  1  0.24312799  0.59765058  0.00563508  1  0.020415  0  -0.002562  0.07901  0  3.993489  0
C  C117  1  0.26782804  0.63341905  0.04661627  1  -0.065012  0  -0.094599  -0.139958  0  3.995614  0
C  C118  1  0.86476651  0.28230660  0.04899423  1  -0.072411  0  -0.081842  -0.081902  0  3.984662  0
C  C119  1  0.84262315  0.24784083  0.00611502  1  0.017246  0  -0.020864  -0.047617  0  3.98155  0
C  C120  1  0.78018428  0.27348077  0.96478077  1  -0.10299  0  -0.084745  -0.089324  0  3.998172  0
C  C121  1  0.74067317  0.33283319  0.96605867  1  -0.012932  0  -0.093521  -0.138713  0  3.995253  0
C  C122  1  0.76337931  0.36884358  0.00756301  1  -0.050077  0  -0.00407  0.077775  0  3.99651  0
C  C123  1  0.82606750  0.34257176  0.04899330  1  0.002373  0  -0.091906  -0.139519  0  3.989658  0
C  C124  1  0.86148949  0.69814336  0.96189864  1  -0.046636  0  -0.081071  -0.080884  0  3.980242  0
C  C125  1  0.83571491  0.73349020  0.00545048  1  0.028388  0  -0.020228  -0.047919  0  3.975375  0
C  C126  1  0.77375152  0.70835743  0.05023670  1  -0.060618  0  -0.084681  -0.083414  0  4.003207  0
C  C127  1  0.73744616  0.64982705  0.05064938  1  -0.049308  0  -0.093032  -0.140249  0  3.994471  0
C  C128  1  0.76281664  0.61408044  0.00711583  1  0.005457  0  -0.002553  0.081123  0  3.995119  0
C  C129  1  0.82576823  0.63884077  0.96315676  1  -0.052067  0  -0.092009  -0.139401  0  3.987439  0
C  C130  1  0.23155293  0.01570284  0.72311212  1  0.054932  0  -0.08461  -0.0844  0  4.002594  0
C  C131  1  0.17048937  0.97308161  0.75156074  1  0.016015  0  -0.020441  -0.047776  0  3.975236  0
C  C132  1  0.14589550  0.93133515  0.71682244  1  -0.0229  0  -0.08139  -0.081919  0  3.980368  0
C  C133  1  0.18156139  0.93263379  0.65466916  1  -0.135481  0  -0.091784  -0.137559  0  3.98512  0
C  C134  1  0.24317232  0.97498229  0.62603092  1  0.033476  0  -0.00331  0.078242  0  3.995883  0
C  C135  1  0.26772203  0.01626443  0.66154029  1  -0.115693  0  -0.092989  -0.139143  0  3.992594  0
C  C136  1  0.13112037  0.01888134  0.30223332  1  -0.061603  0  -0.081764  -0.084657  0  3.982072  0
C  C137  1  0.15486801  0.97505172  0.26658396  1  -0.018864  0  -0.020395  -0.046261  0  3.979272  0
C  C138  1  0.21895287  0.93244884  0.28791335  1  -0.047111  0  -0.085662  -0.090713  0  3.99645  0
C  C139  1  0.25883671  0.93388696  0.34379003  1  -0.092906  0  -0.093102  -0.137437  0  3.994665  0
C  C140  1  0.23483791  0.97666975  0.38074946  1  -0.055761  0  -0.004284  0.076798  0  3.99649  0
C  C141  1  0.17011309  0.01886298  0.35930968  1  0.033643  0  -0.091625  -0.137515  0  3.987169  0
C  C142  1  0.86290005  0.94026370  0.72209153  1  -0.063378  0  -0.081305  -0.080999  0  3.978529  0
C  C143  1  0.83638488  0.98287609  0.75817796  1  -0.063702  0  -0.021789  -0.047156  0  3.977491  0
C  C144  1  0.77278893  0.02570403  0.73472057  1  0.014505  0  -0.087998  -0.091649  0  4.007976  0
C  C145  1  0.73581832  0.02527735  0.67683098  1  -0.087999  0  -0.093955  -0.138693  0  3.994999  0
C  C146  1  0.76210132  0.98288342  0.64017227  1  -0.071233  0  -0.002291  0.081124  0  3.993207  0
C  C147  1  0.82658014  0.94084471  0.66338438  1  -0.031002  0  -0.090795  -0.137606  0  3.983296  0
C  C148  1  0.86014786  0.02394665  0.30696358  1  -0.029003  0  -0.081032  -0.080546  0  3.978733  0
C  C149  1  0.83918667  0.97906633  0.27428654  1  -0.012289  0  -0.021295  -0.048066  0  3.975048  0
C  C150  1  0.77919666  0.93495387  0.30290776  1  -0.074385  0  -0.087638  -0.087428  0  4.007529  0
C  C151  1  0.74046784  0.93597401  0.36270116  1  -0.019342  0  -0.093575  -0.139587  0  3.997146  0
C  C152  1  0.76168976  0.98012616  0.39637679  1  -0.002393  0  -0.002718  0.079932  0  3.996989  0
C  C153  1  0.82228844  0.02387693  0.36767270  1  -0.028787  0  -0.0913  -0.137818  0  3.985822  0
O  O154  1  0.86435392  0.92983864  0.18789230  1  -1.200622  0  -0.357047  -0.649963  0  2.319768  0
O  O155  1  0.92677566  0.02651621  0.18002075  1  -1.179295  0  -0.354454  -0.612461  0  2.307031  0
O  O156  1  0.14705615  0.81029671  0.05233336  1  -1.196395  0  -0.355686  -0.650737  0  2.314147  0
O  O157  1  0.08123199  0.81608858  0.95827473  1  -1.18089  0  -0.35549  -0.612831  0  2.309913  0
O  O158  1  0.12432197  0.92156267  0.18748649  1  -1.193707  0  -0.335009  -0.613424  0  2.306672  0
O  O159  1  0.07333120  0.02948983  0.17236303  1  -1.186978  0  -0.361521  -0.619317  0  2.302015  0
O  O160  1  0.85075233  0.82505269  0.04778838  1  -1.190412  0  -0.332388  -0.61201  0  2.306109  0
O  O161  1  0.93171248  0.81541881  0.96436899  1  -1.181081  0  -0.362315  -0.621561  0  2.309624  0
O  O162  1  0.90601419  0.80740865  0.17540099  1  -1.228635  0  -0.711158  -0.968114  0  1.781528  0
O  O163  1  0.77609451  0.90643973  0.09444734  1  -1.255839  0  -0.579718  -0.774553  0  2.019048  0
O  O164  1  0.10258496  0.79997150  0.18631989  1  -1.23247  0  -0.579231  -0.775744  0  2.017327  0
O  O165  1  0.21391158  0.90803723  0.08436955  1  -1.206345  0  -0.710779  -0.969953  0  1.785755  0
O  O166  1  0.00165987  0.94790412  0.10662231  1  -1.222609  0  -0.788344  -1.175265  0  2.094526  0
O  O167  1  0.00388285  0.84922118  0.06154286  1  -1.266296  0  -0.680663  -1.046259  0  2.212476  0
O  O168  1  0.85670085  0.03114588  0.84396799  1  -1.20612  0  -0.354551  -0.649016  0  2.31374  0
O  O169  1  0.92533405  0.93461681  0.84657658  1  -1.180404  0  -0.355718  -0.612647  0  2.312939  0
O  O170  1  0.13549094  0.15471012  0.95165343  1  -1.206337  0  -0.354902  -0.649622  0  2.312383  0
O  O171  1  0.06970231  0.14989571  0.05045108  1  -1.181772  0  -0.354067  -0.611893  0  2.307461  0
O  O172  1  0.15317466  0.01496700  0.84479877  1  -1.197205  0  -0.332755  -0.612364  0  2.302157  0
O  O173  1  0.07492985  0.93437263  0.83917134  1  -1.182479  0  -0.361719  -0.620736  0  2.307827  0
O  O174  1  0.87528538  0.16590423  0.95280304  1  -1.195328  0  -0.335875  -0.613616  0  2.306281  0
O  O175  1  0.92306150  0.14874475  0.05901623  1  -1.179949  0  -0.361193  -0.619169  0  2.300573  0
O  O176  1  0.89750392  0.16249324  0.82999266  1  -1.225444  0  -0.579569  -0.774573  0  2.018436  0
O  O177  1  0.78738379  0.06699255  0.94456173  1  -1.234365  0  -0.710422  -0.969879  0  1.785945  0
O  O178  1  0.09498837  0.14481099  0.83076051  1  -1.226322  0  -0.710925  -0.967746  0  1.780276  0
O  O179  1  0.22549449  0.05823121  0.92297158  1  -1.221796  0  -0.579959  -0.774483  0  2.021668  0
O  O180  1  0.99935647  0.03458304  0.87631015  1  -1.298093  0  -0.68057  -1.046952  0  2.21068  0
O  O181  1  0.99859355  0.07945455  0.97504077  1  -1.224002  0  -0.788797  -1.1761  0  2.099175  0
O  O182  1  0.91948038  0.95046910  0.97990298  1  -1.219378  0  -0.790347  -1.177054  0  2.105509  0
O  O183  1  0.11522905  0.02101286  0.04457119  1  -1.256353  0  -0.682196  -1.047529  0  2.220443  0
O  O184  1  0.88463859  0.02270071  0.05320890  1  -1.260224  0  -0.682715  -1.048555  0  2.221693  0
O  O185  1  0.08354236  0.94922102  0.97382551  1  -1.223198  0  -0.790392  -1.177147  0  2.106251  0
