# generated using pymatgen
data_SrH10(C2O)4
_symmetry_space_group_name_H-M   'P 1'
_cell_length_a   7.06237566
_cell_length_b   10.00006748
_cell_length_c   13.39193707
_cell_angle_alpha   107.60964180
_cell_angle_beta   90.00007065
_cell_angle_gamma   89.99993297
_symmetry_Int_Tables_number   1
_chemical_formula_structural   SrH10(C2O)4
_chemical_formula_sum   'Sr4 H40 C32 O16'
_cell_volume   901.47510229
_cell_formula_units_Z   4
loop_
 _symmetry_equiv_pos_site_id
 _symmetry_equiv_pos_as_xyz
  1  'x, y, z'
loop_
 _atom_site_type_symbol
 _atom_site_label
 _atom_site_symmetry_multiplicity
 _atom_site_fract_x
 _atom_site_fract_y
 _atom_site_fract_z
 _atom_site_occupancy
 _atom_site_hle17_bader_spin_density
 _atom_site_hle17_ddec_charge
 _atom_site_hle17_ddec_spin_density
 _atom_site_hle17_ddec_sum_bond_order
 _atom_site_hle17_magmom
 _atom_site_hse06_10hf_bader_spin_density
 _atom_site_hse06_10hf_ddec_charge
 _atom_site_hse06_10hf_ddec_spin_density
 _atom_site_hse06_10hf_ddec_sum_bond_order
 _atom_site_hse06_10hf_magmom
 _atom_site_hse06_bader_spin_density
 _atom_site_hse06_ddec_charge
 _atom_site_hse06_ddec_spin_density
 _atom_site_hse06_ddec_sum_bond_order
 _atom_site_hse06_magmom
 _atom_site_pbe_bader_spin_density
 _atom_site_pbe_cm5_charge
 _atom_site_pbe_ddec_charge
 _atom_site_pbe_ddec_spin_density
 _atom_site_pbe_ddec_sum_bond_order
 _atom_site_pbe_magmom
Sr  Sr0  1  0.51121501  0.31074183  0.51220972  1  0  1.595898  0  1.20485  0  0  1.457279  0  1.581531  0  0  1.496329  0  1.537463  0  0  0.999555  1.427798  0  1.613745  0
Sr  Sr1  1  0.01121477  0.18925887  0.48779074  1  0  1.595919  0  1.204789  0  0  1.457294  0  1.58149  0  0  1.496338  0  1.537424  0  0  0.999562  1.427806  0  1.613692  0
Sr  Sr2  1  0.48878737  0.68925990  0.48779207  1  0  1.595839  0  1.205039  0  0  1.457253  0  1.581746  0  0  1.496298  0  1.537679  0  0  0.999475  1.427738  0  1.613943  0
Sr  Sr3  1  0.98878619  0.81073971  0.51220810  1  0  1.595851  0  1.205023  0  0  1.457283  0  1.581711  0  0  1.496327  0  1.537642  0  0  0.999498  1.427768  0  1.613902  0
H  H4  1  0.16357658  0.52846646  0.28501144  1  0  0.091045  0  0.948865  0  0  0.097103  0  1.017161  0  0  0.100251  0  1.015256  0  0  0.112775  0.094955  0  1.018515  0
H  H5  1  0.66357703  0.97153335  0.71498783  1  0  0.091058  0  0.948831  0  0  0.097126  0  1.01714  0  0  0.100275  0  1.015233  0  0  0.112779  0.094974  0  1.018497  0
H  H6  1  0.83642579  0.47153317  0.71498689  1  0  0.091018  0  0.948865  0  0  0.097078  0  1.017153  0  0  0.100223  0  1.015254  0  0  0.112773  0.094927  0  1.018526  0
H  H7  1  0.33642252  0.02846524  0.28501326  1  0  0.091015  0  0.948866  0  0  0.097079  0  1.017142  0  0  0.100224  0  1.015243  0  0  0.112774  0.094928  0  1.018518  0
H  H8  1  0.86305509  0.44143582  0.22120081  1  0  0.07755  0  0.907097  0  0  0.092227  0  0.960567  0  0  0.093702  0  0.960436  0  0  0.106251  0.091209  0  0.960778  0
H  H9  1  0.36305575  0.05856466  0.77879908  1  0  0.077559  0  0.907089  0  0  0.092223  0  0.960562  0  0  0.09371  0  0.960438  0  0  0.10624  0.091205  0  0.960769  0
H  H10  1  0.13694870  0.55856486  0.77880149  1  0  0.07751  0  0.907099  0  0  0.092194  0  0.960571  0  0  0.093655  0  0.960423  0  0  0.106231  0.091176  0  0.96079  0
H  H11  1  0.63694521  0.94143602  0.22119949  1  0  0.077539  0  0.907093  0  0  0.092217  0  0.960572  0  0  0.093685  0  0.960432  0  0  0.106235  0.091198  0  0.960785  0
H  H12  1  0.72375654  0.21674960  0.22515425  1  0  0.071559  0  0.923901  0  0  0.091829  0  0.98012  0  0  0.09299  0  0.979842  0  0  0.096402  0.090813  0  0.980643  0
H  H13  1  0.22375682  0.28325203  0.77484656  1  0  0.071558  0  0.923872  0  0  0.091831  0  0.980099  0  0  0.092994  0  0.979817  0  0  0.096409  0.090818  0  0.980627  0
H  H14  1  0.27624441  0.78325423  0.77484653  1  0  0.071571  0  0.923885  0  0  0.091832  0  0.980129  0  0  0.092993  0  0.979853  0  0  0.096402  0.090809  0  0.980658  0
H  H15  1  0.77624272  0.71674656  0.22515453  1  0  0.071564  0  0.923886  0  0  0.09183  0  0.980115  0  0  0.092992  0  0.979835  0  0  0.09639  0.090805  0  0.980639  0
H  H16  1  0.93581135  0.16741899  0.27306150  1  0  0.066057  0  0.966843  0  0  0.082227  0  1.035301  0  0  0.084257  0  1.033695  0  0  0.101034  0.080526  0  1.037025  0
H  H17  1  0.43581143  0.33258040  0.72693819  1  0  0.066043  0  0.966884  0  0  0.082194  0  1.035371  0  0  0.084223  0  1.033764  0  0  0.101023  0.08049  0  1.037103  0
H  H18  1  0.06418678  0.83258274  0.72693880  1  0  0.066089  0  0.966852  0  0  0.082263  0  1.035307  0  0  0.084293  0  1.033705  0  0  0.101046  0.080559  0  1.03702  0
H  H19  1  0.56418669  0.66741818  0.27306215  1  0  0.066064  0  0.966835  0  0  0.082236  0  1.035297  0  0  0.084267  0  1.033693  0  0  0.101037  0.080534  0  1.03701  0
H  H20  1  0.92380110  0.05465620  0.08370542  1  0  0.057963  0  0.951669  0  0  0.077483  0  1.013758  0  0  0.077969  0  1.014394  0  0  0.086595  0.077094  0  1.013383  0
H  H21  1  0.42380286  0.44534424  0.91629450  1  0  0.057933  0  0.951663  0  0  0.077448  0  1.01375  0  0  0.077932  0  1.014386  0  0  0.086582  0.077054  0  1.013375  0
H  H22  1  0.07619561  0.94534553  0.91629562  1  0  0.057932  0  0.951676  0  0  0.077448  0  1.013764  0  0  0.077936  0  1.014398  0  0  0.086579  0.077053  0  1.013391  0
H  H23  1  0.57619810  0.55465539  0.08370458  1  0  0.057945  0  0.951658  0  0  0.077469  0  1.013746  0  0  0.077956  0  1.014381  0  0  0.086584  0.077074  0  1.013374  0
H  H24  1  0.88418537  0.21675700  0.06008866  1  0  0.052264  0  0.951135  0  0  0.072694  0  1.013263  0  0  0.072682  0  1.014501  0  0  0.08368  0.072735  0  1.012257  0
H  H25  1  0.38418604  0.28324347  0.93991125  1  0  0.052254  0  0.95112  0  0  0.072653  0  1.013274  0  0  0.072638  0  1.014516  0  0  0.08367  0.072694  0  1.012265  0
H  H26  1  0.11581276  0.78324473  0.93991090  1  0  0.05229  0  0.951143  0  0  0.072717  0  1.013258  0  0  0.072703  0  1.014499  0  0  0.083691  0.072748  0  1.012261  0
H  H27  1  0.61581209  0.71675616  0.06008933  1  0  0.052297  0  0.951124  0  0  0.07272  0  1.013255  0  0  0.072706  0  1.014497  0  0  0.08369  0.072754  0  1.012254  0
H  H28  1  0.22288100  0.14896804  0.02845043  1  0  0.051857  0  0.949881  0  0  0.067735  0  1.017002  0  0  0.069082  0  1.016027  0  0  0.082307  0.066787  0  1.017613  0
H  H29  1  0.72288225  0.35103149  0.97154916  1  0  0.051919  0  0.949924  0  0  0.067767  0  1.01706  0  0  0.069116  0  1.016083  0  0  0.082329  0.066817  0  1.01767  0
H  H30  1  0.77711854  0.85103054  0.97154916  1  0  0.051884  0  0.949907  0  0  0.067752  0  1.017031  0  0  0.069101  0  1.016055  0  0  0.08231  0.066797  0  1.017646  0
H  H31  1  0.27711871  0.64896920  0.02845016  1  0  0.051874  0  0.949907  0  0  0.067746  0  1.017032  0  0  0.069095  0  1.016055  0  0  0.082307  0.066792  0  1.017647  0
H  H32  1  0.24343374  0.13443639  0.15621766  1  0  0.068671  0  0.950915  0  0  0.08916  0  1.008915  0  0  0.089457  0  1.010393  0  0  0.091459  0.088532  0  1.008847  0
H  H33  1  0.74343608  0.36556207  0.84378170  1  0  0.068662  0  0.950895  0  0  0.089144  0  1.008897  0  0  0.089441  0  1.010375  0  0  0.091462  0.088513  0  1.008831  0
H  H34  1  0.75656297  0.86556429  0.84378315  1  0  0.068695  0  0.950904  0  0  0.089182  0  1.008902  0  0  0.089478  0  1.010381  0  0  0.091467  0.088548  0  1.008831  0
H  H35  1  0.25656347  0.63443546  0.15621616  1  0  0.068676  0  0.950899  0  0  0.089169  0  1.008892  0  0  0.089466  0  1.010369  0  0  0.091462  0.088537  0  1.00882  0
H  H36  1  0.14942684  0.40372561  0.10164568  1  0  0.061786  0  0.93372  0  0  0.080282  0  0.996019  0  0  0.081215  0  0.996064  0  0  0.089631  0.079316  0  0.996817  0
H  H37  1  0.64942834  0.09627396  0.89835461  1  0  0.061835  0  0.933678  0  0  0.080303  0  0.996001  0  0  0.081236  0  0.996048  0  0  0.089629  0.079336  0  0.996796  0
H  H38  1  0.85057270  0.59627402  0.89835340  1  0  0.061801  0  0.933714  0  0  0.080304  0  0.995991  0  0  0.081238  0  0.996038  0  0  0.089637  0.079336  0  0.996796  0
H  H39  1  0.35057121  0.90372568  0.10164746  1  0  0.061789  0  0.933693  0  0  0.080288  0  0.99599  0  0  0.081222  0  0.996038  0  0  0.089637  0.079318  0  0.996795  0
H  H40  1  0.37048144  0.36596163  0.14880003  1  0  0.071567  0  0.925896  0  0  0.09266  0  0.980576  0  0  0.093459  0  0.981338  0  0  0.093942  0.091976  0  0.980303  0
H  H41  1  0.87048276  0.13403780  0.85120038  1  0  0.071586  0  0.925977  0  0  0.092693  0  0.980624  0  0  0.093493  0  0.981386  0  0  0.093934  0.092003  0  0.980358  0
H  H42  1  0.62951810  0.63403800  0.85119830  1  0  0.071602  0  0.925893  0  0  0.092645  0  0.980614  0  0  0.093443  0  0.981379  0  0  0.093935  0.091965  0  0.980344  0
H  H43  1  0.12951678  0.86596183  0.14880094  1  0  0.071559  0  0.925911  0  0  0.092648  0  0.980592  0  0  0.093448  0  0.981355  0  0  0.09393  0.091967  0  0.98032  0
C  C44  1  0.14505172  0.41429532  0.26487234  1  0  -0.141925  0  3.585841  0  0  -0.147184  0  3.823896  0  0  -0.152906  0  3.836464  0  0  -0.079112  -0.14346  0  3.815591  0
C  C45  1  0.64505286  0.08570425  0.73512720  1  0  -0.141898  0  3.585815  0  0  -0.147228  0  3.823925  0  0  -0.152933  0  3.836508  0  0  -0.079099  -0.143495  0  3.815608  0
C  C46  1  0.85494923  0.58570536  0.73512623  1  0  -0.141898  0  3.585885  0  0  -0.14712  0  3.823836  0  0  -0.152865  0  3.836391  0  0  -0.079112  -0.143397  0  3.815556  0
C  C47  1  0.35494810  0.91429433  0.26487314  1  0  -0.141849  0  3.585824  0  0  -0.147092  0  3.82377  0  0  -0.152822  0  3.836334  0  0  -0.079115  -0.143369  0  3.815491  0
C  C48  1  0.93043054  0.38380103  0.27023804  1  0  -0.126394  0  3.60178  0  0  -0.129516  0  3.836131  0  0  -0.134234  0  3.849058  0  0  -0.077346  -0.126311  0  3.827318  0
C  C49  1  0.43042958  0.11619836  0.72976165  1  0  -0.12644  0  3.601762  0  0  -0.129498  0  3.836058  0  0  -0.134285  0  3.849088  0  0  -0.07736  -0.126292  0  3.827245  0
C  C50  1  0.06957183  0.61619965  0.72976203  1  0  -0.126424  0  3.601784  0  0  -0.129559  0  3.836151  0  0  -0.134182  0  3.848934  0  0  -0.077342  -0.126351  0  3.827336  0
C  C51  1  0.56956997  0.88380127  0.27023817  1  0  -0.126475  0  3.60179  0  0  -0.129625  0  3.836178  0  0  -0.1343  0  3.849042  0  0  -0.077352  -0.12641  0  3.827353  0
C  C52  1  0.87869023  0.22833796  0.22422558  1  0  -0.118064  0  3.68332  0  0  -0.167447  0  3.947265  0  0  -0.167357  0  3.959019  0  0  -0.160369  -0.167351  0  3.939293  0
C  C53  1  0.37868912  0.27166251  0.77577358  1  0  -0.117992  0  3.683213  0  0  -0.167396  0  3.947172  0  0  -0.167288  0  3.958936  0  0  -0.16034  -0.167299  0  3.939211  0
C  C54  1  0.12131072  0.77166272  0.77577449  1  0  -0.117999  0  3.683246  0  0  -0.167412  0  3.947226  0  0  -0.167344  0  3.958961  0  0  -0.16034  -0.167311  0  3.939245  0
C  C55  1  0.62131042  0.72833712  0.22422550  1  0  -0.117979  0  3.683228  0  0  -0.167377  0  3.947197  0  0  -0.167297  0  3.958944  0  0  -0.160338  -0.16727  0  3.939203  0
C  C56  1  0.95627028  0.16737138  0.11306340  1  0  -0.102417  0  3.689286  0  0  -0.142248  0  3.953906  0  0  -0.143338  0  3.969588  0  0  -0.166924  -0.141284  0  3.94263  0
C  C57  1  0.45627499  0.33262800  0.88693481  1  0  -0.102417  0  3.68929  0  0  -0.142201  0  3.953864  0  0  -0.143286  0  3.96954  0  0  -0.166914  -0.14123  0  3.942579  0
C  C58  1  0.04372784  0.83262930  0.88693666  1  0  -0.102449  0  3.689268  0  0  -0.14225  0  3.953872  0  0  -0.143341  0  3.96956  0  0  -0.166946  -0.141278  0  3.942593  0
C  C59  1  0.54372738  0.66737058  0.11306404  1  0  -0.102461  0  3.689316  0  0  -0.142288  0  3.953942  0  0  -0.143377  0  3.969625  0  0  -0.166934  -0.14132  0  3.942662  0
C  C60  1  0.16982809  0.19157784  0.10922958  1  0  -0.112057  0  3.695478  0  0  -0.151948  0  3.959877  0  0  -0.153117  0  3.974676  0  0  -0.169575  -0.150644  0  3.949687  0
C  C61  1  0.66983063  0.30842171  0.89077072  1  0  -0.112026  0  3.695546  0  0  -0.151875  0  3.959866  0  0  -0.153044  0  3.974666  0  0  -0.169564  -0.150575  0  3.949679  0
C  C62  1  0.83017003  0.80842179  0.89077024  1  0  -0.1121  0  3.69558  0  0  -0.15198  0  3.959935  0  0  -0.153149  0  3.974738  0  0  -0.169589  -0.150675  0  3.949743  0
C  C63  1  0.33017032  0.69157792  0.10922985  1  0  -0.112072  0  3.695532  0  0  -0.151959  0  3.959918  0  0  -0.153127  0  3.97472  0  0  -0.16958  -0.150656  0  3.949727  0
C  C64  1  0.21711946  0.34773876  0.15161708  1  0  -0.10641  0  3.659461  0  0  -0.152023  0  3.923321  0  0  -0.15248  0  3.937281  0  0  -0.157415  -0.151515  0  3.914135  0
C  C65  1  0.71712217  0.15225867  0.84838203  1  0  -0.106567  0  3.659542  0  0  -0.152147  0  3.923374  0  0  -0.152608  0  3.937339  0  0  -0.157444  -0.151631  0  3.91418  0
C  C66  1  0.78288008  0.65226087  0.84838200  1  0  -0.106488  0  3.659537  0  0  -0.152062  0  3.923327  0  0  -0.152526  0  3.937298  0  0  -0.15743  -0.151555  0  3.914153  0
C  C67  1  0.28287879  0.84773886  0.15161882  1  0  -0.106423  0  3.659416  0  0  -0.152037  0  3.923245  0  0  -0.152503  0  3.937217  0  0  -0.157414  -0.151524  0  3.914061  0
C  C68  1  0.27361057  0.36819295  0.33995690  1  0  0.715524  0  3.804964  0  0  0.668225  0  4.100658  0  0  0.702411  0  4.090819  0  0  0.229957  0.645059  0  4.106344  0
C  C69  1  0.77361004  0.13180654  0.66004271  1  0  0.715491  0  3.804982  0  0  0.668214  0  4.100664  0  0  0.702401  0  4.090824  0  0  0.229947  0.645041  0  4.106363  0
C  C70  1  0.72638897  0.63179724  0.66004229  1  0  0.715453  0  3.804771  0  0  0.668174  0  4.100417  0  0  0.70236  0  4.090581  0  0  0.229909  0.644993  0  4.106122  0
C  C71  1  0.22638384  0.86820253  0.33995850  1  0  0.715295  0  3.804961  0  0  0.668094  0  4.100492  0  0  0.702279  0  4.090657  0  0  0.229885  0.644913  0  4.106193  0
C  C72  1  0.85226003  0.45271221  0.38035648  1  0  0.743771  0  3.783964  0  0  0.692385  0  4.085411  0  0  0.726937  0  4.074531  0  0  0.2502  0.66869  0  4.091975  0
C  C73  1  0.35225892  0.04728933  0.61964365  1  0  0.743755  0  3.78394  0  0  0.692379  0  4.085359  0  0  0.726948  0  4.074481  0  0  0.250225  0.668685  0  4.091929  0
C  C74  1  0.14774093  0.54726750  0.61964708  1  0  0.743914  0  3.783615  0  0  0.692541  0  4.085041  0  0  0.727075  0  4.074155  0  0  0.250342  0.668851  0  4.091614  0
C  C75  1  0.64773920  0.95273233  0.38035367  1  0  0.743934  0  3.783644  0  0  0.692592  0  4.085015  0  0  0.727136  0  4.074131  0  0  0.250364  0.668892  0  4.091593  0
O  O76  1  0.23855167  0.25745089  0.36531555  1  0  -0.745483  0  2.005071  0  0  -0.681847  0  2.255604  0  0  -0.707893  0  2.243648  0  0  -0.399552  -0.663196  0  2.262859  0
O  O77  1  0.73855089  0.24254967  0.63468502  1  0  -0.745476  0  2.005058  0  0  -0.681834  0  2.25557  0  0  -0.70788  0  2.243613  0  0  -0.39955  -0.663175  0  2.262819  0
O  O78  1  0.76145778  0.74255398  0.63468097  1  0  -0.745501  0  2.004543  0  0  -0.681884  0  2.25506  0  0  -0.707933  0  2.243108  0  0  -0.399602  -0.663208  0  2.262287  0
O  O79  1  0.26145431  0.75744577  0.36532133  1  0  -0.745422  0  2.004554  0  0  -0.681833  0  2.255042  0  0  -0.707881  0  2.243089  0  0  -0.399595  -0.663176  0  2.262311  0
O  O80  1  0.42150413  0.44185157  0.37330749  1  0  -0.750647  0  1.978105  0  0  -0.690452  0  2.22885  0  0  -0.717138  0  2.217768  0  0  -0.407448  -0.671611  0  2.236108  0
O  O81  1  0.92150364  0.05814888  0.62669318  1  0  -0.750631  0  1.9781  0  0  -0.69045  0  2.228851  0  0  -0.717134  0  2.217767  0  0  -0.407447  -0.671606  0  2.23611  0
O  O82  1  0.57850532  0.55815435  0.62669450  1  0  -0.750579  0  1.978437  0  0  -0.690392  0  2.229172  0  0  -0.717074  0  2.218088  0  0  -0.407377  -0.671561  0  2.236445  0
O  O83  1  0.07850299  0.94184551  0.37330621  1  0  -0.750514  0  1.978509  0  0  -0.690366  0  2.229241  0  0  -0.717047  0  2.218158  0  0  -0.407364  -0.671527  0  2.236506  0
O  O84  1  0.82431631  0.37753413  0.44074275  1  0  -0.763426  0  2.019016  0  0  -0.696344  0  2.277007  0  0  -0.723467  0  2.26603  0  0  -0.411307  -0.67682  0  2.284394  0
O  O85  1  0.32431635  0.12246743  0.55925736  1  0  -0.763409  0  2.018968  0  0  -0.696345  0  2.276977  0  0  -0.723464  0  2.265991  0  0  -0.411321  -0.676824  0  2.284377  0
O  O86  1  0.17568748  0.62247389  0.55925224  1  0  -0.763584  0  2.018095  0  0  -0.69657  0  2.276182  0  0  -0.723701  0  2.265218  0  0  -0.411473  -0.677028  0  2.283557  0
O  O87  1  0.67568602  0.87752801  0.44074825  1  0  -0.76355  0  2.018109  0  0  -0.696557  0  2.276199  0  0  -0.723686  0  2.265229  0  0  -0.41148  -0.677011  0  2.283574  0
O  O88  1  0.81715703  0.58370486  0.40611288  1  0  -0.758685  0  1.992258  0  0  -0.702246  0  2.25633  0  0  -0.728775  0  2.245058  0  0  -0.394697  -0.683254  0  2.263831  0
O  O89  1  0.31715384  0.91629590  0.59388670  1  0  -0.758665  0  1.992196  0  0  -0.70225  0  2.25631  0  0  -0.728779  0  2.24503  0  0  -0.394684  -0.683243  0  2.263791  0
O  O90  1  0.18283543  0.41630631  0.59388880  1  0  -0.758626  0  1.992869  0  0  -0.702217  0  2.257014  0  0  -0.728747  0  2.245752  0  0  -0.394652  -0.683209  0  2.26446  0
O  O91  1  0.68283438  0.08369429  0.40611100  1  0  -0.758663  0  1.992849  0  0  -0.702252  0  2.256953  0  0  -0.72878  0  2.245683  0  0  -0.394666  -0.683253  0  2.264429  0
