# generated using pymatgen
data_EuPH15C21NO11
_symmetry_space_group_name_H-M   'P 1'
_cell_length_a   11.69578963
_cell_length_b   14.72379264
_cell_length_c   17.58481420
_cell_angle_alpha   90.00230341
_cell_angle_beta   90.00104206
_cell_angle_gamma   92.02867528
_symmetry_Int_Tables_number   1
_chemical_formula_structural   EuPH15C21NO11
_chemical_formula_sum   'Eu4 P4 H60 C84 N4 O44'
_cell_volume   3026.31923581
_cell_formula_units_Z   4
loop_
 _symmetry_equiv_pos_site_id
 _symmetry_equiv_pos_as_xyz
  1  'x, y, z'
loop_
 _atom_site_type_symbol
 _atom_site_label
 _atom_site_symmetry_multiplicity
 _atom_site_fract_x
 _atom_site_fract_y
 _atom_site_fract_z
 _atom_site_occupancy
 _atom_site_pbe_bader_charge
 _atom_site_pbe_bader_spin_density
 _atom_site_pbe_cm5_charge
 _atom_site_pbe_ddec_charge
 _atom_site_pbe_ddec_spin_density
 _atom_site_pbe_ddec_sum_bond_order
 _atom_site_pbe_magmom
Eu  Eu0  1  0.57353266  0.59208563  0.92794819  1  2.209283  0  1.526238  2.115  0  2.165774  0
Eu  Eu1  1  0.92646883  0.90791506  0.42794866  1  2.209182  0  1.52619  2.115012  0  2.165709  0
Eu  Eu2  1  0.42646890  0.40791740  0.07204946  1  2.209314  0  1.526169  2.115016  0  2.165796  0
Eu  Eu3  1  0.07353090  0.09208456  0.57205069  1  2.209229  0  1.526215  2.115052  0  2.165707  0
P  P4  1  0.83508162  0.75021367  0.91806493  1  2.770782  0  0.281483  0.881499  0  4.786342  0
P  P5  1  0.66491950  0.74978450  0.41806828  1  2.770812  0  0.281492  0.881464  0  4.786197  0
P  P6  1  0.16491805  0.24978459  0.08193556  1  2.7708  0  0.281528  0.88152  0  4.786243  0
P  P7  1  0.33508022  0.25021512  0.58193221  1  2.770816  0  0.28147  0.881421  0  4.786288  0
H  H8  1  0.61181881  0.13633869  0.17083067  1  0.659804  0  0.30826  0.356666  0  0.971774  0
H  H9  1  0.88817811  0.36366461  0.67082838  1  0.659855  0  0.308247  0.356675  0  0.971851  0
H  H10  1  0.38818005  0.86366093  0.82917039  1  0.659807  0  0.308248  0.356656  0  0.97186  0
H  H11  1  0.11182164  0.63633569  0.32917212  1  0.659846  0  0.308246  0.356694  0  0.971838  0
H  H12  1  0.73519476  0.48633590  0.85581754  1  0.625543  0  0.318328  0.407597  0  0.896597  0
H  H13  1  0.76480713  0.01366351  0.35581698  1  0.625557  0  0.318326  0.407579  0  0.89661  0
H  H14  1  0.26480672  0.51366508  0.14418295  1  0.625555  0  0.318307  0.407575  0  0.896632  0
H  H15  1  0.23519169  0.98633475  0.64418294  1  0.625589  0  0.318301  0.407532  0  0.896675  0
H  H16  1  0.67516012  0.48583774  0.77561444  1  0.656813  0  0.304066  0.414876  0  0.905738  0
H  H17  1  0.82484034  0.01415980  0.27561520  1  0.656806  0  0.304079  0.414894  0  0.905705  0
H  H18  1  0.32484051  0.51416324  0.22438719  1  0.656803  0  0.30404  0.414799  0  0.905816  0
H  H19  1  0.17515848  0.98583846  0.72438529  1  0.656826  0  0.304079  0.414896  0  0.905704  0
H  H20  1  0.07107363  0.79773553  0.86446145  1  0.103924  0  0.100992  0.104908  0  1.037124  0
H  H21  1  0.42892734  0.70226144  0.36446014  1  0.104202  0  0.100976  0.104891  0  1.037192  0
H  H22  1  0.92892697  0.20226478  0.13553734  1  0.103931  0  0.100967  0.104844  0  1.037245  0
H  H23  1  0.57107238  0.29773818  0.63553979  1  0.103859  0  0.100957  0.104884  0  1.037213  0
H  H24  1  0.25686753  0.72995197  0.89546659  1  0.105426  0  0.107609  0.112484  0  1.015395  0
H  H25  1  0.24313260  0.77004514  0.39546532  1  0.105406  0  0.107612  0.112482  0  1.015432  0
H  H26  1  0.74313217  0.27004697  0.10453219  1  0.105453  0  0.107636  0.112548  0  1.015312  0
H  H27  1  0.75686712  0.22995448  0.60453575  1  0.105467  0  0.10762  0.112447  0  1.015449  0
H  H28  1  0.08869469  0.54424481  0.05081434  1  0.097956  0  0.107191  0.108218  0  1.012097  0
H  H29  1  0.41130552  0.95575796  0.55081714  1  0.097865  0  0.107195  0.108229  0  1.012172  0
H  H30  1  0.91130672  0.45575414  0.94918558  1  0.097796  0  0.107182  0.108229  0  1.012092  0
H  H31  1  0.58869425  0.04424302  0.44918392  1  0.097739  0  0.107212  0.108254  0  1.012158  0
H  H32  1  0.90034772  0.61122200  0.02100318  1  0.115583  0  0.11485  0.11775  0  0.989028  0
H  H33  1  0.59965282  0.88877996  0.52100620  1  0.115522  0  0.114827  0.117722  0  0.989075  0
H  H34  1  0.09965285  0.38877763  0.97899504  1  0.115856  0  0.114847  0.117764  0  0.988995  0
H  H35  1  0.40034607  0.11122034  0.47899372  1  0.115524  0  0.114828  0.117725  0  0.989054  0
H  H36  1  0.63515303  0.85908250  0.93838195  1  0.114254  0  0.115963  0.126298  0  1.008434  0
H  H37  1  0.86484692  0.64091529  0.43838405  1  0.114323  0  0.115958  0.126266  0  1.008433  0
H  H38  1  0.36484760  0.14091848  0.06161797  1  0.114252  0  0.115963  0.126304  0  1.00843  0
H  H39  1  0.13515194  0.35908432  0.56161531  1  0.114312  0  0.115947  0.126254  0  1.008465  0
H  H40  1  0.59004043  0.98082054  0.03022628  1  0.104897  0  0.112381  0.116065  0  1.000287  0
H  H41  1  0.90995945  0.51917982  0.53022515  1  0.10489  0  0.112388  0.116078  0  1.000285  0
H  H42  1  0.40995931  0.01917976  0.96977421  1  0.104847  0  0.112356  0.116041  0  1.0003  0
H  H43  1  0.09004032  0.48082116  0.46977477  1  0.104869  0  0.112371  0.11606  0  1.0003  0
H  H44  1  0.92024871  0.95780057  0.13482610  1  0.102719  0  0.110106  0.112784  0  1.003024  0
H  H45  1  0.57975330  0.54220217  0.63482345  1  0.102646  0  0.110115  0.112782  0  1.003014  0
H  H46  1  0.07975189  0.04219974  0.86517440  1  0.102728  0  0.11012  0.112805  0  1.003037  0
H  H47  1  0.42024725  0.45779677  0.36517647  1  0.10263  0  0.110126  0.112795  0  1.002989  0
H  H48  1  0.96810858  0.83645606  0.04269087  1  0.106155  0  0.106869  0.10841  0  1.005518  0
H  H49  1  0.53189162  0.66354354  0.54269116  1  0.106179  0  0.10687  0.108384  0  1.005483  0
H  H50  1  0.03189205  0.16354492  0.95730962  1  0.106152  0  0.106871  0.108399  0  1.005513  0
H  H51  1  0.46810719  0.33645471  0.45730819  1  0.106091  0  0.106864  0.108376  0  1.005481  0
H  H52  1  0.79269631  0.66732948  0.77569044  1  0.128568  0  0.110227  0.114565  0  1.018381  0
H  H53  1  0.70730439  0.83267128  0.27569652  1  0.128731  0  0.110231  0.114555  0  1.018385  0
H  H54  1  0.20730344  0.33267082  0.22430892  1  0.128668  0  0.110233  0.114568  0  1.018373  0
H  H55  1  0.29269624  0.16732971  0.72430397  1  0.128751  0  0.110225  0.114551  0  1.018396  0
H  H56  1  0.83380364  0.71809812  0.64159459  1  0.108916  0  0.105956  0.111174  0  1.020844  0
H  H57  1  0.66619582  0.78190018  0.14159903  1  0.109072  0  0.105947  0.111222  0  1.020761  0
H  H58  1  0.16619782  0.28190219  0.35840534  1  0.108919  0  0.105939  0.111166  0  1.020782  0
H  H59  1  0.33380312  0.21810147  0.85840146  1  0.109094  0  0.105937  0.111197  0  1.020818  0
H  H60  1  0.93972067  0.98307745  0.72338560  1  0.145771  0  0.113553  0.116333  0  1.030733  0
H  H61  1  0.56027937  0.51692144  0.22338211  1  0.145879  0  0.113547  0.116367  0  1.030714  0
H  H62  1  0.06027990  0.01692217  0.27661375  1  0.145761  0  0.113572  0.116406  0  1.030711  0
H  H63  1  0.43972041  0.48307954  0.77661725  1  0.145711  0  0.113531  0.116344  0  1.030676  0
H  H64  1  0.90065313  0.93371419  0.85669843  1  0.066083  0  0.103708  0.098496  0  1.008862  0
H  H65  1  0.59934898  0.56628711  0.35669650  1  0.066153  0  0.103712  0.098511  0  1.008883  0
H  H66  1  0.09934745  0.06628543  0.14330150  1  0.066073  0  0.10371  0.098509  0  1.00882  0
H  H67  1  0.40065163  0.43371319  0.64330343  1  0.066157  0  0.10372  0.098515  0  1.008862  0
C  C68  1  0.97408289  0.70919272  0.94163656  1  -0.6174  0  -0.022322  -0.15007  0  4.003962  0
C  C69  1  0.52591887  0.79080524  0.44163733  1  -0.617357  0  -0.022303  -0.150034  0  4.003853  0
C  C70  1  0.02591856  0.29080759  0.05836337  1  -0.617223  0  -0.022331  -0.150085  0  4.003926  0
C  C71  1  0.47408085  0.20919438  0.55836203  1  -0.617309  0  -0.02232  -0.150068  0  4.003869  0
C  C72  1  0.07421114  0.74319549  0.90625343  1  -0.02048  0  -0.081444  -0.082845  0  3.984983  0
C  C73  1  0.42578842  0.75680147  0.40625392  1  -0.020808  0  -0.081484  -0.082853  0  3.985063  0
C  C74  1  0.92578941  0.25680345  0.09374593  1  -0.02054  0  -0.081436  -0.082784  0  3.984992  0
C  C75  1  0.57421130  0.24319815  0.59374658  1  -0.020507  0  -0.081447  -0.082828  0  3.985024  0
C  C76  1  0.17859385  0.70540135  0.92325332  1  -0.031912  0  -0.07504  -0.070726  0  3.926756  0
C  C77  1  0.32140793  0.79459644  0.42325268  1  -0.031878  0  -0.075015  -0.070767  0  3.926804  0
C  C78  1  0.82140846  0.29459896  0.07674547  1  -0.031901  0  -0.075065  -0.070805  0  3.926832  0
C  C79  1  0.67859180  0.20540318  0.57674725  1  -0.031931  0  -0.075038  -0.070701  0  3.926791  0
C  C80  1  0.18376319  0.63329463  0.97493195  1  0.012654  0  -0.00835  -0.025561  0  3.929128  0
C  C81  1  0.31623749  0.86670431  0.47493254  1  0.012721  0  -0.008349  -0.02548  0  3.929125  0
C  C82  1  0.81623736  0.36670431  0.02506854  1  0.012624  0  -0.008324  -0.025465  0  3.929159  0
C  C83  1  0.68376308  0.13329531  0.52506795  1  0.012711  0  -0.008352  -0.025508  0  3.929138  0
C  C84  1  0.08373040  0.60070919  0.01112818  1  -0.02486  0  -0.078681  -0.089434  0  3.961564  0
C  C85  1  0.41627038  0.89929233  0.51113027  1  -0.02483  0  -0.078701  -0.089452  0  3.961729  0
C  C86  1  0.91627020  0.39929111  0.98887118  1  -0.024716  0  -0.078707  -0.089511  0  3.96151  0
C  C87  1  0.58372937  0.10070797  0.48887022  1  -0.024691  0  -0.078697  -0.089443  0  3.961689  0
C  C88  1  0.97895800  0.63817664  0.99471187  1  -0.096311  0  -0.073304  -0.069761  0  3.96709  0
C  C89  1  0.52104190  0.86182390  0.49471441  1  -0.096273  0  -0.073277  -0.06977  0  3.967135  0
C  C90  1  0.02104340  0.36182231  0.00528805  1  -0.096726  0  -0.073272  -0.069757  0  3.967069  0
C  C91  1  0.47895784  0.13817640  0.50528609  1  -0.09629  0  -0.073274  -0.069753  0  3.967135  0
C  C92  1  0.29559094  0.58885704  0.98872503  1  1.580252  0  0.237426  0.653958  0  4.143035  0
C  C93  1  0.20441191  0.91114395  0.48872633  1  1.580314  0  0.23736  0.65392  0  4.142946  0
C  C94  1  0.70441492  0.41114669  0.01127205  1  1.580311  0  0.23742  0.653949  0  4.142798  0
C  C95  1  0.79558691  0.08885431  0.51127302  1  1.579913  0  0.23734  0.653835  0  4.142957  0
C  C96  1  0.80547790  0.84083957  0.98393334  1  -0.553869  0  -0.012453  -0.134367  0  3.967781  0
C  C97  1  0.69452167  0.65915976  0.48393513  1  -0.553928  0  -0.012429  -0.134333  0  3.967639  0
C  C98  1  0.19452273  0.15916142  0.01606602  1  -0.553902  0  -0.01247  -0.134442  0  3.967847  0
C  C99  1  0.30547803  0.34083918  0.51606423  1  -0.553919  0  -0.012426  -0.134319  0  3.967659  0
C  C100  1  0.69857952  0.88140393  0.98046902  1  -0.012301  0  -0.063514  -0.054037  0  3.92722  0
C  C101  1  0.80142165  0.61859524  0.48047074  1  -0.012357  0  -0.063502  -0.053968  0  3.927118  0
C  C102  1  0.30142110  0.11859706  0.01953090  1  -0.012308  0  -0.063538  -0.054041  0  3.927249  0
C  C103  1  0.19857810  0.38140506  0.51952918  1  -0.012354  0  -0.06349  -0.053951  0  3.927119  0
C  C104  1  0.67274032  0.94924524  0.03211197  1  0.007514  0  -0.069891  -0.077161  0  3.925773  0
C  C105  1  0.82725962  0.55075521  0.53211204  1  0.007449  0  -0.069896  -0.077237  0  3.925716  0
C  C106  1  0.32726033  0.05075642  0.96788796  1  0.007538  0  -0.069837  -0.077135  0  3.92573  0
C  C107  1  0.17274098  0.44924509  0.46788789  1  0.007454  0  -0.069904  -0.077236  0  3.925824  0
C  C108  1  0.75290059  0.97728587  0.08757100  1  -0.035882  0  -0.011495  -0.043449  0  3.98175  0
C  C109  1  0.74710005  0.52271524  0.58756916  1  -0.035928  0  -0.011425  -0.043349  0  3.981608  0
C  C110  1  0.24710004  0.02271511  0.91242949  1  -0.03607  0  -0.011495  -0.043427  0  3.981654  0
C  C111  1  0.25289967  0.47728438  0.41243133  1  -0.035992  0  -0.011434  -0.043398  0  3.981652  0
C  C112  1  0.85911234  0.93635562  0.09107569  1  -0.057207  0  -0.075674  -0.084126  0  3.955235  0
C  C113  1  0.64088838  0.56364498  0.59107393  1  -0.05703  0  -0.075739  -0.084149  0  3.955148  0
C  C114  1  0.14088741  0.06364468  0.90892424  1  -0.057191  0  -0.075737  -0.084206  0  3.955233  0
C  C115  1  0.35911302  0.43635396  0.40892542  1  -0.057126  0  -0.075709  -0.084111  0  3.955074  0
C  C116  1  0.88556320  0.86843563  0.03946199  1  -0.051183  0  -0.076142  -0.079101  0  3.986655  0
C  C117  1  0.61443864  0.63156451  0.53946277  1  -0.051274  0  -0.07613  -0.07905  0  3.986532  0
C  C118  1  0.11443742  0.13156535  0.96053737  1  -0.051233  0  -0.076105  -0.079018  0  3.986625  0
C  C119  1  0.38556106  0.36843443  0.46053715  1  -0.051155  0  -0.076166  -0.079092  0  3.986546  0
C  C120  1  0.72773312  0.05031269  0.14331072  1  1.508673  0  0.239579  0.586028  0  4.1161  0
C  C121  1  0.77226473  0.44968996  0.64330708  1  1.509701  0  0.239526  0.585913  0  4.116024  0
C  C122  1  0.27226235  0.94968759  0.85668750  1  1.509384  0  0.239611  0.58602  0  4.116209  0
C  C123  1  0.22774189  0.55031105  0.35668772  1  1.509861  0  0.239562  0.585958  0  4.1165  0
C  C124  1  0.84723356  0.79697731  0.82395846  1  -0.669965  0  -0.020019  -0.148603  0  4.008291  0
C  C125  1  0.65276849  0.70302376  0.32395838  1  -0.670003  0  -0.020018  -0.148542  0  4.008228  0
C  C126  1  0.15276790  0.20302299  0.17604203  1  -0.669982  0  -0.020013  -0.148616  0  4.008314  0
C  C127  1  0.34723040  0.29697654  0.67604155  1  -0.670031  0  -0.020025  -0.148583  0  4.008278  0
C  C128  1  0.82597655  0.73600574  0.76369337  1  0.026794  0  -0.072253  -0.067415  0  3.952731  0
C  C129  1  0.67402633  0.76399376  0.26369788  1  0.026746  0  -0.072226  -0.067366  0  3.952885  0
C  C130  1  0.17402490  0.26399457  0.23630655  1  0.026674  0  -0.072278  -0.067386  0  3.952609  0
C  C131  1  0.32597427  0.23600654  0.73630261  1  0.026763  0  -0.072222  -0.067365  0  3.952792  0
C  C132  1  0.84851738  0.76387915  0.68956297  1  -0.074507  0  -0.073398  -0.076554  0  3.929705  0
C  C133  1  0.65148518  0.73612082  0.18956570  1  -0.074679  0  -0.073382  -0.076684  0  3.929801  0
C  C134  1  0.15148405  0.23612048  0.31043695  1  -0.07463  0  -0.073363  -0.076573  0  3.929636  0
C  C135  1  0.34851549  0.26388153  0.81043480  1  -0.074822  0  -0.073373  -0.076632  0  3.929836  0
C  C136  1  0.89254519  0.85208577  0.67530583  1  -0.036005  0  -0.004143  -0.017333  0  3.925515  0
C  C137  1  0.60745607  0.64791282  0.17530676  1  -0.036074  0  -0.004154  -0.017189  0  3.925399  0
C  C138  1  0.10745709  0.14791386  0.32469352  1  -0.0358  0  -0.004131  -0.017259  0  3.925532  0
C  C139  1  0.39254282  0.35208748  0.82469317  1  -0.035928  0  -0.004136  -0.017173  0  3.925431  0
C  C140  1  0.90928000  0.91380977  0.73521776  1  -0.070003  0  -0.069766  -0.07467  0  3.917494  0
C  C141  1  0.59072039  0.58618969  0.23521469  1  -0.070131  0  -0.069733  -0.074715  0  3.917506  0
C  C142  1  0.09072055  0.08618917  0.26478160  1  -0.069992  0  -0.069776  -0.074745  0  3.917549  0
C  C143  1  0.40927938  0.41381129  0.76478466  1  -0.069973  0  -0.06971  -0.074677  0  3.91737  0
C  C144  1  0.88670435  0.88626168  0.80967856  1  0.039239  0  -0.077526  -0.076997  0  3.996472  0
C  C145  1  0.61329722  0.61373733  0.30967840  1  0.039255  0  -0.077538  -0.077044  0  3.996473  0
C  C146  1  0.11329625  0.11373862  0.19032079  1  0.039231  0  -0.07758  -0.07709  0  3.996527  0
C  C147  1  0.38670162  0.38626160  0.69032152  1  0.039251  0  -0.077554  -0.077049  0  3.996492  0
C  C148  1  0.92082105  0.87785238  0.59525214  1  1.553107  0  0.224783  0.633462  0  4.166306  0
C  C149  1  0.57917982  0.62214911  0.09525128  1  1.553122  0  0.224677  0.633258  0  4.166475  0
C  C150  1  0.07917953  0.12214725  0.40474665  1  1.553004  0  0.224764  0.633467  0  4.166415  0
C  C151  1  0.42082093  0.37785527  0.90474694  1  1.553021  0  0.224684  0.633383  0  4.166395  0
N  N152  1  0.47677473  0.72033593  0.81820337  1  0.823328  0  0.088522  0.727921  0  4.423613  0
N  N153  1  0.02322417  0.77966285  0.31820260  1  0.82326  0  0.088539  0.727855  0  4.42364  0
N  N154  1  0.52322584  0.27966369  0.18179655  1  0.82331  0  0.08854  0.727918  0  4.423618  0
N  N155  1  0.97677472  0.22033745  0.68179904  1  0.82328  0  0.088523  0.727849  0  4.423597  0
O  O156  1  0.74759258  0.67261965  0.91954221  1  -1.430001  0  -0.44433  -0.750468  0  2.373388  0
O  O157  1  0.75240697  0.82738130  0.41954753  1  -1.429984  0  -0.444366  -0.750517  0  2.373301  0
O  O158  1  0.25241056  0.32737999  0.08045885  1  -1.429963  0  -0.444369  -0.750428  0  2.373205  0
O  O159  1  0.24759189  0.17261831  0.58045353  1  -1.429987  0  -0.444343  -0.750496  0  2.373368  0
O  O160  1  0.29284682  0.51668370  0.02914244  1  -1.205661  0  -0.388136  -0.674  0  2.301754  0
O  O161  1  0.20715356  0.98331666  0.52914483  1  -1.205758  0  -0.388069  -0.673877  0  2.301947  0
O  O162  1  0.70715026  0.48331387  0.97085920  1  -1.205702  0  -0.388112  -0.673889  0  2.302119  0
O  O163  1  0.79284614  0.01668228  0.47085624  1  -1.205349  0  -0.388014  -0.673819  0  2.302074  0
O  O164  1  0.38404545  0.62546671  0.95854787  1  -1.189678  0  -0.39417  -0.66522  0  2.333892  0
O  O165  1  0.11595296  0.87452939  0.45854460  1  -1.189662  0  -0.394164  -0.665308  0  2.333607  0
O  O166  1  0.61595238  0.37452815  0.04145376  1  -1.189673  0  -0.394212  -0.665354  0  2.333186  0
O  O167  1  0.88404767  0.12547159  0.54145533  1  -1.189662  0  -0.394212  -0.665311  0  2.333403  0
O  O168  1  0.62542871  0.08511162  0.13364951  1  -1.161105  0  -0.324436  -0.470607  0  2.312754  0
O  O169  1  0.87456960  0.41488784  0.63364935  1  -1.161566  0  -0.32442  -0.470602  0  2.312861  0
O  O170  1  0.37457013  0.91488732  0.86635041  1  -1.16148  0  -0.324485  -0.470679  0  2.312748  0
O  O171  1  0.12543097  0.58511178  0.36635114  1  -1.161458  0  -0.324506  -0.470718  0  2.312644  0
O  O172  1  0.79651642  0.07616628  0.19312558  1  -1.16336  0  -0.293829  -0.521282  0  2.165387  0
O  O173  1  0.70348028  0.42383743  0.69311910  1  -1.163946  0  -0.293797  -0.521233  0  2.165245  0
O  O174  1  0.20348258  0.92383674  0.80687662  1  -1.163481  0  -0.293798  -0.521202  0  2.165702  0
O  O175  1  0.29651330  0.57615809  0.30688253  1  -1.164067  0  -0.293729  -0.521132  0  2.166089  0
O  O176  1  0.96666573  0.95639476  0.58081571  1  -1.2206  0  -0.427796  -0.764366  0  2.44777  0
O  O177  1  0.53333212  0.54360533  0.08081450  1  -1.220581  0  -0.427797  -0.764275  0  2.447861  0
O  O178  1  0.03333321  0.04360690  0.41918364  1  -1.220553  0  -0.427773  -0.764329  0  2.447834  0
O  O179  1  0.46666672  0.45639360  0.91918827  1  -1.220637  0  -0.42779  -0.764327  0  2.447938  0
O  O180  1  0.89735089  0.82149496  0.54262325  1  -1.170835  0  -0.37321  -0.610534  0  2.227847  0
O  O181  1  0.60264920  0.67850192  0.04262628  1  -1.170849  0  -0.373171  -0.61049  0  2.227996  0
O  O182  1  0.10265227  0.17850535  0.45737667  1  -1.170821  0  -0.373196  -0.610564  0  2.227827  0
O  O183  1  0.39734702  0.32149564  0.95737535  1  -1.170763  0  -0.373182  -0.6106  0  2.227829  0
O  O184  1  0.48664263  0.63645483  0.80167469  1  -0.568782  0  -0.228451  -0.511397  0  1.985896  0
O  O185  1  0.01335579  0.86354315  0.30167605  1  -0.568691  0  -0.228482  -0.511438  0  1.98591  0
O  O186  1  0.51335714  0.36354615  0.19832524  1  -0.568788  0  -0.228449  -0.511381  0  1.985861  0
O  O187  1  0.98664305  0.13645578  0.69832444  1  -0.568742  0  -0.228464  -0.511385  0  1.985834  0
O  O188  1  0.52848804  0.75016547  0.87732224  1  -0.541682  0  -0.211022  -0.495175  0  2.028992  0
O  O189  1  0.97151125  0.74983682  0.37731964  1  -0.541633  0  -0.210989  -0.495088  0  2.029022  0
O  O190  1  0.47151168  0.24983415  0.12267541  1  -0.541769  0  -0.210964  -0.495131  0  2.028885  0
O  O191  1  0.02849021  0.25016349  0.62268143  1  -0.541592  0  -0.210991  -0.495075  0  2.028965  0
O  O192  1  0.41697330  0.77095803  0.77815851  1  -0.508869  0  -0.164961  -0.399161  0  1.925819  0
O  O193  1  0.08302701  0.72903950  0.27815846  1  -0.508927  0  -0.165012  -0.399152  0  1.925771  0
O  O194  1  0.58302473  0.22904227  0.22184141  1  -0.508851  0  -0.165021  -0.399229  0  1.925935  0
O  O195  1  0.91697268  0.27095944  0.72184317  1  -0.508969  0  -0.165007  -0.399201  0  1.925812  0
O  O196  1  0.68545873  0.52132342  0.82306912  1  -1.261533  0  -0.622269  -0.840099  0  2.033134  0
O  O197  1  0.81454055  0.97867284  0.32306607  1  -1.261491  0  -0.622275  -0.840092  0  2.033081  0
O  O198  1  0.31453921  0.47867416  0.17693081  1  -1.261524  0  -0.622225  -0.839997  0  2.033271  0
O  O199  1  0.18546083  0.02132543  0.67693272  1  -1.261539  0  -0.622238  -0.840027  0  2.033085  0
