# generated using pymatgen
data_CoH11C17N3O4
_symmetry_space_group_name_H-M   'P 1'
_cell_length_a   7.65252985
_cell_length_b   9.07545169
_cell_length_c   10.22997532
_cell_angle_alpha   89.74287467
_cell_angle_beta   96.99248605
_cell_angle_gamma   90.57165735
_symmetry_Int_Tables_number   1
_chemical_formula_structural   CoH11C17N3O4
_chemical_formula_sum   'Co2 H22 C34 N6 O8'
_cell_volume   705.15012809
_cell_formula_units_Z   2
loop_
 _symmetry_equiv_pos_site_id
 _symmetry_equiv_pos_as_xyz
  1  'x, y, z'
loop_
 _atom_site_type_symbol
 _atom_site_label
 _atom_site_symmetry_multiplicity
 _atom_site_fract_x
 _atom_site_fract_y
 _atom_site_fract_z
 _atom_site_occupancy
 _atom_site_hle17_ddec_charge
 _atom_site_hle17_ddec_spin_density
 _atom_site_hle17_ddec_sum_bond_order
 _atom_site_hle17_magmom
 _atom_site_hse06_10hf_ddec_charge
 _atom_site_hse06_10hf_ddec_spin_density
 _atom_site_hse06_10hf_ddec_sum_bond_order
 _atom_site_hse06_10hf_magmom
 _atom_site_hse06_ddec_charge
 _atom_site_hse06_ddec_spin_density
 _atom_site_hse06_ddec_sum_bond_order
 _atom_site_hse06_magmom
 _atom_site_pbe_cm5_charge
 _atom_site_pbe_ddec_charge
 _atom_site_pbe_ddec_spin_density
 _atom_site_pbe_ddec_sum_bond_order
 _atom_site_pbe_magmom
Co  Co0  1  0.69563131  0.74843448  0.20266915  1  0.671143  -1.339087  2.512889  -1.075  0.651099  -1.121475  2.948625  -0.983  0.706694  -1.092169  2.883699  -0.977  0.692337  0.619994  -1.126953  2.985892  -0.97
Co  Co1  1  0.20219687  0.25130105  0.69993863  1  0.671672  1.338274  2.51797  1.075  0.651043  1.121687  2.954078  0.983  0.706433  1.092641  2.889165  0.978  0.693419  0.620265  1.127073  2.991424  0.97
H  H2  1  0.95001284  0.09387339  0.49603160  1  0.102932  2e-06  1.012952  0.0  0.103815  -0.0001  1.085339  0.0  0.108032  -8e-05  1.081047  0.0  0.120045  0.100485  -0.000102  1.088712  0.0
H  H3  1  0.44917495  0.91035375  0.99848421  1  0.102541  1.1e-05  1.013995  0.0  0.103472  0.000107  1.086479  0.0  0.107542  8.4e-05  1.082393  0.0  0.119991  0.100232  0.000111  1.08974  0.0
H  H4  1  0.47580835  0.22766630  0.53594207  1  0.096655  1.7e-05  0.978052  0.0  0.100199  -3.5e-05  1.0476  0.0  0.102747  -2.9e-05  1.045047  0.0  0.120698  0.098243  -3.3e-05  1.049665  0.0
H  H5  1  0.96908616  0.76944302  0.03742463  1  0.097569  2.2e-05  0.974129  0.0  0.101396  6.8e-05  1.042926  0.0  0.103887  5.9e-05  1.040481  0.0  0.121352  0.099459  7.2e-05  1.044966  0.0
H  H6  1  0.53634994  0.07447427  0.34665139  1  0.132416  -0.000154  0.946185  0.0  0.139933  8e-06  1.007616  0.0  0.144116  7e-06  1.005903  0.0  0.115709  0.136796  3e-06  1.009314  0.0
H  H7  1  0.03489016  0.92132772  0.84693315  1  0.131025  0.000153  0.944092  0.0  0.138617  -8e-06  1.005498  0.0  0.142704  -7e-06  1.00385  0.0  0.115724  0.135548  -0.0  1.007175  0.0
H  H8  1  0.66989388  0.58060008  0.94675341  1  0.078924  -0.000551  0.94997  -0.001  0.088805  4.1e-05  1.009739  0.0  0.090678  2.8e-05  1.007827  0.0  0.118404  0.087862  6.5e-05  1.010644  0.0
H  H9  1  0.16951280  0.42134253  0.44289016  1  0.077806  0.000532  0.949262  0.001  0.087662  -4.9e-05  1.009227  0.0  0.08943  -3.6e-05  1.007474  0.0  0.118072  0.086822  -7.2e-05  1.009972  0.0
H  H10  1  0.73451090  0.32023677  0.89533064  1  0.120291  0.000498  0.973525  0.001  0.125332  0.000109  1.03965  0.0  0.129722  6.4e-05  1.037399  0.0  0.108048  0.121812  0.000176  1.041335  0.0
H  H11  1  0.22349567  0.68473686  0.39074842  1  0.119783  -0.00052  0.980375  -0.001  0.125019  -0.000143  1.045807  0.0  0.129355  -8.6e-05  1.04365  0.0  0.107726  0.121553  -0.000221  1.047392  0.0
H  H12  1  0.79151904  0.13808055  0.08247959  1  0.101642  -0.000667  0.956795  -0.002  0.109597  0.000121  1.019018  0.0  0.112914  6.4e-05  1.016328  0.0  0.10633  0.106531  0.000173  1.022253  0.0
H  H13  1  0.27994203  0.86642636  0.57772278  1  0.099446  0.000622  0.963177  0.002  0.108684  -0.000125  1.024421  0.0  0.111793  -6.8e-05  1.021992  0.0  0.105722  0.105726  -0.000178  1.027557  0.0
H  H14  1  0.77591188  0.22395092  0.31028339  1  0.115461  0.000337  0.965583  0.001  0.121859  -7.2e-05  1.033946  0.0  0.126048  -2.3e-05  1.031796  0.0  0.1097  0.118164  -7.3e-05  1.036929  0.0
H  H15  1  0.27270397  0.77689698  0.80605065  1  0.115499  -0.000332  0.965912  -0.001  0.122167  5.5e-05  1.033581  0.0  0.126218  1e-05  1.031568  0.0  0.109908  0.118577  6.1e-05  1.036423  0.0
H  H16  1  0.75404208  0.32019820  0.50389732  1  0.120186  0.000154  0.968172  0.0  0.125838  5.1e-05  1.03495  0.0  0.12995  2.3e-05  1.032732  0.0  0.111612  0.12304  8.5e-05  1.03652  0.0
H  H17  1  0.25086342  0.67923527  0.99910469  1  0.121023  -0.000155  0.965079  0.0  0.125698  -4.8e-05  1.033188  0.0  0.129869  -2.2e-05  1.030942  0.0  0.111797  0.122809  -8e-05  1.034845  0.0
H  H18  1  0.74436182  0.45927864  0.70912495  1  0.106952  -0.000314  0.936876  -0.001  0.119771  -1.1e-05  0.992371  0.0  0.123  -3e-05  0.989326  0.0  0.111693  0.11736  2.6e-05  0.994387  0.0
H  H19  1  0.24062407  0.53851336  0.20484211  1  0.107616  0.000325  0.935052  0.001  0.120546  1.1e-05  0.990112  0.0  0.123808  3e-05  0.987006  0.0  0.112205  0.118176  -2.5e-05  0.992057  0.0
H  H20  1  0.70134658  0.73686884  0.69542784  1  0.094407  0.000117  0.978401  0.0  0.102366  3.7e-05  1.042319  0.0  0.103982  3e-05  1.044305  0.0  0.100492  0.101138  4.5e-05  1.041103  0.0
H  H21  1  0.20356110  0.25971780  0.19211726  1  0.094486  -0.000113  0.979433  0.0  0.102162  -3.2e-05  1.04366  0.0  0.103817  -2.8e-05  1.045647  0.0  0.10052  0.100926  -3.6e-05  1.042433  0.0
H  H22  1  0.67768486  0.85903060  0.47716107  1  0.106624  5.4e-05  0.97045  0.0  0.108191  0.000237  1.041743  0.0  0.111829  0.000182  1.037349  0.0  0.121876  0.105355  0.00026  1.045214  0.0
H  H23  1  0.18679361  0.13816027  0.97484133  1  0.107085  -4.6e-05  0.971891  0.0  0.108704  -0.000235  1.042676  0.0  0.112278  -0.000179  1.038456  0.0  0.122009  0.105837  -0.00026  1.046122  0.0
C  C24  1  0.95506074  0.90316491  0.29111080  1  0.620699  0.002657  3.867465  0.004  0.573599  0.000384  4.167231  0.002  0.609334  0.00028  4.165482  0.001  0.205542  0.548961  0.0005  4.165958  0.002
C  C25  1  0.46053899  0.09909814  0.79051512  1  0.620323  -0.002545  3.869248  -0.004  0.573194  -0.000361  4.169755  -0.002  0.609036  -0.000254  4.1678  -0.001  0.205644  0.54851  -0.000481  4.168588  -0.002
C  C26  1  0.10077671  0.00178329  0.35054316  1  -0.122793  0.004459  3.721513  0.006  -0.102495  0.0003  3.95527  0.001  -0.113917  0.000491  3.974579  0.001  -0.008503  -0.095999  -4.3e-05  3.943  0.001
C  C27  1  0.60275280  0.99983539  0.85172317  1  -0.123272  -0.004446  3.721069  -0.006  -0.102891  -0.000336  3.954583  -0.001  -0.114395  -0.000511  3.974141  -0.001  -0.00828  -0.096365  -1.4e-05  3.942112  -0.001
C  C28  1  0.07785430  0.09000313  0.45875630  1  0.093724  -0.008657  3.61875  -0.01  0.053009  -0.003549  3.880153  -0.004  0.064932  -0.002569  3.891395  -0.003  0.043767  0.044863  -0.004673  3.874772  -0.005
C  C29  1  0.57687438  0.91271120  0.96095762  1  0.095453  0.008511  3.619633  0.01  0.055094  0.003474  3.880997  0.004  0.067014  0.002505  3.892339  0.003  0.044274  0.046977  0.004571  3.875347  0.005
C  C30  1  0.37107317  0.16452416  0.48034270  1  0.117789  -0.00758  3.665378  -0.009  0.082655  -0.002562  3.929317  -0.003  0.094577  -0.0017  3.942603  -0.002  0.041668  0.073315  -0.003427  3.923893  -0.004
C  C31  1  0.86677410  0.83410812  0.98194015  1  0.11666  0.007462  3.667107  0.009  0.08176  0.002555  3.931704  0.003  0.093558  0.001708  3.945072  0.002  0.041285  0.072626  0.003429  3.925774  0.004
C  C32  1  0.40354393  0.07878217  0.37433547  1  -0.130464  0.003867  3.692359  0.005  -0.149069  3.7e-05  3.944365  0.0  -0.157197  0.000243  3.960979  0.0  -0.078484  -0.144322  -0.000362  3.934852  0.0
C  C33  1  0.90221362  0.91888464  0.87507472  1  -0.129053  -0.003731  3.694213  -0.005  -0.147782  -6e-06  3.946609  0.0  -0.155756  -0.000211  3.96332  0.0  -0.078532  -0.143121  0.000371  3.937073  0.0
C  C34  1  0.26870321  0.99266872  0.30831586  1  0.007276  -0.009763  3.678038  -0.012  0.012318  -0.004128  3.91281  -0.005  0.01803  -0.002644  3.925736  -0.003  0.014627  0.008065  -0.005941  3.904412  -0.007
C  C35  1  0.77063735  0.00639593  0.80877875  1  0.008204  0.00961  3.680815  0.012  0.013553  0.00405  3.914795  0.005  0.019046  0.002586  3.928096  0.003  0.014491  0.009414  0.005857  3.90621  0.007
C  C36  1  0.30971324  0.89798641  0.19497479  1  0.64254  -0.002791  3.946838  -0.003  0.596761  -0.004028  4.247895  -0.005  0.631603  -0.003124  4.237981  -0.005  0.207476  0.572913  -0.005134  4.252792  -0.006
C  C37  1  0.81390281  0.10002537  0.69431184  1  0.640303  0.002917  3.948984  0.003  0.594547  0.004163  4.249913  0.006  0.629355  0.003245  4.240182  0.005  0.205634  0.570732  0.005248  4.254636  0.006
C  C38  1  0.69668714  0.49936695  0.02486966  1  0.112424  0.025354  3.682349  0.029  0.084014  0.007054  3.942276  0.008  0.096293  0.004948  3.955019  0.006  0.040165  0.074847  0.008234  3.935425  0.009
C  C39  1  0.19529745  0.50248357  0.52093129  1  0.115793  -0.024619  3.678628  -0.028  0.087145  -0.006822  3.938584  -0.008  0.099191  -0.004746  3.951877  -0.006  0.04121  0.078058  -0.008027  3.9316  -0.009
C  C40  1  0.73262090  0.35408088  0.99700482  1  -0.102372  -0.015076  3.708002  -0.019  -0.117578  -0.001857  3.960924  -0.003  -0.124125  -0.00214  3.975829  -0.003  -0.08176  -0.113854  -0.001341  3.952024  -0.003
C  C41  1  0.22554089  0.64958749  0.49264575  1  -0.101124  0.014519  3.707763  0.018  -0.116496  0.001726  3.960617  0.003  -0.122747  0.001995  3.975332  0.003  -0.081354  -0.112967  0.001243  3.951798  0.002
C  C42  1  0.76257629  0.25280805  0.10027402  1  -0.004502  0.029598  3.708964  0.034  -0.021772  0.008331  3.958773  0.009  -0.010324  0.005139  3.967393  0.006  -0.072565  -0.02978  0.010832  3.954367  0.012
C  C43  1  0.25478578  0.75046394  0.59581087  1  -0.003693  -0.028452  3.709774  -0.033  -0.022197  -0.007976  3.959002  -0.009  -0.010842  -0.004887  3.967803  -0.006  -0.072913  -0.03015  -0.010437  3.954518  -0.012
C  C44  1  0.75481119  0.30109488  0.22813784  1  -0.140992  -0.01541  3.709505  -0.02  -0.15884  -0.002098  3.954186  -0.003  -0.166045  -0.002039  3.969357  -0.003  -0.07966  -0.1541  -0.001965  3.945661  -0.004
C  C45  1  0.25161209  0.70020933  0.72397488  1  -0.140351  0.014769  3.714328  0.019  -0.15864  0.001987  3.958968  0.003  -0.165682  0.001917  3.974229  0.003  -0.079528  -0.154016  0.001866  3.950477  0.003
C  C46  1  0.72245758  0.44930101  0.25052853  1  0.163735  0.023075  3.745957  0.027  0.163754  0.006793  3.98515  0.008  0.175186  0.004444  3.999865  0.006  0.111214  0.155074  0.008431  3.976685  0.01
C  C47  1  0.22387810  0.55066916  0.74663049  1  0.161377  -0.022127  3.753071  -0.026  0.162477  -0.006505  3.991145  -0.008  0.173646  -0.004241  4.00611  -0.005  0.11066  0.153857  -0.00811  3.982682  -0.009
C  C48  1  0.71929321  0.51493183  0.37971219  1  0.155881  0.007205  3.760256  0.007  0.153229  0.002928  3.999851  0.003  0.160958  0.001685  4.017701  0.002  0.114061  0.147553  0.003822  3.989643  0.004
C  C49  1  0.22277512  0.48398972  0.87604158  1  0.158116  -0.007399  3.759392  -0.007  0.15438  -0.002927  4.000022  -0.003  0.162334  -0.001708  4.017717  -0.002  0.115103  0.148602  -0.00379  3.989909  -0.004
C  C50  1  0.73557739  0.43917552  0.49956063  1  -0.131718  -0.001791  3.684778  -0.003  -0.151265  0.0  3.937126  0.0  -0.157854  -0.000266  3.954634  0.0  -0.076808  -0.148391  0.000389  3.927348  0.0
C  C51  1  0.23541564  0.55965776  0.99541115  1  -0.133159  0.002135  3.68104  0.003  -0.15178  6.1e-05  3.934084  0.0  -0.15853  0.000311  3.951587  0.001  -0.077481  -0.148821  -0.000315  3.924449  0.0
C  C52  1  0.73015335  0.51799964  0.61547935  1  0.007775  0.011183  3.693304  0.012  -0.014718  0.003814  3.945252  0.004  -0.007206  0.002222  3.958638  0.003  -0.066985  -0.020404  0.005141  3.937179  0.006
C  C53  1  0.22957921  0.47992959  0.11149911  1  0.004989  -0.011408  3.696042  -0.013  -0.017338  -0.003824  3.948  -0.004  -0.009863  -0.002238  3.961522  -0.003  -0.067823  -0.023058  -0.005159  3.93993  -0.006
C  C54  1  0.70708494  0.67012509  0.60794140  1  -0.118092  -0.001091  3.730915  -0.002  -0.128986  0.000454  3.981464  0.0  -0.136867  -4.7e-05  4.001765  0.0  -0.084125  -0.123225  0.001151  3.968177  0.001
C  C55  1  0.21012336  0.32712042  0.10460562  1  -0.116808  0.001493  3.733511  0.002  -0.128005  -0.000367  3.98392  0.0  -0.136007  0.000102  4.004222  0.0  -0.083827  -0.122275  -0.001014  3.970765  -0.001
C  C56  1  0.69237853  0.74006186  0.48556186  1  0.13192  0.010735  3.633002  0.012  0.100885  0.004031  3.886859  0.004  0.11309  0.002784  3.898986  0.003  0.052507  0.091935  0.004939  3.879971  0.005
C  C57  1  0.19936481  0.25745772  0.98272751  1  0.128171  -0.010857  3.635275  -0.012  0.098251  -0.004  3.887532  -0.004  0.110472  -0.002763  3.899712  -0.003  0.051159  0.089271  -0.004928  3.880764  -0.005
N  N58  1  0.21187107  0.16730421  0.52581412  1  -0.270272  -0.006647  3.374142  -0.008  -0.223412  -0.005332  3.668136  -0.008  -0.248546  -0.004679  3.683504  -0.007  -0.343347  -0.208957  -0.005337  3.660312  -0.008
N  N59  1  0.70787632  0.83371816  0.02814218  1  -0.27001  0.006962  3.370089  0.008  -0.224596  0.005458  3.665142  0.008  -0.24973  0.004773  3.680588  0.007  -0.342269  -0.210005  0.005461  3.657047  0.008
N  N60  1  0.69458876  0.54914724  0.14908846  1  -0.281704  -0.000846  3.357518  -0.004  -0.244935  0.000337  3.655158  0.002  -0.267471  -0.000485  3.666379  0.001  -0.337358  -0.230061  0.000723  3.645984  0.003
N  N61  1  0.19732539  0.45100008  0.64539414  1  -0.282613  0.000501  3.35508  0.003  -0.245606  -0.000639  3.652176  -0.003  -0.268214  0.000129  3.663561  -0.002  -0.337236  -0.230795  -0.001003  3.643132  -0.003
N  N62  1  0.70026259  0.66412309  0.37393492  1  -0.250607  0.014145  3.35822  0.019  -0.207104  0.007311  3.633113  0.011  -0.232036  0.00594  3.650023  0.009  -0.331839  -0.192656  0.007644  3.622297  0.011
N  N63  1  0.20732944  0.33427463  0.87093270  1  -0.248571  -0.013496  3.359955  -0.018  -0.205296  -0.00706  3.635084  -0.01  -0.23008  -0.005763  3.651819  -0.009  -0.332433  -0.190935  -0.007378  3.62436  -0.011
O  O64  1  0.79343528  0.94495271  0.27964997  1  -0.544801  0.005394  2.002037  0.009  -0.512444  3.1e-05  2.260921  0.001  -0.553503  0.001033  2.259937  0.003  -0.289041  -0.481836  -0.001655  2.259991  -0.001
O  O65  1  0.29783968  0.05704329  0.77766996  1  -0.544274  -0.006062  2.008897  -0.01  -0.511747  -0.000616  2.268161  -0.002  -0.552958  -0.001539  2.266971  -0.004  -0.29049  -0.48115  0.00104  2.267414  0.0
O  O66  1  0.99362833  0.77564996  0.25460984  1  -0.571787  -0.037995  1.997649  -0.057  -0.534984  -0.030461  2.238238  -0.048  -0.570587  -0.023287  2.235804  -0.037  -0.284822  -0.506094  -0.039253  2.236491  -0.061
O  O67  1  0.50281921  0.22649598  0.75371643  1  -0.573613  0.036239  1.989023  0.054  -0.538269  0.029536  2.231438  0.046  -0.573185  0.022556  2.228202  0.035  -0.285551  -0.509881  0.038228  2.230252  0.059
O  O68  1  0.42584320  0.80003276  0.22572016  1  -0.621654  -0.019975  2.054002  -0.029  -0.589116  -0.016358  2.32778  -0.023  -0.620433  -0.012996  2.31647  -0.018  -0.320522  -0.56522  -0.020377  2.332406  -0.029
O  O69  1  0.93199646  0.19826514  0.72394661  1  -0.619294  0.020604  2.053609  0.03  -0.586502  0.016697  2.326183  0.023  -0.617875  0.013245  2.315099  0.018  -0.319064  -0.562482  0.020813  2.33062  0.029
O  O70  1  0.23289557  0.92741687  0.08225149  1  -0.609892  -0.004231  1.963373  -0.006  -0.559935  -0.003573  2.19003  -0.006  -0.586733  -0.00239  2.183041  -0.004  -0.312024  -0.539331  -0.005235  2.193384  -0.008
O  O71  1  0.73602652  0.06994620  0.58200491  1  -0.608847  0.004425  1.963126  0.007  -0.558801  0.003672  2.189487  0.006  -0.585797  0.002477  2.182717  0.004  -0.311253  -0.538033  0.005351  2.192612  0.008
