# generated using pymatgen
data_BaH14C26N8(OF3)4
_symmetry_space_group_name_H-M   'P 1'
_cell_length_a   11.95549055
_cell_length_b   12.03307101
_cell_length_c   12.16134776
_cell_angle_alpha   66.49312254
_cell_angle_beta   86.33167372
_cell_angle_gamma   77.75842162
_symmetry_Int_Tables_number   1
_chemical_formula_structural   BaH14C26N8(OF3)4
_chemical_formula_sum   'Ba2 H28 C52 N16 O8 F24'
_cell_volume   1567.46253641
_cell_formula_units_Z   2
loop_
 _symmetry_equiv_pos_site_id
 _symmetry_equiv_pos_as_xyz
  1  'x, y, z'
loop_
 _atom_site_type_symbol
 _atom_site_label
 _atom_site_symmetry_multiplicity
 _atom_site_fract_x
 _atom_site_fract_y
 _atom_site_fract_z
 _atom_site_occupancy
 _atom_site_hle17_bader_spin_density
 _atom_site_hle17_ddec_charge
 _atom_site_hle17_ddec_spin_density
 _atom_site_hle17_ddec_sum_bond_order
 _atom_site_hle17_magmom
 _atom_site_hse06_10hf_bader_spin_density
 _atom_site_hse06_10hf_ddec_charge
 _atom_site_hse06_10hf_ddec_spin_density
 _atom_site_hse06_10hf_ddec_sum_bond_order
 _atom_site_hse06_10hf_magmom
 _atom_site_hse06_bader_spin_density
 _atom_site_hse06_ddec_charge
 _atom_site_hse06_ddec_spin_density
 _atom_site_hse06_ddec_sum_bond_order
 _atom_site_hse06_magmom
 _atom_site_pbe_bader_spin_density
 _atom_site_pbe_cm5_charge
 _atom_site_pbe_ddec_charge
 _atom_site_pbe_ddec_spin_density
 _atom_site_pbe_ddec_sum_bond_order
 _atom_site_pbe_magmom
Ba  Ba0  1  0.31025079  0.06156204  0.24262062  1  0  1.471583  0  1.365316  0  0  1.264585  0  1.814381  0  0  1.311  0  1.771583  0  0  0.961718  1.230739  0  1.844521  0
Ba  Ba1  1  0.68974977  0.93843829  0.75738058  1  0  1.471594  0  1.365297  0  0  1.264587  0  1.814379  0  0  1.311005  0  1.771572  0  0  0.961704  1.23072  0  1.844524  0
H  H2  1  0.76292371  0.98249664  0.33787446  1  0  0.0778  0  0.9223  0  0  0.084463  0  0.986551  0  0  0.08741  0  0.983685  0  0  0.113982  0.082331  0  0.988613  0
H  H3  1  0.23707572  0.01750091  0.66212626  1  0  0.077776  0  0.92225  0  0  0.084404  0  0.986519  0  0  0.087358  0  0.983644  0  0  0.113952  0.082296  0  0.988554  0
H  H4  1  0.73799861  0.18152932  0.47642972  1  0  0.091791  0  0.937975  0  0  0.089089  0  1.016971  0  0  0.09327  0  1.011351  0  0  0.125749  0.086002  0  1.021061  0
H  H5  1  0.26200507  0.81846363  0.52357089  1  0  0.091822  0  0.937968  0  0  0.089136  0  1.016963  0  0  0.093298  0  1.011407  0  0  0.12576  0.086051  0  1.021055  0
H  H6  1  0.44041833  0.32270538  0.23997051  1  0  0.085479  0  0.943647  0  0  0.088044  0  1.0179  0  0  0.092226  0  1.012297  0  0  0.119362  0.084893  0  1.022048  0
H  H7  1  0.55958354  0.67729681  0.76003153  1  0  0.085456  0  0.943664  0  0  0.088042  0  1.01789  0  0  0.092214  0  1.012303  0  0  0.119387  0.084891  0  1.022034  0
H  H8  1  0.62293897  0.35853706  0.30488199  1  0  0.123317  0  0.948225  0  0  0.12982  0  1.008414  0  0  0.134273  0  1.006085  0  0  0.108214  0.126627  0  1.01033  0
H  H9  1  0.37706500  0.64145866  0.69512410  1  0  0.1233  0  0.948216  0  0  0.129823  0  1.008381  0  0  0.134269  0  1.006072  0  0  0.108233  0.126636  0  1.010294  0
H  H10  1  0.12379076  0.46381694  0.87908575  1  0  0.1288  0  0.977476  0  0  0.128031  0  1.0549  0  0  0.132445  0  1.055592  0  0  0.090108  0.124899  0  1.054637  0
H  H11  1  0.87620794  0.53618431  0.12091521  1  0  0.128776  0  0.977586  0  0  0.128056  0  1.054907  0  0  0.132467  0  1.05561  0  0  0.090114  0.124921  0  1.054642  0
H  H12  1  0.54028304  0.59786165  0.32585576  1  0  0.130875  0  0.989642  0  0  0.129285  0  1.067707  0  0  0.134371  0  1.066565  0  0  0.088929  0.125727  0  1.068591  0
H  H13  1  0.45971549  0.40214053  0.67414237  1  0  0.130918  0  0.989548  0  0  0.12935  0  1.067577  0  0  0.134411  0  1.066522  0  0  0.088971  0.125787  0  1.068468  0
H  H14  1  0.19397323  0.93726449  0.06096787  1  0  0.08788  0  0.911735  0  0  0.095886  0  0.973602  0  0  0.098728  0  0.970424  0  0  0.127719  0.093757  0  0.975901  0
H  H15  1  0.80602584  0.06273492  0.93903215  1  0  0.087902  0  0.91174  0  0  0.09591  0  0.973604  0  0  0.098755  0  0.970426  0  0  0.127723  0.093779  0  0.9759  0
H  H16  1  0.24677103  0.78839420  0.95688600  1  0  0.123158  0  0.9489  0  0  0.125418  0  1.016023  0  0  0.129757  0  1.013953  0  0  0.10701  0.122258  0  1.017772  0
H  H17  1  0.75322906  0.21160428  0.04311432  1  0  0.123166  0  0.948896  0  0  0.125423  0  1.01602  0  0  0.129762  0  1.013951  0  0  0.107024  0.122264  0  1.01777  0
H  H18  1  0.45023508  0.75825310  0.88531999  1  0  0.070444  0  0.949204  0  0  0.077668  0  1.016561  0  0  0.07976  0  1.014112  0  0  0.118363  0.07616  0  1.018271  0
H  H19  1  0.54976417  0.24174538  0.11468038  1  0  0.070445  0  0.949179  0  0  0.077682  0  1.016525  0  0  0.079773  0  1.01408  0  0  0.118363  0.076171  0  1.018238  0
H  H20  1  0.89358985  0.43528777  0.41640994  1  0  0.081656  0  0.938941  0  0  0.08793  0  1.002783  0  0  0.090897  0  0.999325  0  0  0.108528  0.085831  0  1.005192  0
H  H21  1  0.10640904  0.56471256  0.58359055  1  0  0.081637  0  0.938935  0  0  0.08788  0  1.00281  0  0  0.090638  0  0.999613  0  0  0.108526  0.085784  0  1.00522  0
H  H22  1  0.09563360  0.47467515  0.38595493  1  0  0.11551  0  0.951691  0  0  0.120255  0  1.017896  0  0  0.124246  0  1.015934  0  0  0.103891  0.117369  0  1.019525  0
H  H23  1  0.90436648  0.52532333  0.61404620  1  0  0.115631  0  0.951457  0  0  0.120239  0  1.017893  0  0  0.124351  0  1.015734  0  0  0.103894  0.117357  0  1.019519  0
H  H24  1  0.91614506  0.81629826  0.30784442  1  0  0.11416  0  0.977716  0  0  0.11564  0  1.04957  0  0  0.119764  0  1.047467  0  0  0.098567  0.112749  0  1.051141  0
H  H25  1  0.08385586  0.18370023  0.69215584  1  0  0.114437  0  0.977508  0  0  0.115659  0  1.04967  0  0  0.119786  0  1.047567  0  0  0.098565  0.112765  0  1.051246  0
H  H26  1  0.12178878  0.84073798  0.30553895  1  0  0.081809  0  0.966204  0  0  0.085583  0  1.036663  0  0  0.089524  0  1.031971  0  0  0.116767  0.082765  0  1.039889  0
H  H27  1  0.87821142  0.15926421  0.69446072  1  0  0.081808  0  0.966245  0  0  0.0856  0  1.036668  0  0  0.089581  0  1.031874  0  0  0.116756  0.082775  0  1.039898  0
H  H28  1  0.24430373  0.32139798  0.33291546  1  0  0.080279  0  0.927966  0  0  0.086648  0  0.995003  0  0  0.08926  0  0.991937  0  0  0.122794  0.084866  0  0.997007  0
H  H29  1  0.75569516  0.67860236  0.66708091  1  0  0.080237  0  0.928045  0  0  0.086627  0  0.995028  0  0  0.089242  0  0.991963  0  0  0.122781  0.084843  0  0.997029  0
C  C30  1  0.85359614  0.98665981  0.33466011  1  0  0.171702  0  3.705967  0  0  0.142682  0  3.969513  0  0  0.15106  0  3.986079  0  0  0.064416  0.13751  0  3.957888  0
C  C31  1  0.14640227  0.01333867  0.66533866  1  0  0.171659  0  3.705886  0  0  0.142724  0  3.969321  0  0  0.151094  0  3.985883  0  0  0.06448  0.137531  0  3.957697  0
C  C32  1  0.52129026  0.05854881  0.46604998  1  0  0.326435  0  3.72648  0  0  0.306807  0  3.982262  0  0  0.320007  0  3.994871  0  0  0.26835  0.298039  0  3.973669  0
C  C33  1  0.47871150  0.94144969  0.53394940  1  0  0.326162  0  3.726617  0  0  0.306559  0  3.982391  0  0  0.319761  0  3.994996  0  0  0.268292  0.297789  0  3.9738  0
C  C34  1  0.65680271  0.17459183  0.44625753  1  0  0.2023  0  3.668222  0  0  0.168805  0  3.932074  0  0  0.179787  0  3.945491  0  0  0.083558  0.161453  0  3.92337  0
C  C35  1  0.34319995  0.82540204  0.55374361  1  0  0.202166  0  3.66823  0  0  0.168609  0  3.932147  0  0  0.179571  0  3.945602  0  0  0.083501  0.161261  0  3.923452  0
C  C36  1  0.00375678  0.29530877  0.91273145  1  0  0.712972  0  3.599194  0  0  0.640483  0  3.940421  0  0  0.668705  0  3.913581  0  0  0.297542  0.620045  0  3.959983  0
C  C37  1  0.99624450  0.70468786  0.08727198  1  0  0.712244  0  3.6003  0  0  0.640439  0  3.940352  0  0  0.668685  0  3.913471  0  0  0.297495  0.620035  0  3.959895  0
C  C38  1  0.49374611  0.25251238  0.31583548  1  0  0.169413  0  3.694893  0  0  0.135112  0  3.961067  0  0  0.144181  0  3.976855  0  0  0.06803  0.129173  0  3.950574  0
C  C39  1  0.50625528  0.74748796  0.68416402  1  0  0.169524  0  3.694962  0  0  0.135215  0  3.961123  0  0  0.144293  0  3.976916  0  0  0.06807  0.129283  0  3.950626  0
C  C40  1  0.59376753  0.27217482  0.35101313  1  0  -0.149912  0  3.669685  0  0  -0.164814  0  3.92427  0  0  -0.175858  0  3.945137  0  0  -0.073479  -0.157943  0  3.910772  0
C  C41  1  0.40623655  0.72782461  0.64898821  1  0  -0.1499  0  3.66988  0  0  -0.164796  0  3.924463  0  0  -0.175857  0  3.945375  0  0  -0.073511  -0.157932  0  3.910971  0
C  C42  1  0.25337314  0.38657495  0.01793784  1  0  0.289878  0  3.874029  0  0  0.271418  0  4.144558  0  0  0.293459  0  4.151406  0  0  0.113467  0.256929  0  4.139497  0
C  C43  1  0.74662658  0.61342539  0.98206177  1  0  0.289941  0  3.873857  0  0  0.271448  0  4.144434  0  0  0.293489  0  4.151278  0  0  0.113483  0.256959  0  4.139368  0
C  C44  1  0.10850708  0.27792321  0.99191408  1  0  0.294604  0  3.858001  0  0  0.276109  0  4.128215  0  0  0.299053  0  4.132382  0  0  0.117789  0.260934  0  4.125183  0
C  C45  1  0.89149264  0.72207711  0.00808800  1  0  0.294777  0  3.857965  0  0  0.276324  0  4.128058  0  0  0.299262  0  4.132218  0  0  0.11786  0.261128  0  4.125047  0
C  C46  1  0.15878779  0.38248761  0.95803201  1  0  -0.366752  0  3.769819  0  0  -0.416439  0  4.056503  0  0  -0.440088  0  4.077638  0  0  -0.162104  -0.400744  0  4.042032  0
C  C47  1  0.84121360  0.61751272  0.04197161  1  0  -0.366964  0  3.770026  0  0  -0.416543  0  4.056505  0  0  -0.440191  0  4.077655  0  0  -0.162134  -0.400836  0  4.042032  0
C  C48  1  0.37468941  0.71348548  0.31633798  1  0  0.279751  0  3.893145  0  0  0.261377  0  4.16246  0  0  0.282233  0  4.171182  0  0  0.110901  0.247693  0  4.156157  0
C  C49  1  0.62531061  0.28651763  0.68366135  1  0  0.279858  0  3.892894  0  0  0.261364  0  4.162387  0  0  0.282466  0  4.170618  0  0  0.110854  0.247681  0  4.156074  0
C  C50  1  0.45860488  0.96404165  0.99382128  1  0  0.314842  0  3.739817  0  0  0.298054  0  3.992833  0  0  0.309837  0  4.007374  0  0  0.266979  0.290187  0  3.982916  0
C  C51  1  0.54139400  0.03595868  0.00617838  1  0  0.314949  0  3.739718  0  0  0.298087  0  3.992805  0  0  0.309869  0  4.007349  0  0  0.266987  0.290211  0  3.982895  0
C  C52  1  0.49459280  0.68954028  0.31602969  1  0  -0.36857  0  3.77928  0  0  -0.415965  0  4.059071  0  0  -0.439709  0  4.081409  0  0  -0.163756  -0.400137  0  4.043688  0
C  C53  1  0.50540572  0.31046190  0.68396762  1  0  -0.368642  0  3.779115  0  0  -0.41599  0  4.058908  0  0  -0.439729  0  4.081213  0  0  -0.163769  -0.400166  0  4.043529  0
C  C54  1  0.55892976  0.77866352  0.30570094  1  0  0.288062  0  3.868664  0  0  0.272615  0  4.137159  0  0  0.294813  0  4.142162  0  0  0.114013  0.258016  0  4.133455  0
C  C55  1  0.44107080  0.22133682  0.69429862  1  0  0.288025  0  3.868757  0  0  0.272559  0  4.137266  0  0  0.294751  0  4.142281  0  0  0.113961  0.257966  0  4.133563  0
C  C56  1  0.02021938  0.19864726  0.35635275  1  0  0.309098  0  3.732891  0  0  0.292929  0  3.987693  0  0  0.304405  0  4.002584  0  0  0.257512  0.285251  0  3.977585  0
C  C57  1  0.97977950  0.80135307  0.64364609  1  0  0.309018  0  3.732839  0  0  0.292797  0  3.987677  0  0  0.304271  0  4.002562  0  0  0.257478  0.285118  0  3.977579  0
C  C58  1  0.99079131  0.08931067  0.34360280  1  0  0.306478  0  3.734942  0  0  0.290799  0  3.991308  0  0  0.302355  0  4.005629  0  0  0.256782  0.283026  0  3.981561  0
C  C59  1  0.00920722  0.91069151  0.65639533  1  0  0.306446  0  3.73498  0  0  0.290845  0  3.991255  0  0  0.302401  0  4.005575  0  0  0.256804  0.283065  0  3.981518  0
C  C60  1  0.27903032  0.92049019  0.02501977  1  0  0.192266  0  3.675179  0  0  0.157013  0  3.93915  0  0  0.166244  0  3.955011  0  0  0.078639  0.151126  0  3.928307  0
C  C61  1  0.72096994  0.07950736  0.97498089  1  0  0.192144  0  3.675184  0  0  0.156889  0  3.939156  0  0  0.166119  0  3.955029  0  0  0.078577  0.151006  0  3.928311  0
C  C62  1  0.30763758  0.83906158  0.96761162  1  0  -0.158415  0  3.682366  0  0  -0.172752  0  3.939915  0  0  -0.183406  0  3.961406  0  0  -0.074837  -0.166047  0  3.925746  0
C  C63  1  0.69236232  0.16093782  0.03238998  1  0  -0.15836  0  3.682291  0  0  -0.172683  0  3.939826  0  0  -0.183336  0  3.961325  0  0  -0.074811  -0.165979  0  3.92566  0
C  C64  1  0.41924356  0.82379666  0.92708511  1  0  0.187768  0  3.686926  0  0  0.155756  0  3.945119  0  0  0.164893  0  3.961771  0  0  0.076686  0.14997  0  3.933646  0
C  C65  1  0.58075652  0.17620183  0.07291438  1  0  0.187785  0  3.686794  0  0  0.155758  0  3.944985  0  0  0.164895  0  3.96164  0  0  0.076692  0.149974  0  3.933513  0
C  C66  1  0.31576203  0.60418662  0.33739730  1  0  0.708477  0  3.618879  0  0  0.63348  0  3.963342  0  0  0.66261  0  3.935124  0  0  0.296068  0.612772  0  3.983285  0
C  C67  1  0.68423697  0.39581742  0.66260172  1  0  0.7085  0  3.618765  0  0  0.633584  0  3.963157  0  0  0.663144  0  3.934013  0  0  0.296122  0.61288  0  3.983093  0
C  C68  1  0.96300941  0.37281158  0.39455176  1  0  0.157584  0  3.712638  0  0  0.13065  0  3.973105  0  0  0.138367  0  3.989853  0  0  0.059078  0.125932  0  3.961332  0
C  C69  1  0.03698948  0.62718875  0.60544790  1  0  0.157621  0  3.71257  0  0  0.130652  0  3.973202  0  0  0.138274  0  3.990265  0  0  0.059041  0.125929  0  3.961442  0
C  C70  1  0.07389661  0.39486942  0.37798691  1  0  -0.161348  0  3.709797  0  0  -0.177381  0  3.966573  0  0  -0.187294  0  3.987949  0  0  -0.082605  -0.170992  0  3.952156  0
C  C71  1  0.92610293  0.60513184  0.62201235  1  0  -0.161098  0  3.70946  0  0  -0.17734  0  3.966667  0  0  -0.187222  0  3.987901  0  0  -0.082566  -0.170959  0  3.952255  0
C  C72  1  0.93727472  0.89477087  0.31867166  1  0  -0.168148  0  3.71272  0  0  -0.183709  0  3.968343  0  0  -0.194341  0  3.99119  0  0  -0.085276  -0.176846  0  3.952806  0
C  C73  1  0.06272482  0.10523038  0.68132842  1  0  -0.168146  0  3.712598  0  0  -0.183706  0  3.968361  0  0  -0.194342  0  3.991214  0  0  -0.085272  -0.176847  0  3.952832  0
C  C74  1  0.05019853  0.90829643  0.31690973  1  0  0.176125  0  3.685983  0  0  0.146252  0  3.941625  0  0  0.15448  0  3.957743  0  0  0.069185  0.141109  0  3.930349  0
C  C75  1  0.94980017  0.09170482  0.68308958  1  0  0.176039  0  3.68606  0  0  0.146159  0  3.941675  0  0  0.154403  0  3.957766  0  0  0.069124  0.141025  0  3.930386  0
C  C76  1  0.69077633  0.73597362  0.30893970  1  0  0.710262  0  3.608106  0  0  0.634264  0  3.953794  0  0  0.663583  0  3.924801  0  0  0.295909  0.613266  0  3.974536  0
C  C77  1  0.30922322  0.26402764  0.69105956  1  0  0.71013  0  3.608433  0  0  0.634082  0  3.954255  0  0  0.66336  0  3.925373  0  0  0.295806  0.613052  0  3.975044  0
C  C78  1  0.15568580  0.31033059  0.34887309  1  0  0.189363  0  3.688286  0  0  0.157323  0  3.947527  0  0  0.166512  0  3.963555  0  0  0.075866  0.1516  0  3.936152  0
C  C79  1  0.84431309  0.68966975  0.65112410  1  0  0.189267  0  3.688487  0  0  0.15732  0  3.947612  0  0  0.166517  0  3.963637  0  0  0.075852  0.151603  0  3.936227  0
C  C80  1  0.30753324  0.50201576  0.95794770  1  0  0.705648  0  3.617595  0  0  0.632594  0  3.96006  0  0  0.661315  0  3.932688  0  0  0.295596  0.612241  0  3.97926  0
C  C81  1  0.69246732  0.49798458  0.04205185  1  0  0.705641  0  3.617574  0  0  0.632547  0  3.960105  0  0  0.661265  0  3.932734  0  0  0.295577  0.612187  0  3.979311  0
N  N82  1  0.45744379  0.14545574  0.37177290  1  0  -0.399698  0  3.072394  0  0  -0.348218  0  3.332192  0  0  -0.365381  0  3.347682  0  0  -0.335845  -0.336816  0  3.321784  0
N  N83  1  0.54255695  0.85454367  0.62822783  1  0  -0.399685  0  3.07243  0  0  -0.348219  0  3.332227  0  0  -0.36538  0  3.347711  0  0  -0.335857  -0.33681  0  3.321811  0
N  N84  1  0.62023028  0.06831527  0.50445257  1  0  -0.402829  0  3.10191  0  0  -0.350676  0  3.361746  0  0  -0.367665  0  3.375835  0  0  -0.343866  -0.339298  0  3.352244  0
N  N85  1  0.37976951  0.93168043  0.49554638  1  0  -0.402641  0  3.101759  0  0  -0.35046  0  3.361587  0  0  -0.36745  0  3.375679  0  0  -0.343793  -0.339083  0  3.352091  0
N  N86  1  0.35469463  0.98110004  0.04055779  1  0  -0.391006  0  3.107351  0  0  -0.339892  0  3.365408  0  0  -0.356602  0  3.381612  0  0  -0.337079  -0.328608  0  3.354314  0
N  N87  1  0.64530444  0.01889937  0.95944222  1  0  -0.390996  0  3.10737  0  0  -0.339861  0  3.365443  0  0  -0.356572  0  3.381654  0  0  -0.33704  -0.328578  0  3.354352  0
N  N88  1  0.07807239  0.00507171  0.32929649  1  0  -0.38654  0  3.075319  0  0  -0.335118  0  3.331768  0  0  -0.351471  0  3.347875  0  0  -0.327218  -0.323705  0  3.320423  0
N  N89  1  0.92192530  0.99493046  0.67070088  1  0  -0.386495  0  3.075366  0  0  -0.335091  0  3.331805  0  0  -0.351443  0  3.347916  0  0  -0.327166  -0.323672  0  3.320446  0
N  N90  1  0.12995136  0.21190630  0.33824304  1  0  -0.396102  0  3.091385  0  0  -0.341896  0  3.34481  0  0  -0.358751  0  3.361493  0  0  -0.329084  -0.330393  0  3.333202  0
N  N91  1  0.87004735  0.78809496  0.66175462  1  0  -0.396087  0  3.09139  0  0  -0.341831  0  3.344757  0  0  -0.358685  0  3.361438  0  0  -0.329063  -0.330326  0  3.333145  0
N  N92  1  0.49442632  0.88754685  0.93717890  1  0  -0.378547  0  3.081035  0  0  -0.330077  0  3.337013  0  0  -0.34636  0  3.353245  0  0  -0.31851  -0.319043  0  3.325833  0
N  N93  1  0.50557293  0.11245163  0.06282064  1  0  -0.378568  0  3.080918  0  0  -0.330076  0  3.336917  0  0  -0.346358  0  3.353149  0  0  -0.318514  -0.319044  0  3.325734  0
N  N94  1  0.93519683  0.27518294  0.38413944  1  0  -0.340273  0  3.009433  0  0  -0.310402  0  3.273728  0  0  -0.323288  0  3.286985  0  0  -0.3008  -0.301676  0  3.26437  0
N  N95  1  0.06480188  0.72481831  0.61585822  1  0  -0.340243  0  3.00941  0  0  -0.310298  0  3.273665  0  0  -0.323216  0  3.287025  0  0  -0.300768  -0.30157  0  3.264316  0
N  N96  1  0.87958875  0.08403105  0.34704623  1  0  -0.344568  0  3.032595  0  0  -0.313253  0  3.298413  0  0  -0.327566  0  3.313143  0  0  -0.296915  -0.303259  0  3.288108  0
N  N97  1  0.12040828  0.91597019  0.65295236  1  0  -0.344533  0  3.03256  0  0  -0.313225  0  3.298317  0  0  -0.327537  0  3.313048  0  0  -0.296962  -0.303236  0  3.288032  0
O  O98  1  0.30571207  0.81284881  0.30342420  1  0  -0.523905  0  2.060547  0  0  -0.479772  0  2.296835  0  0  -0.503368  0  2.295027  0  0  -0.323027  -0.463476  0  2.297656  0
O  O99  1  0.69428896  0.18715338  0.69657707  1  0  -0.523939  0  2.060484  0  0  -0.479745  0  2.296827  0  0  -0.503212  0  2.294684  0  0  -0.322987  -0.463449  0  2.297643  0
O  O100  1  0.30527008  0.30699896  0.11262866  1  0  -0.532227  0  2.036808  0  0  -0.489929  0  2.276945  0  0  -0.513448  0  2.2731  0  0  -0.340313  -0.473559  0  2.279051  0
O  O101  1  0.69473132  0.69300139  0.88737084  1  0  -0.532204  0  2.03678  0  0  -0.489947  0  2.276957  0  0  -0.513461  0  2.273107  0  0  -0.340321  -0.47358  0  2.279061  0
O  O102  1  0.13591189  0.17385650  0.07586110  1  0  -0.502886  0  2.037808  0  0  -0.465006  0  2.269113  0  0  -0.485502  0  2.264716  0  0  -0.331803  -0.450855  0  2.271841  0
O  O103  1  0.86409154  0.82614200  0.92414229  1  0  -0.502851  0  2.037659  0  0  -0.465112  0  2.26903  0  0  -0.485609  0  2.264636  0  0  -0.331819  -0.450939  0  2.271727  0
O  O104  1  0.52562154  0.88847081  0.29542782  1  0  -0.500443  0  2.008132  0  0  -0.469283  0  2.239715  0  0  -0.489726  0  2.237519  0  0  -0.31436  -0.455096  0  2.240986  0
O  O105  1  0.47437884  0.11153046  0.70457220  1  0  -0.500411  0  2.008118  0  0  -0.469239  0  2.239684  0  0  -0.48968  0  2.23749  0  0  -0.314345  -0.455056  0  2.240952  0
F  F106  1  0.73748318  0.81738582  0.21338353  1  0  -0.252154  0  1.178754  0  0  -0.206393  0  1.338446  0  0  -0.216462  0  1.324491  0  0  -0.095756  -0.199081  0  1.348139  0
F  F107  1  0.26251571  0.18261451  0.78661366  1  0  -0.252113  0  1.178784  0  0  -0.206357  0  1.33855  0  0  -0.216426  0  1.324605  0  0  -0.095735  -0.199035  0  1.348256  0
F  F108  1  0.02963164  0.33088155  0.79344048  1  0  -0.27019  0  1.166292  0  0  -0.228039  0  1.331016  0  0  -0.237606  0  1.315443  0  0  -0.106456  -0.221005  0  1.341876  0
F  F109  1  0.97037161  0.66911787  0.20656338  1  0  -0.269572  0  1.166509  0  0  -0.227991  0  1.331128  0  0  -0.237568  0  1.315556  0  0  -0.106443  -0.22097  0  1.341982  0
F  F110  1  0.91531668  0.38471777  0.92059176  1  0  -0.260489  0  1.158605  0  0  -0.221242  0  1.321118  0  0  -0.231171  0  1.306176  0  0  -0.109193  -0.213929  0  1.331528  0
F  F111  1  0.08468215  0.61527420  0.07941364  1  0  -0.260587  0  1.158925  0  0  -0.221283  0  1.321111  0  0  -0.23122  0  1.306162  0  0  -0.109197  -0.213979  0  1.331519  0
F  F112  1  0.34151166  0.53891433  0.04047154  1  0  -0.244093  0  1.162604  0  0  -0.215241  0  1.337569  0  0  -0.22381  0  1.320542  0  0  -0.104377  -0.208832  0  1.349117  0
F  F113  1  0.65848806  0.46108600  0.95952889  1  0  -0.244107  0  1.162614  0  0  -0.21524  0  1.337584  0  0  -0.223809  0  1.320557  0  0  -0.104374  -0.20883  0  1.349132  0
F  F114  1  0.96364674  0.18936866  0.94558999  1  0  -0.245188  0  1.159893  0  0  -0.20745  0  1.320097  0  0  -0.216868  0  1.304864  0  0  -0.098116  -0.200774  0  1.330983  0
F  F115  1  0.03635909  0.81062616  0.05440976  1  0  -0.245205  0  1.160057  0  0  -0.207457  0  1.319983  0  0  -0.216884  0  1.304747  0  0  -0.098104  -0.200795  0  1.330866  0
F  F116  1  0.73698368  0.73347388  0.41055048  1  0  -0.266236  0  1.156465  0  0  -0.226055  0  1.323138  0  0  -0.236654  0  1.30866  0  0  -0.104246  -0.218538  0  1.333257  0
F  F117  1  0.26301598  0.26653109  0.58944732  1  0  -0.266232  0  1.156536  0  0  -0.226  0  1.323217  0  0  -0.236648  0  1.308867  0  0  -0.104199  -0.218495  0  1.333366  0
F  F118  1  0.72847549  0.62146789  0.30738500  1  0  -0.252396  0  1.176264  0  0  -0.213518  0  1.344597  0  0  -0.222821  0  1.328327  0  0  -0.099368  -0.206595  0  1.355765  0
F  F119  1  0.27152357  0.37853150  0.69261831  1  0  -0.252314  0  1.176335  0  0  -0.213444  0  1.344725  0  0  -0.222925  0  1.328608  0  0  -0.099348  -0.206506  0  1.355903  0
F  F120  1  0.23836542  0.60254023  0.87556023  1  0  -0.253408  0  1.164234  0  0  -0.210868  0  1.325473  0  0  -0.219933  0  1.309841  0  0  -0.099942  -0.204254  0  1.33624  0
F  F121  1  0.76163431  0.39746010  0.12443938  1  0  -0.253394  0  1.16426  0  0  -0.210859  0  1.325501  0  0  -0.219923  0  1.309867  0  0  -0.099939  -0.204246  0  1.336269  0
F  F122  1  0.25975850  0.57467796  0.44429754  1  0  -0.264249  0  1.150597  0  0  -0.223488  0  1.312018  0  0  -0.232553  0  1.294768  0  0  -0.106023  -0.21685  0  1.323921  0
F  F123  1  0.74023985  0.42532515  0.55570024  1  0  -0.264267  0  1.150619  0  0  -0.223499  0  1.312011  0  0  -0.234936  0  1.297566  0  0  -0.106032  -0.216865  0  1.323915  0
F  F124  1  0.40427122  0.47358206  0.89860690  1  0  -0.267756  0  1.127285  0  0  -0.225869  0  1.285488  0  0  -0.236766  0  1.270909  0  0  -0.109948  -0.218431  0  1.295863  0
F  F125  1  0.59572999  0.52641921  0.10139308  1  0  -0.267712  0  1.127246  0  0  -0.225833  0  1.28547  0  0  -0.236729  0  1.270889  0  0  -0.109937  -0.218391  0  1.295844  0
F  F126  1  0.23502316  0.63518414  0.25013295  1  0  -0.253161  0  1.171975  0  0  -0.217825  0  1.340558  0  0  -0.227408  0  1.324307  0  0  -0.104162  -0.211385  0  1.352243  0
F  F127  1  0.76497584  0.36481990  0.74986525  1  0  -0.253157  0  1.171923  0  0  -0.217835  0  1.340523  0  0  -0.227135  0  1.324119  0  0  -0.104164  -0.211402  0  1.352208  0
F  F128  1  0.38775355  0.49796732  0.34181856  1  0  -0.256196  0  1.170822  0  0  -0.212318  0  1.334978  0  0  -0.222253  0  1.319483  0  0  -0.099602  -0.205073  0  1.345598  0
F  F129  1  0.61224611  0.50203765  0.65817923  1  0  -0.256262  0  1.170756  0  0  -0.212395  0  1.334895  0  0  -0.222021  0  1.319235  0  0  -0.099642  -0.205156  0  1.345516  0
