# generated using pymatgen
data_LaH9C7(N2O)5
_symmetry_space_group_name_H-M   'P 1'
_cell_length_a   8.97468115
_cell_length_b   10.10413858
_cell_length_c   10.10415474
_cell_angle_alpha   78.08143937
_cell_angle_beta   63.63089333
_cell_angle_gamma   63.63122202
_symmetry_Int_Tables_number   1
_chemical_formula_structural   LaH9C7(N2O)5
_chemical_formula_sum   'La2 H18 C14 N20 O10'
_cell_volume   735.46087585
_cell_formula_units_Z   2
loop_
 _symmetry_equiv_pos_site_id
 _symmetry_equiv_pos_as_xyz
  1  'x, y, z'
loop_
 _atom_site_type_symbol
 _atom_site_label
 _atom_site_symmetry_multiplicity
 _atom_site_fract_x
 _atom_site_fract_y
 _atom_site_fract_z
 _atom_site_occupancy
 _atom_site_hle17_bader_spin_density
 _atom_site_hle17_ddec_charge
 _atom_site_hle17_ddec_spin_density
 _atom_site_hle17_ddec_sum_bond_order
 _atom_site_hle17_magmom
 _atom_site_hse06_10hf_bader_spin_density
 _atom_site_hse06_10hf_ddec_charge
 _atom_site_hse06_10hf_ddec_spin_density
 _atom_site_hse06_10hf_ddec_sum_bond_order
 _atom_site_hse06_10hf_magmom
 _atom_site_hse06_bader_spin_density
 _atom_site_hse06_ddec_charge
 _atom_site_hse06_ddec_spin_density
 _atom_site_hse06_ddec_sum_bond_order
 _atom_site_hse06_magmom
 _atom_site_pbe_bader_spin_density
 _atom_site_pbe_cm5_charge
 _atom_site_pbe_ddec_charge
 _atom_site_pbe_ddec_spin_density
 _atom_site_pbe_ddec_sum_bond_order
 _atom_site_pbe_magmom
La  La0  1  0.24999819  0.54034960  0.95964880  1  0  2.018838  0  1.907402  0  0  1.854795  0  2.453503  0  0  1.949896  0  2.36341  0  0  1.434793  1.784274  0  2.515814  0
La  La1  1  0.75000680  0.95963625  0.54035935  1  0  2.021693  0  1.905568  0  0  1.858186  0  2.450947  0  0  1.95296  0  2.361174  0  0  1.435726  1.787683  0  2.513264  0
H  H2  1  0.42875093  0.34084587  0.60483340  1  0  0.087993  0  0.962271  0  0  0.094005  0  1.02951  0  0  0.097112  0  1.026212  0  0  0.128131  0.091664  0  1.031942  0
H  H3  1  0.07122965  0.89517037  0.15915552  1  0  0.088032  0  0.962108  0  0  0.094067  0  1.029325  0  0  0.097175  0  1.026026  0  0  0.128148  0.091722  0  1.031753  0
H  H4  1  0.37531427  0.15893451  0.89501719  1  0  0.087917  0  0.963644  0  0  0.093965  0  1.031024  0  0  0.097058  0  1.027718  0  0  0.128592  0.091654  0  1.033253  0
H  H5  1  0.12468295  0.60499189  0.34106208  1  0  0.087936  0  0.963594  0  0  0.093979  0  1.030981  0  0  0.097073  0  1.027675  0  0  0.128615  0.091668  0  1.033211  0
H  H6  1  0.37870121  0.37067722  0.37080940  1  0  0.112853  0  0.962378  0  0  0.118293  0  1.02948  0  0  0.123117  0  1.026276  0  0  0.110548  0.114772  0  1.03222  0
H  H7  1  0.12128529  0.12918929  0.12932647  1  0  0.112892  0  0.962412  0  0  0.118304  0  1.029561  0  0  0.123127  0  1.026359  0  0  0.110569  0.114782  0  1.032302  0
H  H8  1  0.35338023  0.23627320  0.17147816  1  0  0.444348  0  0.795876  0  0  0.428487  0  0.847513  0  0  0.437208  0  0.836828  0  0  0.342489  0.421954  0  0.854906  0
H  H9  1  0.14663085  0.32850741  0.26371408  1  0  0.444377  0  0.795834  0  0  0.428529  0  0.847432  0  0  0.437246  0  0.836765  0  0  0.342532  0.422002  0  0.854814  0
H  H10  1  0.76111895  0.26371737  0.32854584  1  0  0.445055  0  0.795209  0  0  0.42901  0  0.84717  0  0  0.437771  0  0.836163  0  0  0.342328  0.422546  0  0.854445  0
H  H11  1  0.73881346  0.17150441  0.23631861  1  0  0.445164  0  0.795081  0  0  0.429128  0  0.847034  0  0  0.437891  0  0.836007  0  0  0.342403  0.422658  0  0.854319  0
H  H12  1  0.48876759  0.57622247  0.10629956  1  0  0.394059  0  0.921958  0  0  0.350285  0  1.007349  0  0  0.362182  0  0.990359  0  0  0.283755  0.341798  0  1.01942  0
H  H13  1  0.01122976  0.39369988  0.92377336  1  0  0.394059  0  0.921951  0  0  0.350284  0  1.007353  0  0  0.362183  0  0.990361  0  0  0.283738  0.341799  0  1.019422  0
H  H14  1  0.17125337  0.92373402  0.39375699  1  0  0.396617  0  0.918737  0  0  0.352915  0  1.003789  0  0  0.364825  0  0.986766  0  0  0.285242  0.344416  0  1.015898  0
H  H15  1  0.32875566  0.10624438  0.57625846  1  0  0.396643  0  0.918687  0  0  0.352946  0  1.003737  0  0  0.364858  0  0.98671  0  0  0.285264  0.344448  0  1.015846  0
H  H16  1  0.61286575  0.44337345  0.98546084  1  0  0.393388  0  0.923536  0  0  0.350203  0  1.007413  0  0  0.362894  0  0.989097  0  0  0.281307  0.341157  0  1.020412  0
H  H17  1  0.88713131  0.51453699  0.05662503  1  0  0.393465  0  0.923473  0  0  0.350277  0  1.00735  0  0  0.36297  0  0.989032  0  0  0.28134  0.341232  0  1.020348  0
H  H18  1  0.04170774  0.05659941  0.51453666  1  0  0.395118  0  0.921106  0  0  0.352062  0  1.004735  0  0  0.364696  0  0.986496  0  0  0.282593  0.343038  0  1.017723  0
H  H19  1  0.45830301  0.98546243  0.44339696  1  0  0.39512  0  0.921118  0  0  0.352077  0  1.004721  0  0  0.364712  0  0.986493  0  0  0.282601  0.34305  0  1.017711  0
C  C20  1  0.97452066  0.77564640  0.77551829  1  0  0.219324  0  3.854416  0  0  0.195452  0  4.120485  0  0  0.204275  0  4.138157  0  0  0.224077  0.189406  0  4.108313  0
C  C21  1  0.52547714  0.72448187  0.72436074  1  0  0.219271  0  3.854387  0  0  0.195431  0  4.120413  0  0  0.204253  0  4.138085  0  0  0.224048  0.189383  0  4.10824  0
C  C22  1  0.08717554  0.66285663  0.66276944  1  0  0.342998  0  3.783672  0  0  0.32847  0  4.034063  0  0  0.344248  0  4.046084  0  0  0.265377  0.317679  0  4.026023  0
C  C23  1  0.41282104  0.83723282  0.83714842  1  0  0.342984  0  3.783725  0  0  0.328481  0  4.034066  0  0  0.344258  0  4.046089  0  0  0.26536  0.317689  0  4.026026  0
C  C24  1  0.32196245  0.43838564  0.58391997  1  0  0.198292  0  3.658509  0  0  0.160738  0  3.925301  0  0  0.172464  0  3.93916  0  0  0.077784  0.153006  0  3.915978  0
C  C25  1  0.17803839  0.91608115  0.06161213  1  0  0.198195  0  3.657973  0  0  0.160634  0  3.924785  0  0  0.17236  0  3.938647  0  0  0.077754  0.152908  0  3.915456  0
C  C26  1  0.34490495  0.06151609  0.91597391  1  0  0.197633  0  3.657385  0  0  0.159596  0  3.924727  0  0  0.171367  0  3.93855  0  0  0.078085  0.151906  0  3.915196  0
C  C27  1  0.15509662  0.58403284  0.43848321  1  0  0.197601  0  3.657267  0  0  0.159559  0  3.92462  0  0  0.171329  0  3.938444  0  0  0.078026  0.151869  0  3.915088  0
C  C28  1  0.29445538  0.45518844  0.45521331  1  0  -0.165409  0  3.68776  0  0  -0.180882  0  3.948292  0  0  -0.191746  0  3.967258  0  0  -0.075608  -0.174069  0  3.935997  0
C  C29  1  0.20554748  0.04479083  0.04481680  1  0  -0.165389  0  3.687741  0  0  -0.180859  0  3.94829  0  0  -0.191722  0  3.967253  0  0  -0.075627  -0.174047  0  3.935995  0
C  C30  1  0.81587900  0.24990779  0.74991405  1  0  0.13592  0  3.792844  0  0  0.112485  0  4.076112  0  0  0.113478  0  4.09194  0  0  0.208158  0.111629  0  4.065733  0
C  C31  1  0.68412464  0.75007697  0.25009410  1  0  0.135846  0  3.792979  0  0  0.112377  0  4.076319  0  0  0.113375  0  4.092143  0  0  0.20805  0.111515  0  4.065951  0
C  C32  1  0.65071456  0.24996948  0.74988777  1  0  0.68503  0  3.911234  0  0  0.625759  0  4.228507  0  0  0.664499  0  4.214494  0  0  0.25203  0.598911  0  4.237588  0
C  C33  1  0.84928830  0.75010609  0.25003025  1  0  0.685101  0  3.911231  0  0  0.625819  0  4.228518  0  0  0.664558  0  4.214505  0  0  0.252064  0.598972  0  4.237602  0
N  N34  1  0.00756826  0.77737938  0.89193631  1  0  -0.378859  0  3.151424  0  0  -0.339477  0  3.442729  0  0  -0.360102  0  3.463346  0  0  -0.292242  -0.324774  0  3.42814  0
N  N35  1  0.49242670  0.60806491  0.72262040  1  0  -0.378826  0  3.151426  0  0  -0.339455  0  3.442721  0  0  -0.360078  0  3.463335  0  0  -0.292212  -0.324753  0  3.428129  0
N  N36  1  0.67675691  0.72261821  0.60794021  1  0  -0.380038  0  3.15009  0  0  -0.340617  0  3.441281  0  0  -0.36121  0  3.461859  0  0  -0.291505  -0.325816  0  3.426552  0
N  N37  1  0.82324705  0.89206499  0.77737907  1  0  -0.380048  0  3.150083  0  0  -0.340612  0  3.441285  0  0  -0.361204  0  3.461862  0  0  -0.291544  -0.325811  0  3.426556  0
N  N38  1  0.87204165  0.89952566  0.96748714  1  0  -0.067172  0  2.954931  0  0  -0.062778  0  3.262983  0  0  -0.061843  0  3.275548  0  0  -0.088279  -0.063386  0  3.254395  0
N  N39  1  0.62795428  0.53251662  0.60047279  1  0  -0.067179  0  2.954997  0  0  -0.06279  0  3.263071  0  0  -0.061853  0  3.275633  0  0  -0.08827  -0.063399  0  3.254483  0
N  N40  1  0.73889881  0.60039848  0.53251553  1  0  -0.068244  0  2.955978  0  0  -0.06428  0  3.264542  0  0  -0.06328  0  3.277025  0  0  -0.0918  -0.064941  0  3.25601  0
N  N41  1  0.76110196  0.96748693  0.89960204  1  0  -0.06825  0  2.955877  0  0  -0.064286  0  3.264437  0  0  -0.063286  0  3.276921  0  0  -0.091767  -0.064946  0  3.255906  0
N  N42  1  0.21833691  0.54217741  0.68877481  1  0  -0.413551  0  3.119235  0  0  -0.366586  0  3.384576  0  0  -0.388334  0  3.400675  0  0  -0.327068  -0.351861  0  3.373457  0
N  N43  1  0.28166359  0.81121601  0.95781771  1  0  -0.413544  0  3.118995  0  0  -0.366578  0  3.384302  0  0  -0.388326  0  3.400403  0  0  -0.327072  -0.351854  0  3.373181  0
N  N44  1  0.44957142  0.95778236  0.81106704  1  0  -0.413239  0  3.118454  0  0  -0.366225  0  3.383878  0  0  -0.387967  0  3.399901  0  0  -0.327166  -0.351002  0  3.372217  0
N  N45  1  0.05042556  0.68893881  0.54221972  1  0  -0.413241  0  3.118489  0  0  -0.366213  0  3.383931  0  0  -0.387959  0  3.399959  0  0  -0.32715  -0.350991  0  3.372269  0
N  N46  1  0.81580959  0.32433894  0.84621953  1  0  -0.260787  0  3.031292  0  0  -0.225508  0  3.2951  0  0  -0.23436  0  3.307878  0  0  -0.197986  -0.219211  0  3.286435  0
N  N47  1  0.68419049  0.65377016  0.17566544  1  0  -0.26091  0  3.031531  0  0  -0.225637  0  3.295349  0  0  -0.23449  0  3.308126  0  0  -0.198072  -0.219338  0  3.286686  0
N  N48  1  0.98658946  0.17548619  0.65369275  1  0  -0.259963  0  3.031886  0  0  -0.224643  0  3.295624  0  0  -0.233476  0  3.308409  0  0  -0.197121  -0.21842  0  3.287023  0
N  N49  1  0.51341364  0.84629786  0.32451759  1  0  -0.259933  0  3.031811  0  0  -0.224604  0  3.295546  0  0  -0.233432  0  3.308341  0  0  -0.19708  -0.218378  0  3.286945  0
N  N50  1  0.99022376  0.29499674  0.80773745  1  0  -0.098767  0  3.034164  0  0  -0.074257  0  3.317713  0  0  -0.078015  0  3.331286  0  0  -0.086752  -0.071214  0  3.308206  0
N  N51  1  0.50977479  0.69225361  0.20500906  1  0  -0.098482  0  3.034422  0  0  -0.073953  0  3.317916  0  0  -0.077711  0  3.331493  0  0  -0.086475  -0.07091  0  3.308408  0
N  N52  1  0.09308845  0.20481529  0.69230940  1  0  -0.099749  0  3.034597  0  0  -0.07524  0  3.318086  0  0  -0.078953  0  3.331621  0  0  -0.087644  -0.072517  0  3.308793  0
N  N53  1  0.40691512  0.80767953  0.29518838  1  0  -0.099897  0  3.035038  0  0  -0.075401  0  3.318541  0  0  -0.079115  0  3.332077  0  0  -0.087788  -0.072677  0  3.309247  0
O  O54  1  0.49901646  0.31493899  0.85400223  1  0  -0.671734  0  2.066468  0  0  -0.619312  0  2.335074  0  0  -0.653218  0  2.323489  0  0  -0.399109  -0.594654  0  2.341801  0
O  O55  1  0.00098763  0.64599283  0.18506112  1  0  -0.671794  0  2.066532  0  0  -0.619349  0  2.335136  0  0  -0.653254  0  2.32355  0  0  -0.399136  -0.594693  0  2.341867  0
O  O56  1  0.66803874  0.18507414  0.64578927  1  0  -0.672641  0  2.070315  0  0  -0.620142  0  2.339001  0  0  -0.653968  0  2.327433  0  0  -0.398164  -0.595694  0  2.345547  0
O  O57  1  0.83196013  0.85420653  0.31492761  1  0  -0.672579  0  2.070175  0  0  -0.620094  0  2.338887  0  0  -0.653921  0  2.327317  0  0  -0.398149  -0.59564  0  2.345425  0
O  O58  1  0.25000715  0.32745490  0.17254153  1  0  -0.822596  0  1.81424  0  0  -0.775752  0  1.99819  0  0  -0.796616  0  1.970966  0  0  -0.579063  -0.760902  0  2.015951  0
O  O59  1  0.75004511  0.17252008  0.32745773  1  0  -0.824459  0  1.812931  0  0  -0.777545  0  1.996377  0  0  -0.798362  0  1.968796  0  0  -0.578926  -0.762608  0  2.013976  0
O  O60  1  0.48602156  0.50397327  0.05406250  1  0  -0.889392  0  1.926397  0  0  -0.833459  0  2.140777  0  0  -0.859989  0  2.105598  0  0  -0.641786  -0.813699  0  2.164991  0
O  O61  1  0.01397436  0.44594090  0.99602214  1  0  -0.889448  0  1.926353  0  0  -0.833499  0  2.140691  0  0  -0.860034  0  2.105503  0  0  -0.641799  -0.81374  0  2.164905  0
O  O62  1  0.04403407  0.99605627  0.44591050  1  0  -0.893782  0  1.922195  0  0  -0.838251  0  2.137592  0  0  -0.864758  0  2.102418  0  0  -0.644569  -0.818593  0  2.162066  0
O  O63  1  0.45597638  0.05409592  0.50393627  1  0  -0.893863  0  1.92221  0  0  -0.838311  0  2.137536  0  0  -0.864833  0  2.102331  0  0  -0.644597  -0.818652  0  2.162018  0
