# generated using pymatgen
data_Zn3P3H18C18N7O9
_symmetry_space_group_name_H-M   'P 1'
_cell_length_a   8.53327005
_cell_length_b   15.50945703
_cell_length_c   15.71590335
_cell_angle_alpha   60.98646469
_cell_angle_beta   77.37430214
_cell_angle_gamma   88.94237730
_symmetry_Int_Tables_number   1
_chemical_formula_structural   Zn3P3H18C18N7O9
_chemical_formula_sum   'Zn6 P6 H36 C36 N14 O18'
_cell_volume   1765.56974826
_cell_formula_units_Z   2
loop_
 _symmetry_equiv_pos_site_id
 _symmetry_equiv_pos_as_xyz
  1  'x, y, z'
loop_
 _atom_site_type_symbol
 _atom_site_label
 _atom_site_symmetry_multiplicity
 _atom_site_fract_x
 _atom_site_fract_y
 _atom_site_fract_z
 _atom_site_occupancy
 _atom_site_pbe_bader_charge
 _atom_site_pbe_bader_spin_density
 _atom_site_pbe_cm5_charge
 _atom_site_pbe_ddec_charge
 _atom_site_pbe_ddec_spin_density
 _atom_site_pbe_ddec_sum_bond_order
 _atom_site_pbe_magmom
Zn  Zn0  1  0.80054688  0.45034650  0.46231102  1  1.312461  0  0.719391  0.961501  0  2.34792  0
Zn  Zn1  1  0.19945552  0.54965269  0.53768942  1  1.312467  0  0.719399  0.961519  0  2.347923  0
Zn  Zn2  1  0.40952342  0.31798280  0.35206904  1  1.286281  0  0.694795  0.868578  0  2.362914  0
Zn  Zn3  1  0.59047511  0.68201493  0.64793129  1  1.286304  0  0.694792  0.868536  0  2.363054  0
Zn  Zn4  1  0.82025296  0.08513930  0.52907645  1  1.317083  0  0.711891  0.969942  0  2.344708  0
Zn  Zn5  1  0.17975086  0.91486140  0.47092120  1  1.317086  0  0.711876  0.969943  0  2.344776  0
P  P6  1  0.61313262  0.26200716  0.50404889  1  3.299735  0  0.314992  1.269745  0  5.452628  0
P  P7  1  0.38686976  0.73799205  0.49595028  1  3.299717  0  0.314977  1.269712  0  5.452813  0
P  P8  1  0.19835320  0.12417649  0.46588917  1  3.333683  0  0.312091  1.278305  0  5.451898  0
P  P9  1  0.80165171  0.87582345  0.53410933  1  3.333688  0  0.312097  1.278348  0  5.452013  0
P  P10  1  0.19030602  0.43897577  0.41976156  1  3.334764  0  0.323683  1.292009  0  5.420504  0
P  P11  1  0.80969314  0.56102565  0.58023760  1  3.334709  0  0.323626  1.291924  0  5.420616  0
H  H12  1  0.38234102  0.22613300  0.64653302  1  0.002344  0  0.095133  0.107594  0  0.992548  0
H  H13  1  0.61765961  0.77386988  0.35346655  1  0.002302  0  0.095117  0.10758  0  0.992601  0
H  H14  1  0.40970855  0.35162088  0.54736514  1  0.08869  0  0.115538  0.137477  0  1.019826  0
H  H15  1  0.59029661  0.64838056  0.45263200  1  0.088712  0  0.115528  0.137481  0  1.019807  0
H  H16  1  0.09649337  0.30659692  0.59435338  1  0.049034  0  0.101438  0.121706  0  0.978557  0
H  H17  1  0.90350769  0.69340154  0.40564693  1  0.048995  0  0.101423  0.121681  0  0.978607  0
H  H18  1  0.04815646  0.27651692  0.50629082  1  0.126984  0  0.117335  0.147122  0  1.011552  0
H  H19  1  0.95184698  0.72348157  0.49370727  1  0.126978  0  0.117353  0.147122  0  1.011629  0
H  H20  1  0.14592908  0.11683584  0.62997965  1  0.043256  0  0.094067  0.105946  0  1.009711  0
H  H21  1  0.85406983  0.88316410  0.37002023  1  0.043255  0  0.09407  0.105944  0  1.009696  0
H  H22  1  0.35229412  0.11014012  0.57916511  1  0.137296  0  0.120509  0.154566  0  0.989848  0
H  H23  1  0.64770830  0.88985904  0.42083725  1  0.13748  0  0.12053  0.154565  0  0.989832  0
H  H24  1  0.49624383  0.55720955  0.35496887  1  0.254042  0  0.126367  0.143781  0  1.047303  0
H  H25  1  0.50375882  0.44279112  0.64503085  1  0.253954  0  0.126356  0.143727  0  1.047384  0
H  H26  1  0.56512827  0.67198195  0.14813580  1  0.10589  0  0.124247  0.122077  0  1.003399  0
H  H27  1  0.43487676  0.32801873  0.85186235  1  0.105859  0  0.124238  0.122057  0  1.003416  0
H  H28  1  0.99222394  0.55654995  0.24162782  1  0.170807  0  0.142739  0.122371  0  0.997408  0
H  H29  1  0.00778260  0.44345215  0.75837329  1  0.170877  0  0.142708  0.12235  0  0.997501  0
H  H30  1  0.48779011  0.47855393  0.89149008  1  0.120781  0  0.121409  0.113629  0  1.000596  0
H  H31  1  0.51220817  0.52144231  0.10851160  1  0.120832  0  0.12141  0.113618  0  1.000672  0
H  H32  1  0.21314264  0.48829538  0.01829260  1  0.127566  0  0.125204  0.128727  0  1.005644  0
H  H33  1  0.78685563  0.51170087  0.98170844  1  0.127592  0  0.12518  0.128673  0  1.005578  0
H  H34  1  0.35450989  0.76797298  0.75195993  1  0.187701  0  0.153319  0.126951  0  0.966067  0
H  H35  1  0.64547824  0.23202035  0.24804118  1  0.187648  0  0.153318  0.126888  0  0.965986  0
H  H36  1  0.74113935  0.11489894  0.72401825  1  0.131818  0  0.130499  0.132457  0  0.984408  0
H  H37  1  0.25885742  0.88510249  0.27598120  1  0.13187  0  0.130481  0.132435  0  0.984432  0
H  H38  1  0.79660516  0.96953883  0.90710957  1  0.096705  0  0.123649  0.123152  0  1.007534  0
H  H39  1  0.20338879  0.03046702  0.09289008  1  0.096714  0  0.123653  0.123181  0  1.007591  0
H  H40  1  0.92740565  0.87802339  0.68769876  1  0.226693  0  0.145637  0.122435  0  1.013221  0
H  H41  1  0.07258087  0.12197434  0.31230368  1  0.226552  0  0.14561  0.122397  0  1.013355  0
H  H42  1  0.11517799  0.80198237  0.77953585  1  0.13382  0  0.12894  0.150996  0  0.987524  0
H  H43  1  0.88481342  0.19801615  0.22046180  1  0.133833  0  0.12897  0.15103  0  0.987595  0
H  H44  1  0.73995930  0.79599517  0.01591725  1  0.090599  0  0.115011  0.13027  0  1.007735  0
H  H45  1  0.26004058  0.20400326  0.98408449  1  0.090717  0  0.115036  0.13026  0  1.007711  0
H  H46  1  0.06253748  0.56673721  0.08573018  1  0.092649  0  0.120297  0.139719  0  0.999084  0
H  H47  1  0.93746422  0.43326494  0.91426897  1  0.092665  0  0.120288  0.139717  0  0.99907  0
C  C48  1  0.40916986  0.27410843  0.56423153  1  -0.146693  0  -0.085383  -0.375834  0  3.892326  0
C  C49  1  0.59083290  0.72589300  0.43576655  1  -0.147067  0  -0.085401  -0.375915  0  3.892408  0
C  C50  1  0.14380848  0.30986377  0.52135264  1  -0.237482  0  -0.085374  -0.390434  0  3.888331  0
C  C51  1  0.85619416  0.69013692  0.47864580  1  -0.237387  0  -0.085352  -0.390432  0  3.888449  0
C  C52  1  0.24462285  0.14853368  0.56114452  1  -0.252594  0  -0.085955  -0.380121  0  3.896596  0
C  C53  1  0.75537797  0.85146328  0.43885716  1  -0.252905  0  -0.085947  -0.380141  0  3.89663  0
C  C54  1  0.61091673  0.57668831  0.29979603  1  0.46595  0  0.017102  0.009249  0  3.922074  0
C  C55  1  0.38908975  0.42331387  0.70020061  1  0.465699  0  0.017074  0.009277  0  3.921923  0
C  C56  1  0.64327351  0.63363558  0.19778221  1  0.182351  0  -0.005656  -0.122142  0  3.929179  0
C  C57  1  0.35673016  0.36636352  0.80222384  1  0.182587  0  -0.005611  -0.122082  0  3.928958  0
C  C58  1  0.86710220  0.57139811  0.24349663  1  0.988576  0  0.154453  0.116264  0  3.859906  0
C  C59  1  0.13290086  0.42860475  0.75650456  1  0.988303  0  0.154477  0.116306  0  3.859942  0
C  C60  1  0.41819093  0.54031073  0.88231708  1  0.457922  0  0.009466  -0.015397  0  4.005441  0
C  C61  1  0.58180627  0.45968627  0.11768312  1  0.457945  0  0.009396  -0.015414  0  4.005587  0
C  C62  1  0.28260677  0.54410484  0.94549743  1  0.226029  0  -0.006606  -0.125064  0  3.934132  0
C  C63  1  0.71738762  0.45588996  0.05450286  1  0.226091  0  -0.006591  -0.125083  0  3.93396  0
C  C64  1  0.35311124  0.69072227  0.80710630  1  0.970549  0  0.162649  0.12819  0  3.845914  0
C  C65  1  0.64688081  0.30927996  0.19289018  1  0.970935  0  0.162629  0.128206  0  3.84603  0
C  C66  1  0.78721593  0.04340952  0.74531498  1  0.437273  0  0.011547  -0.015482  0  3.99853  0
C  C67  1  0.21277485  0.95659189  0.25468649  1  0.437446  0  0.011586  -0.015517  0  3.998552  0
C  C68  1  0.81215325  0.97238723  0.83553770  1  0.27287  0  -0.009163  -0.132477  0  3.955404  0
C  C69  1  0.18783630  0.02761422  0.16446200  1  0.272614  0  -0.009128  -0.132382  0  3.955476  0
C  C70  1  0.88651832  0.92364244  0.72176272  1  0.950829  0  0.165557  0.132585  0  3.838715  0
C  C71  1  0.11347753  0.07636043  0.27823872  1  0.950823  0  0.165671  0.132759  0  3.838484  0
C  C72  1  0.10553415  0.68059118  0.92943226  1  0.326726  0  0.106277  0.213412  0  4.047196  0
C  C73  1  0.89446076  0.31940658  0.07056723  1  0.326865  0  0.106267  0.213347  0  4.047242  0
C  C74  1  0.05473359  0.76674657  0.85871307  1  0.049653  0  -0.087299  -0.266954  0  3.913537  0
C  C75  1  0.94526160  0.23325264  0.14128762  1  0.049613  0  -0.087284  -0.266985  0  3.913649  0
C  C76  1  0.92426532  0.80791456  0.89096065  1  0.320258  0  0.107765  0.220693  0  4.048187  0
C  C77  1  0.07573184  0.19208907  0.10903900  1  0.320221  0  0.107704  0.220768  0  4.048034  0
C  C78  1  0.84210575  0.76354330  0.99167535  1  0.044443  0  -0.096879  -0.277227  0  3.945307  0
C  C79  1  0.15789586  0.23645808  0.00832607  1  0.044434  0  -0.096851  -0.277186  0  3.945157  0
C  C80  1  0.89246246  0.67639306  0.06081952  1  0.314061  0  0.106906  0.217243  0  4.061124  0
C  C81  1  0.10754171  0.32360902  0.93918381  1  0.31401  0  0.106869  0.217238  0  4.061145  0
C  C82  1  0.02479324  0.63449723  0.03070554  1  0.030477  0  -0.093838  -0.282477  0  3.946082  0
C  C83  1  0.97521074  0.36550418  0.96929367  1  0.030367  0  -0.093806  -0.282443  0  3.946115  0
N  N84  1  0.75148921  0.53939784  0.32659076  1  -1.230067  0  -0.338917  -0.268184  0  3.557734  0
N  N85  1  0.24851622  0.46060505  0.67340758  1  -1.229809  0  -0.33885  -0.268191  0  3.557719  0
N  N86  1  0.46043359  0.63192226  0.79716833  1  -1.197411  0  -0.33155  -0.237763  0  3.484294  0
N  N87  1  0.53956478  0.36807477  0.20282979  1  -1.1978  0  -0.331519  -0.237804  0  3.484507  0
N  N88  1  0.83346667  0.01151702  0.67614121  1  -1.219681  0  -0.337949  -0.278632  0  3.568781  0
N  N89  1  0.16652867  0.98848290  0.32386104  1  -1.219688  0  -0.338027  -0.278683  0  3.568659  0
N  N90  1  0.80647950  0.62964671  0.16210827  1  -1.281982  0  -0.229698  -0.011839  0  3.819904  0
N  N91  1  0.19352595  0.37035616  0.83789200  1  -1.281882  0  -0.229773  -0.011917  0  3.819985  0
N  N92  1  0.24056638  0.64060908  0.89656398  1  -1.255382  0  -0.224757  8.6e-05  0  3.783016  0
N  N93  1  0.75942695  0.35938646  0.10343610  1  -1.255631  0  -0.224675  0.000316  0  3.782826  0
N  N94  1  0.87572093  0.89646206  0.81981880  1  -1.263556  0  -0.224689  0.004053  0  3.78558  0
N  N95  1  0.12427358  0.10354008  0.18018251  1  -1.263312  0  -0.224756  0.003813  0  3.785552  0
N  N96  1  0.28667180  0.25499481  0.52061538  1  -1.037256  0  -0.324813  -0.005427  0  3.609808  0
N  N97  1  0.71333444  0.74500588  0.47938262  1  -1.036996  0  -0.324769  -0.00523  0  3.609632  0
O  O98  1  0.63005507  0.15033745  0.54725743  1  -1.434957  0  -0.388453  -0.74355  0  2.307736  0
O  O99  1  0.36994981  0.84966252  0.45273915  1  -1.434937  0  -0.38844  -0.743521  0  2.307728  0
O  O100  1  0.73358913  0.30977471  0.53356055  1  -1.438391  0  -0.394281  -0.750059  0  2.286488  0
O  O101  1  0.26641423  0.69022298  0.46644110  1  -1.438355  0  -0.394272  -0.750018  0  2.286575  0
O  O102  1  0.62068170  0.31724768  0.39113267  1  -1.436105  0  -0.397239  -0.765957  0  2.271141  0
O  O103  1  0.37932146  0.68275596  0.60886561  1  -1.436104  0  -0.39724  -0.765966  0  2.27126  0
O  O104  1  0.20457683  0.01173978  0.51245638  1  -1.433982  0  -0.395865  -0.760756  0  2.321346  0
O  O105  1  0.79542894  0.98825790  0.48754562  1  -1.433972  0  -0.395916  -0.760766  0  2.321453  0
O  O106  1  0.03113447  0.15783362  0.44629213  1  -1.447383  0  -0.398112  -0.771997  0  2.286827  0
O  O107  1  0.96887152  0.84216557  0.55370723  1  -1.447298  0  -0.398116  -0.772022  0  2.286871  0
O  O108  1  0.33062595  0.18719296  0.36980653  1  -1.443325  0  -0.399623  -0.75602  0  2.227833  0
O  O109  1  0.66938221  0.81280473  0.63019454  1  -1.443252  0  -0.399602  -0.756047  0  2.22782  0
O  O110  1  0.03227834  0.48514843  0.40307415  1  -1.465176  0  -0.39158  -0.7771  0  2.386301  0
O  O111  1  0.96771911  0.51485004  0.59692597  1  -1.465157  0  -0.391577  -0.777106  0  2.386326  0
O  O112  1  0.29289853  0.49377123  0.45252965  1  -1.442395  0  -0.384806  -0.750348  0  2.33725  0
O  O113  1  0.70710160  0.50622870  0.54747073  1  -1.442361  0  -0.384832  -0.750364  0  2.337223  0
O  O114  1  0.28760014  0.43562921  0.32672129  1  -1.444839  0  -0.401411  -0.751577  0  2.228412  0
O  O115  1  0.71239997  0.56437074  0.67327781  1  -1.444843  0  -0.401378  -0.751514  0  2.228471  0
