# generated using pymatgen
data_SrVH22(C6O7)2
_symmetry_space_group_name_H-M   'P 1'
_cell_length_a   9.37229520
_cell_length_b   10.85742991
_cell_length_c   10.85742883
_cell_angle_alpha   96.74611442
_cell_angle_beta   112.92636489
_cell_angle_gamma   112.92660848
_symmetry_Int_Tables_number   1
_chemical_formula_structural   SrVH22(C6O7)2
_chemical_formula_sum   'Sr2 V2 H44 C24 O28'
_cell_volume   888.72866107
_cell_formula_units_Z   2
loop_
 _symmetry_equiv_pos_site_id
 _symmetry_equiv_pos_as_xyz
  1  'x, y, z'
loop_
 _atom_site_type_symbol
 _atom_site_label
 _atom_site_symmetry_multiplicity
 _atom_site_fract_x
 _atom_site_fract_y
 _atom_site_fract_z
 _atom_site_occupancy
 _atom_site_hle17_ddec_charge
 _atom_site_hle17_ddec_spin_density
 _atom_site_hle17_ddec_sum_bond_order
 _atom_site_hle17_magmom
 _atom_site_hse06_10hf_ddec_charge
 _atom_site_hse06_10hf_ddec_spin_density
 _atom_site_hse06_10hf_ddec_sum_bond_order
 _atom_site_hse06_10hf_magmom
 _atom_site_hse06_ddec_charge
 _atom_site_hse06_ddec_spin_density
 _atom_site_hse06_ddec_sum_bond_order
 _atom_site_hse06_magmom
 _atom_site_pbe_cm5_charge
 _atom_site_pbe_ddec_charge
 _atom_site_pbe_ddec_spin_density
 _atom_site_pbe_ddec_sum_bond_order
 _atom_site_pbe_magmom
Sr  Sr0  1  0.25000044  0.82550044  0.17449759  1  1.658676  -0.000908  0.97714  0.0  1.533764  -0.000335  1.321135  0.0  1.570472  -0.000819  1.276108  0.0  0.913519  1.506721  -0.000492  1.353677  0.0
Sr  Sr1  1  0.75000038  0.17449829  0.82550243  1  1.658691  -0.000932  0.977127  0.0  1.533812  -0.000319  1.321065  0.0  1.570511  -0.000816  1.276048  0.0  0.91352  1.506773  -0.000492  1.353608  0.0
V  V2  1  0.24999857  0.09354567  0.90645341  1  1.808905  1.300731  2.480789  1.279  1.824718  1.072435  2.87508  1.047  1.914455  1.111418  2.839384  1.089  1.344626  1.758676  1.046301  2.906954  1.018
V  V3  1  0.74999986  0.90645094  0.09354925  1  1.808966  1.300828  2.480807  1.279  1.824735  1.072467  2.875179  1.047  1.914522  1.111454  2.839408  1.089  1.344646  1.758663  1.046332  2.90712  1.018
H  H4  1  0.99280827  0.70734909  0.76315441  1  0.092602  -8.7e-05  0.952389  0.0  0.107963  -0.000111  1.014948  0.0  0.109959  -9.6e-05  1.014509  0.0  0.099397  0.106612  -0.00012  1.015025  0.0
H  H5  1  0.50718745  0.23684339  0.29265102  1  0.09258  -8.4e-05  0.952342  0.0  0.107944  -0.000112  1.014923  0.0  0.109939  -9.5e-05  1.014486  0.0  0.099403  0.106594  -0.00012  1.015002  0.0
H  H6  1  0.00719140  0.29264964  0.23684616  1  0.092604  -8.5e-05  0.952386  0.0  0.10798  -0.000112  1.014932  0.0  0.109978  -9.5e-05  1.014489  0.0  0.099403  0.10663  -0.00012  1.01501  0.0
H  H7  1  0.49281168  0.76315640  0.70734858  1  0.092585  -8.5e-05  0.952355  0.0  0.107945  -0.000112  1.014931  0.0  0.109941  -9.5e-05  1.014492  0.0  0.099398  0.106595  -0.00012  1.015008  0.0
H  H8  1  0.89322882  0.77474885  0.84226826  1  0.095004  -0.000266  0.946897  0.0  0.110977  -0.000229  1.007645  0.0  0.11375  -0.000234  1.006176  0.0  0.104163  0.109046  -0.000211  1.008601  0.0
H  H9  1  0.60676836  0.15773218  0.22525100  1  0.095027  -0.000265  0.946913  0.0  0.111009  -0.00023  1.007654  0.0  0.113781  -0.000234  1.006189  0.0  0.104185  0.10908  -0.000211  1.008611  0.0
H  H10  1  0.10676970  0.22524988  0.15773285  1  0.095002  -0.000264  0.946933  0.0  0.110975  -0.00023  1.007677  0.0  0.113747  -0.000234  1.006214  0.0  0.104164  0.109045  -0.000211  1.008634  0.0
H  H11  1  0.39323193  0.84226761  0.77474991  1  0.095023  -0.000265  0.946925  0.0  0.110999  -0.000229  1.007667  0.0  0.113771  -0.000234  1.006202  0.0  0.104175  0.109068  -0.000211  1.008622  0.0
H  H12  1  0.69397810  0.51520171  0.58739152  1  0.075335  2e-05  0.961111  0.0  0.093146  4e-05  1.019178  0.0  0.094148  2.8e-05  1.019474  0.0  0.09048  0.092307  4.5e-05  1.019107  0.0
H  H13  1  0.80601876  0.41260787  0.48479931  1  0.07532  2.2e-05  0.961079  0.0  0.093124  3.9e-05  1.01918  0.0  0.094126  2.9e-05  1.019474  0.0  0.090469  0.092284  4.5e-05  1.019111  0.0
H  H14  1  0.30602102  0.48479808  0.41260716  1  0.075337  2.1e-05  0.961101  0.0  0.093154  3.9e-05  1.019162  0.0  0.094156  2.9e-05  1.019457  0.0  0.090493  0.092315  4.5e-05  1.019089  0.0
H  H15  1  0.19398046  0.58739403  0.51519966  1  0.075328  2e-05  0.961052  0.0  0.093133  3.9e-05  1.019162  0.0  0.094137  2.8e-05  1.019453  0.0  0.090475  0.092294  4.5e-05  1.019091  0.0
H  H16  1  0.59717756  0.59550352  0.65554912  1  0.073922  -4e-06  0.953435  0.0  0.092921  -9e-06  1.009805  0.0  0.093231  -1.1e-05  1.011526  0.0  0.08947  0.092652  -6e-06  1.00854  0.0
H  H17  1  0.90282014  0.34445182  0.40449710  1  0.073842  -4e-06  0.953412  0.0  0.092863  -9e-06  1.009779  0.0  0.093173  -1.1e-05  1.0115  0.0  0.089431  0.092594  -6e-06  1.008515  0.0
H  H18  1  0.40282210  0.40449522  0.34445053  1  0.073918  -3e-06  0.953425  0.0  0.092917  -9e-06  1.009794  0.0  0.093228  -1e-05  1.011515  0.0  0.08947  0.092648  -6e-06  1.008529  0.0
H  H19  1  0.09718142  0.65555008  0.59550540  1  0.073843  -6e-06  0.953444  0.0  0.092863  -8e-06  1.009806  0.0  0.093174  -1.1e-05  1.011527  0.0  0.089447  0.092594  -6e-06  1.00854  0.0
H  H20  1  0.59106939  0.72977004  0.48645280  1  0.089884  -5e-05  0.957895  0.0  0.104031  -3.3e-05  1.022727  0.0  0.106533  -2.7e-05  1.020993  0.0  0.096378  0.102293  -3.7e-05  1.023903  0.0
H  H21  1  0.90892548  0.51354838  0.27023115  1  0.089911  -5e-05  0.957945  0.0  0.104104  -3.4e-05  1.02272  0.0  0.106605  -2.7e-05  1.020987  0.0  0.096394  0.102363  -3.7e-05  1.023905  0.0
H  H22  1  0.40892858  0.27022975  0.51354642  1  0.08986  -4.9e-05  0.957926  0.0  0.104062  -3.4e-05  1.022708  0.0  0.106564  -2.6e-05  1.020976  0.0  0.096386  0.102322  -3.7e-05  1.023886  0.0
H  H23  1  0.09107543  0.48645247  0.72976825  1  0.089909  -5.1e-05  0.957963  0.0  0.104095  -3.3e-05  1.022746  0.0  0.106596  -2.7e-05  1.021013  0.0  0.096391  0.102355  -3.7e-05  1.023929  0.0
H  H24  1  0.71475814  0.66623911  0.43662339  1  0.073374  -7e-05  0.993123  0.0  0.088503  -5.1e-05  1.058622  0.0  0.09014  -4.3e-05  1.057988  0.0  0.09048  0.087201  -5e-05  1.059164  0.0
H  H25  1  0.78523756  0.56337747  0.33376370  1  0.073398  -7e-05  0.993068  0.0  0.088543  -5.1e-05  1.05857  0.0  0.090179  -4.3e-05  1.057935  0.0  0.090499  0.087242  -5e-05  1.059115  0.0
H  H26  1  0.28524161  0.33376174  0.56337655  1  0.073388  -7e-05  0.993085  0.0  0.08852  -5.1e-05  1.058606  0.0  0.090157  -4.2e-05  1.057972  0.0  0.090485  0.087218  -5e-05  1.059147  0.0
H  H27  1  0.21476281  0.43662443  0.66623565  1  0.073416  -7.3e-05  0.993085  0.0  0.088559  -5.1e-05  1.058589  0.0  0.090195  -4.3e-05  1.057954  0.0  0.090501  0.087259  -5e-05  1.059132  0.0
H  H28  1  0.33937901  0.33119067  0.79622205  1  0.428678  -9.6e-05  0.875767  0.0  0.40092  -1e-05  0.935213  0.0  0.412387  5e-06  0.918476  0.0  0.294824  0.392629  -1.6e-05  0.94727  0.0
H  H29  1  0.16062050  0.20377806  0.66880951  1  0.428655  -9.6e-05  0.875806  0.0  0.400888  -1e-05  0.935255  0.0  0.412355  5e-06  0.918519  0.0  0.294812  0.392603  -1.6e-05  0.947305  0.0
H  H30  1  0.66062242  0.66880913  0.20377739  1  0.428702  -9.6e-05  0.875741  0.0  0.400944  -1e-05  0.935184  0.0  0.412413  5e-06  0.918445  0.0  0.294822  0.392653  -1.6e-05  0.947243  0.0
H  H31  1  0.83937694  0.79622279  0.33118967  1  0.428664  -9.6e-05  0.875802  0.0  0.400917  -1e-05  0.935215  0.0  0.412386  5e-06  0.918477  0.0  0.294817  0.392628  -1.6e-05  0.94727  0.0
H  H32  1  0.84070788  0.65485384  0.02707315  1  0.429919  -0.000273  0.869914  0.0  0.397507  -8.5e-05  0.936584  0.0  0.409081  -0.000177  0.919369  0.0  0.299729  0.38894  -1e-05  0.949338  0.0
H  H33  1  0.65929274  0.97292754  0.34514723  1  0.429923  -0.000274  0.869911  0.0  0.397502  -8.5e-05  0.936585  0.0  0.409085  -0.000177  0.919364  0.0  0.299745  0.388937  -1e-05  0.949335  0.0
H  H34  1  0.15929294  0.34514490  0.97292688  1  0.429913  -0.000274  0.869922  0.0  0.397506  -8.5e-05  0.936587  0.0  0.409079  -0.000177  0.919373  0.0  0.299733  0.388939  -1e-05  0.94934  0.0
H  H35  1  0.34070639  0.02707224  0.65485329  1  0.42993  -0.000273  0.869892  0.0  0.397514  -8.5e-05  0.936559  0.0  0.409096  -0.000177  0.919338  0.0  0.299751  0.388949  -1e-05  0.949309  0.0
H  H36  1  0.88349716  0.53066220  0.05868374  1  0.425417  -1.7e-05  0.871748  0.0  0.396533  -1e-06  0.932857  0.0  0.406173  3e-06  0.918661  0.0  0.305167  0.389577  -6e-06  0.943162  0.0
H  H37  1  0.61650159  0.94131650  0.46933674  1  0.425384  -1.7e-05  0.871806  0.0  0.396501  -0.0  0.932911  0.0  0.406143  2e-06  0.918709  0.0  0.305159  0.389547  -6e-06  0.943214  0.0
H  H38  1  0.11650124  0.46933443  0.94131523  1  0.425336  -1.7e-05  0.871876  0.0  0.396467  -1e-06  0.932953  0.0  0.406109  2e-06  0.918751  0.0  0.305126  0.389513  -6e-06  0.943262  0.0
H  H39  1  0.38349870  0.05868329  0.53066417  1  0.425385  -1.7e-05  0.871805  0.0  0.396502  -1e-06  0.932912  0.0  0.406142  2e-06  0.918713  0.0  0.305152  0.389546  -6e-06  0.943219  0.0
H  H40  1  0.13703325  0.80270447  0.42291789  1  0.425417  7e-06  0.874264  0.0  0.393154  0.0  0.939957  0.0  0.403304  -1e-06  0.925068  0.0  0.300081  0.385974  -0.0  0.950487  0.0
H  H41  1  0.36296717  0.57708048  0.19729173  1  0.425361  8e-06  0.874339  0.0  0.393097  0.0  0.940033  0.0  0.403248  -1e-06  0.925145  0.0  0.300072  0.385917  -0.0  0.950564  0.0
H  H42  1  0.86296703  0.19729533  0.57708118  1  0.425395  7e-06  0.874295  0.0  0.393128  0.0  0.939996  0.0  0.403277  -1e-06  0.925109  0.0  0.300066  0.385951  -0.0  0.950523  0.0
H  H43  1  0.63703489  0.42292037  0.80270713  1  0.425389  7e-06  0.874302  0.0  0.39312  -0.0  0.940005  0.0  0.40327  -1e-06  0.925117  0.0  0.300057  0.385939  -0.0  0.950536  0.0
H  H44  1  0.32329818  0.82068948  0.47459953  1  0.421132  8e-06  0.836726  0.0  0.403366  1.2e-05  0.893388  0.0  0.411347  1e-05  0.884657  0.0  0.319979  0.397713  1e-05  0.899618  0.0
H  H45  1  0.17670408  0.52540068  0.17931094  1  0.421176  8e-06  0.83672  0.0  0.403405  1.2e-05  0.893386  0.0  0.411387  1e-05  0.884651  0.0  0.320002  0.397751  1e-05  0.899617  0.0
H  H46  1  0.67670274  0.17931136  0.52540172  1  0.421128  8e-06  0.836748  0.0  0.403363  1.2e-05  0.89341  0.0  0.411344  1e-05  0.884679  0.0  0.319994  0.397711  1e-05  0.899638  0.0
H  H47  1  0.82329851  0.47459912  0.82068796  1  0.421151  8e-06  0.836741  0.0  0.403386  1.1e-05  0.893393  0.0  0.411367  1.1e-05  0.884663  0.0  0.319991  0.397734  1e-05  0.899621  0.0
C  C48  1  0.03267097  0.88374483  0.61616217  1  0.694241  0.002753  3.78022  0.004  0.634357  0.002154  4.094406  0.003  0.670878  0.00186  4.084182  0.003  0.234232  0.609129  0.002423  4.10086  0.003
C  C49  1  0.46732655  0.38383649  0.11625519  1  0.694264  0.002756  3.780179  0.004  0.634359  0.002154  4.094391  0.003  0.670884  0.001862  4.084172  0.003  0.234278  0.609127  0.002423  4.100843  0.003
C  C50  1  0.96733405  0.11625707  0.38383964  1  0.694144  0.002756  3.780368  0.004  0.634261  0.002154  4.094544  0.003  0.670779  0.001863  4.08432  0.003  0.234194  0.609039  0.002424  4.100994  0.003
C  C51  1  0.53267141  0.61616331  0.88374311  1  0.694212  0.002754  3.780267  0.004  0.634318  0.002155  4.094437  0.003  0.670843  0.001862  4.084216  0.003  0.234255  0.609086  0.002424  4.100886  0.003
C  C52  1  0.87685932  0.83082293  0.64484367  1  -0.167026  0.001581  3.573676  0.001  -0.132165  0.00163  3.802535  0.001  -0.144095  0.001329  3.816335  0.001  -0.017356  -0.124127  0.001957  3.793208  0.001
C  C53  1  0.62313950  0.35515645  0.16917871  1  -0.166974  0.001583  3.57374  0.001  -0.132069  0.001629  3.802548  0.001  -0.144013  0.00133  3.816372  0.001  -0.017356  -0.124025  0.001957  3.793212  0.001
C  C54  1  0.12314162  0.16917791  0.35516034  1  -0.166933  0.001582  3.57378  0.001  -0.132083  0.00163  3.802678  0.001  -0.14399  0.001328  3.816444  0.001  -0.017353  -0.12404  0.001957  3.793341  0.001
C  C55  1  0.37686016  0.64484228  0.83082094  1  -0.166824  0.001578  3.573681  0.001  -0.131938  0.001629  3.8025  0.001  -0.14387  0.001328  3.816305  0.001  -0.017297  -0.123894  0.001957  3.793161  0.001
C  C56  1  0.86008825  0.95238559  0.71161752  1  0.685887  0.003042  3.813781  0.004  0.636322  0.002351  4.114567  0.003  0.672801  0.002028  4.104347  0.003  0.231655  0.611323  0.002637  4.120496  0.004
C  C57  1  0.63991001  0.28838209  0.04761667  1  0.685853  0.003042  3.814045  0.004  0.636319  0.002351  4.114763  0.003  0.672801  0.002028  4.104543  0.003  0.231689  0.611319  0.002637  4.12069  0.004
C  C58  1  0.13990985  0.04761630  0.28838569  1  0.685749  0.003042  3.813822  0.004  0.636186  0.002352  4.114604  0.003  0.672661  0.002029  4.104385  0.003  0.231618  0.611186  0.002638  4.12053  0.004
C  C59  1  0.36009133  0.71161560  0.95238248  1  0.685864  0.003043  3.814002  0.004  0.636329  0.002351  4.114723  0.003  0.672811  0.002029  4.104501  0.003  0.231677  0.611329  0.002638  4.120647  0.004
C  C60  1  0.88461801  0.73239028  0.74148458  1  -0.13556  -7.3e-05  3.519982  0.0  -0.184553  -4e-06  3.776004  0.0  -0.184596  -3.3e-05  3.784702  0.0  -0.149705  -0.18393  1.7e-05  3.769408  0.0
C  C61  1  0.61537845  0.25851240  0.26760933  1  -0.135566  -8.1e-05  3.519918  0.0  -0.184577  -2e-06  3.775977  0.0  -0.184617  -3.7e-05  3.784677  0.0  -0.149728  -0.183956  1.6e-05  3.769385  0.0
C  C62  1  0.11538112  0.26760952  0.25851410  1  -0.135536  -7.9e-05  3.519994  0.0  -0.18453  -4e-06  3.776  0.0  -0.184578  -3.3e-05  3.78469  0.0  -0.14968  -0.183906  1.6e-05  3.769405  0.0
C  C63  1  0.38462131  0.74148844  0.73239061  1  -0.135612  -7.7e-05  3.519994  0.0  -0.184589  -4e-06  3.776015  0.0  -0.184633  -3.2e-05  3.784715  0.0  -0.149728  -0.183967  1.6e-05  3.76942  0.0
C  C64  1  0.70074240  0.61624759  0.62521309  1  -0.108723  -6.4e-05  3.602179  0.0  -0.144685  0.000122  3.858336  0.0  -0.145828  8.2e-05  3.871298  0.0  -0.169502  -0.143669  0.000166  3.848998  0.0
C  C65  1  0.79925256  0.37478538  0.38375279  1  -0.108575  -6.9e-05  3.601979  0.0  -0.144571  0.000123  3.858221  0.0  -0.145715  7.8e-05  3.87118  0.0  -0.169423  -0.143551  0.000166  3.848885  0.0
C  C66  1  0.29925493  0.38375115  0.37478487  1  -0.108728  -6.9e-05  3.602173  0.0  -0.144688  0.000123  3.858363  0.0  -0.145831  7.8e-05  3.871327  0.0  -0.169516  -0.143672  0.000166  3.849022  0.0
C  C67  1  0.20074784  0.62521652  0.61624841  1  -0.10857  -6e-05  3.602081  0.0  -0.144577  0.00012  3.858335  0.0  -0.14572  8.3e-05  3.871293  0.0  -0.169454  -0.14356  0.000166  3.848995  0.0
C  C68  1  0.70158515  0.70715472  0.52607029  1  -0.136711  0.000246  3.592213  0.0  -0.189047  0.000184  3.844703  0.0  -0.188993  0.000138  3.855359  0.0  -0.169868  -0.188763  0.000227  3.83711  0.0
C  C69  1  0.79841076  0.47392866  0.29284457  1  -0.136825  0.000248  3.592324  0.0  -0.189215  0.000186  3.844834  0.0  -0.189154  0.000138  3.855489  0.0  -0.169912  -0.188936  0.000227  3.837239  0.0
C  C70  1  0.29841211  0.29284190  0.47393014  1  -0.136724  0.000244  3.592206  0.0  -0.189124  0.000186  3.844739  0.0  -0.18908  0.000136  3.855399  0.0  -0.169879  -0.188844  0.000227  3.83716  0.0
C  C71  1  0.20159006  0.52607008  0.70715546  1  -0.136877  0.000253  3.592349  0.0  -0.189254  0.000186  3.844853  0.0  -0.189201  0.000137  3.855511  0.0  -0.16991  -0.188978  0.000227  3.837272  0.0
O  O72  1  0.25000012  0.99325927  0.00673930  1  -0.767855  -0.290205  1.306235  -0.253  -0.792821  -0.125811  1.586443  -0.109  -0.83189  -0.156539  1.578492  -0.137  -0.59706  -0.766474  -0.107155  1.593012  -0.092
O  O73  1  0.75000203  0.00674369  0.99325893  1  -0.767959  -0.290301  1.30615  -0.253  -0.792943  -0.12584  1.586406  -0.109  -0.832026  -0.156577  1.57844  -0.137  -0.597106  -0.766586  -0.107175  1.592995  -0.092
O  O74  1  0.25000017  0.23165408  0.76834656  1  -0.891486  -0.003479  1.923546  -0.004  -0.859975  -0.00241  2.117867  -0.002  -0.883025  -0.001945  2.08894  -0.002  -0.621401  -0.842621  -0.002786  2.138448  -0.002
O  O75  1  0.75000013  0.76834571  0.23165527  1  -0.891499  -0.00348  1.923587  -0.004  -0.859998  -0.002411  2.117914  -0.002  -0.883058  -0.001944  2.088982  -0.002  -0.621379  -0.842646  -0.002786  2.138505  -0.002
O  O76  1  0.18828346  0.96387792  0.72282162  1  -0.679622  -0.000909  2.110443  -0.013  -0.637931  0.012266  2.376656  -0.001  -0.671283  0.010606  2.368823  -0.002  -0.35008  -0.614056  0.013734  2.381935  0.0
O  O77  1  0.31171303  0.27717575  0.03612052  1  -0.679602  -0.000908  2.110403  -0.013  -0.637905  0.012266  2.37663  -0.001  -0.671258  0.010606  2.368798  -0.002  -0.350105  -0.614031  0.013734  2.381912  0.0
O  O78  1  0.81171389  0.03612082  0.27717819  1  -0.67963  -0.000912  2.110443  -0.013  -0.637928  0.012266  2.37666  -0.001  -0.671296  0.010604  2.368833  -0.002  -0.350103  -0.614045  0.013733  2.381937  0.0
O  O79  1  0.68828842  0.72282404  0.96387984  1  -0.679653  -0.00091  2.110387  -0.013  -0.637946  0.012265  2.376623  -0.001  -0.671312  0.010605  2.368788  -0.002  -0.350142  -0.614066  0.013733  2.381906  0.0
O  O80  1  0.20830935  0.77502796  0.39047156  1  -0.853657  6.2e-05  1.819724  0.0  -0.80579  9.5e-05  2.00361  0.0  -0.824364  8.5e-05  1.978347  0.0  -0.618474  -0.792863  7.9e-05  2.021291  0.0
O  O81  1  0.29169049  0.60952800  0.22496893  1  -0.853639  6.1e-05  1.819776  0.0  -0.805762  9.4e-05  2.003636  0.0  -0.824335  8.4e-05  1.978374  0.0  -0.618498  -0.792833  7.9e-05  2.021317  0.0
O  O82  1  0.79169041  0.22497288  0.60952838  1  -0.853645  6.1e-05  1.819775  0.0  -0.805774  9.5e-05  2.003634  0.0  -0.824345  8.2e-05  1.978376  0.0  -0.618476  -0.792844  7.9e-05  2.021313  0.0
O  O83  1  0.70831094  0.39047180  0.77502959  1  -0.853654  6.2e-05  1.81977  0.0  -0.80578  9.6e-05  2.003639  0.0  -0.824351  8.4e-05  1.978379  0.0  -0.618475  -0.792851  7.9e-05  2.021321  0.0
O  O84  1  0.93387804  0.62606736  0.05135886  1  -0.888691  0.000175  1.801545  0.0  -0.833262  0.000527  1.979666  0.0  -0.852236  0.00041  1.946883  0.0  -0.632818  -0.819833  0.000632  2.003709  0.001
O  O85  1  0.56612107  0.94864177  0.37393406  1  -0.888677  0.000176  1.801604  0.0  -0.833209  0.000525  1.979724  0.0  -0.852196  0.00041  1.946916  0.0  -0.632832  -0.819781  0.000632  2.003762  0.001
O  O86  1  0.06612163  0.37393138  0.94864171  1  -0.888627  0.000175  1.801717  0.0  -0.833185  0.000526  1.979781  0.0  -0.85216  0.000409  1.947003  0.0  -0.632781  -0.819762  0.000632  2.003814  0.001
O  O87  1  0.43387869  0.05135907  0.62606681  1  -0.888686  0.000175  1.801595  0.0  -0.833235  0.000526  1.97972  0.0  -0.852216  0.000409  1.94691  0.0  -0.632829  -0.819807  0.000632  2.00376  0.001
O  O88  1  0.01202220  0.84711911  0.49374059  1  -0.603242  -0.003511  2.008156  -0.003  -0.536755  -0.001819  2.224842  -0.001  -0.561777  -0.001517  2.214425  -0.001  -0.286133  -0.519246  -0.00207  2.231897  -0.002
O  O89  1  0.48797542  0.50625998  0.15288123  1  -0.603287  -0.003513  2.00817  -0.003  -0.536799  -0.001818  2.224881  -0.001  -0.561823  -0.001518  2.214466  -0.001  -0.286159  -0.519285  -0.00207  2.231935  -0.002
O  O90  1  0.98797642  0.15288173  0.50626174  1  -0.60317  -0.003511  2.008177  -0.003  -0.536668  -0.001818  2.224856  -0.001  -0.561685  -0.001517  2.214436  -0.001  -0.286054  -0.519174  -0.00207  2.231921  -0.002
O  O91  1  0.51202540  0.49373876  0.84711880  1  -0.603238  -0.003511  2.008194  -0.003  -0.536739  -0.001819  2.224887  -0.001  -0.561761  -0.001518  2.214469  -0.001  -0.286097  -0.519228  -0.00207  2.231941  -0.002
O  O92  1  0.99596184  0.05303479  0.82242002  1  -0.6889  -0.001449  2.055716  -0.013  -0.655295  0.013133  2.32091  -0.001  -0.687682  0.011217  2.312987  -0.002  -0.356108  -0.631458  0.015049  2.325505  0.001
O  O93  1  0.50403745  0.17758044  0.94696533  1  -0.688917  -0.00145  2.055682  -0.013  -0.655328  0.013132  2.320861  -0.001  -0.687714  0.011215  2.312933  -0.002  -0.356139  -0.631491  0.015049  2.325455  0.001
O  O94  1  0.00403603  0.94696290  0.17757798  1  -0.688879  -0.001451  2.055618  -0.013  -0.655261  0.01313  2.32082  -0.001  -0.687662  0.011215  2.3129  -0.002  -0.356138  -0.63142  0.015046  2.325418  0.001
O  O95  1  0.49596231  0.82242041  0.05303461  1  -0.688916  -0.001449  2.05572  -0.013  -0.655307  0.013133  2.320895  -0.001  -0.687704  0.011216  2.312966  -0.002  -0.356137  -0.631467  0.015049  2.325496  0.001
O  O96  1  0.71340859  0.95065928  0.66241294  1  -0.652762  -0.004085  1.999132  -0.003  -0.593068  -0.002105  2.227973  -0.002  -0.617885  -0.001716  2.217438  -0.001  -0.325831  -0.575612  -0.002386  2.235001  -0.002
O  O97  1  0.78659122  0.33758551  0.04934665  1  -0.652775  -0.004085  1.999335  -0.003  -0.593088  -0.002105  2.228147  -0.002  -0.617905  -0.001716  2.217609  -0.001  -0.325856  -0.575632  -0.002387  2.235176  -0.002
O  O98  1  0.28658938  0.04934052  0.33758536  1  -0.652681  -0.004084  1.999153  -0.003  -0.592994  -0.002104  2.228011  -0.002  -0.617812  -0.001715  2.217477  -0.001  -0.32579  -0.575534  -0.002386  2.235032  -0.002
O  O99  1  0.21340970  0.66241534  0.95065367  1  -0.652805  -0.004086  1.999298  -0.003  -0.593122  -0.002105  2.228108  -0.002  -0.617939  -0.001716  2.217566  -0.001  -0.32586  -0.575666  -0.002387  2.235137  -0.002
