# generated using pymatgen
data_CdH8C11(SN4)2
_symmetry_space_group_name_H-M   'P 1'
_cell_length_a   8.25692045
_cell_length_b   8.47089729
_cell_length_c   10.76015020
_cell_angle_alpha   92.52127783
_cell_angle_beta   94.81297715
_cell_angle_gamma   101.12899238
_symmetry_Int_Tables_number   1
_chemical_formula_structural   CdH8C11(SN4)2
_chemical_formula_sum   'Cd2 H16 C22 S4 N16'
_cell_volume   734.45093584
_cell_formula_units_Z   2
loop_
 _symmetry_equiv_pos_site_id
 _symmetry_equiv_pos_as_xyz
  1  'x, y, z'
loop_
 _atom_site_type_symbol
 _atom_site_label
 _atom_site_symmetry_multiplicity
 _atom_site_fract_x
 _atom_site_fract_y
 _atom_site_fract_z
 _atom_site_occupancy
 _atom_site_hle17_bader_spin_density
 _atom_site_hle17_ddec_charge
 _atom_site_hle17_ddec_spin_density
 _atom_site_hle17_ddec_sum_bond_order
 _atom_site_hle17_magmom
 _atom_site_hse06_10hf_bader_spin_density
 _atom_site_hse06_10hf_ddec_charge
 _atom_site_hse06_10hf_ddec_spin_density
 _atom_site_hse06_10hf_ddec_sum_bond_order
 _atom_site_hse06_10hf_magmom
 _atom_site_hse06_bader_spin_density
 _atom_site_hse06_ddec_charge
 _atom_site_hse06_ddec_spin_density
 _atom_site_hse06_ddec_sum_bond_order
 _atom_site_hse06_magmom
 _atom_site_pbe_bader_spin_density
 _atom_site_pbe_cm5_charge
 _atom_site_pbe_ddec_charge
 _atom_site_pbe_ddec_spin_density
 _atom_site_pbe_ddec_sum_bond_order
 _atom_site_pbe_magmom
Cd  Cd0  1  0.26972208  0.25946366  0.13570080  1  0  0.975609  0  1.984229  0  0  0.798817  0  2.453356  0  0  0.844493  0  2.414127  0  0  0.724715  0.76738  0  2.479361  0
Cd  Cd1  1  0.73027667  0.74053150  0.86429746  1  0  0.975614  0  1.984546  0  0  0.798821  0  2.453754  0  0  0.844511  0  2.414491  0  0  0.724738  0.767395  0  2.479756  0
H  H2  1  0.72054070  0.41315735  0.54895419  1  0  0.293201  0  0.945902  0  0  0.262222  0  1.029055  0  0  0.271389  0  1.021399  0  0  0.308127  0.255793  0  1.034323  0
H  H3  1  0.27946010  0.58684747  0.45104637  1  0  0.293218  0  0.945834  0  0  0.262286  0  1.028947  0  0  0.271451  0  1.021294  0  0  0.308129  0.255852  0  1.034222  0
H  H4  1  0.82706676  0.25195182  0.15710015  1  0  0.121809  0  0.946887  0  0  0.125498  0  1.018472  0  0  0.128297  0  1.015689  0  0  0.14073  0.123319  0  1.020633  0
H  H5  1  0.17293429  0.74805420  0.84289954  1  0  0.121794  0  0.946889  0  0  0.125481  0  1.018489  0  0  0.128279  0  1.015707  0  0  0.140718  0.123307  0  1.020646  0
H  H6  1  0.57964775  0.19980826  0.72976657  1  0  0.118783  0  0.954159  0  0  0.12886  0  1.011756  0  0  0.131226  0  1.011335  0  0  0.104413  0.12762  0  1.011171  0
H  H7  1  0.42035302  0.80019052  0.27023751  1  0  0.118762  0  0.954097  0  0  0.128843  0  1.011695  0  0  0.13121  0  1.011272  0  0  0.104412  0.12761  0  1.011105  0
H  H8  1  0.32441658  0.99811187  0.75429917  1  0  0.081314  0  0.971164  0  0  0.089404  0  1.040624  0  0  0.091644  0  1.040305  0  0  0.089072  0.08756  0  1.041353  0
H  H9  1  0.67558685  0.00188810  0.24570231  1  0  0.081323  0  0.971152  0  0  0.089404  0  1.040616  0  0  0.091645  0  1.040296  0  0  0.089077  0.087562  0  1.041342  0
H  H10  1  0.10828438  0.91244702  0.57572236  1  0  0.084027  0  0.969884  0  0  0.093799  0  1.033906  0  0  0.096118  0  1.033757  0  0  0.093401  0.092148  0  1.034056  0
H  H11  1  0.89171827  0.08754932  0.42427710  1  0  0.084011  0  0.969864  0  0  0.093789  0  1.033883  0  0  0.096108  0  1.033733  0  0  0.093393  0.09214  0  1.034022  0
H  H12  1  0.14033168  0.02821491  0.36840218  1  0  0.111268  0  0.9712  0  0  0.120045  0  1.033872  0  0  0.12275  0  1.03261  0  0  0.101373  0.118075  0  1.034879  0
H  H13  1  0.85967225  0.97178746  0.63159756  1  0  0.111265  0  0.971196  0  0  0.120054  0  1.033851  0  0  0.122759  0  1.032589  0  0  0.101375  0.118088  0  1.034854  0
H  H14  1  0.61577923  0.46826991  0.19756187  1  0  0.119546  0  0.96136  0  0  0.128422  0  1.028869  0  0  0.129469  0  1.028991  0  0  0.121499  0.127667  0  1.02877  0
H  H15  1  0.38421692  0.53173012  0.80243918  1  0  0.119505  0  0.961404  0  0  0.128425  0  1.028846  0  0  0.129464  0  1.028976  0  0  0.121495  0.127669  0  1.028749  0
H  H16  1  0.68591516  0.60598778  0.32853555  1  0  0.125619  0  0.926197  0  0  0.134328  0  0.991472  0  0  0.136369  0  0.991281  0  0  0.12877  0.132824  0  0.991749  0
H  H17  1  0.31408295  0.39401584  0.67146389  1  0  0.125626  0  0.92618  0  0  0.134324  0  0.991478  0  0  0.136367  0  0.991286  0  0  0.12874  0.132819  0  0.99175  0
C  C18  1  0.90126230  0.33950847  0.22635874  1  0  0.157453  0  3.618051  0  0  0.081135  0  3.887931  0  0  0.092672  0  3.899997  0  0  0.179813  0.073974  0  3.879618  0
C  C19  1  0.09873580  0.66049516  0.77363977  1  0  0.157458  0  3.618181  0  0  0.081095  0  3.888063  0  0  0.092625  0  3.900138  0  0  0.179837  0.073936  0  3.879754  0
C  C20  1  0.49677164  0.23212509  0.53695687  1  0  0.153868  0  3.7954  0  0  0.14755  0  4.035987  0  0  0.151338  0  4.058762  0  0  0.092868  0.145004  0  4.020569  0
C  C21  1  0.50322718  0.76787612  0.46304253  1  0  0.153878  0  3.795369  0  0  0.147639  0  4.035878  0  0  0.151443  0  4.058631  0  0  0.092896  0.145081  0  4.020477  0
C  C22  1  0.48333326  0.16497824  0.65279943  1  0  -0.151396  0  3.743286  0  0  -0.166104  0  3.99007  0  0  -0.16943  0  4.010792  0  0  -0.095787  -0.16396  0  3.975581  0
C  C23  1  0.51667141  0.83502172  0.34720585  1  0  -0.151362  0  3.743315  0  0  -0.166073  0  3.990041  0  0  -0.169408  0  4.010761  0  0  -0.095763  -0.163931  0  3.975558  0
C  C24  1  0.34024416  0.05106072  0.66450703  1  0  -0.067626  0  3.782093  0  0  -0.087251  0  4.042738  0  0  -0.089227  0  4.065772  0  0  -0.10037  -0.085889  0  4.02741  0
C  C25  1  0.65975754  0.94893684  0.33549335  1  0  -0.067644  0  3.782132  0  0  -0.087262  0  4.042774  0  0  -0.089237  0  4.06581  0  0  -0.100373  -0.085897  0  4.027442  0
C  C26  1  0.21756879  0.00352935  0.56340459  1  0  -0.079647  0  3.78348  0  0  -0.097227  0  4.041776  0  0  -0.099973  0  4.064639  0  0  -0.10463  -0.095298  0  4.026184  0
C  C27  1  0.78243560  0.99646940  0.43659785  1  0  -0.079623  0  3.783486  0  0  -0.097215  0  4.041787  0  0  -0.09996  0  4.064648  0  0  -0.10466  -0.095286  0  4.026187  0
C  C28  1  0.23278067  0.06842761  0.44728871  1  0  -0.13646  0  3.732226  0  0  -0.155899  0  3.982983  0  0  -0.158056  0  4.002889  0  0  -0.094766  -0.154361  0  3.969555  0
C  C29  1  0.76721981  0.93156996  0.55271066  1  0  -0.136416  0  3.73246  0  0  -0.155871  0  3.983199  0  0  -0.158031  0  4.003109  0  0  -0.094715  -0.154334  0  3.969769  0
C  C30  1  0.37465080  0.18517315  0.43444489  1  0  0.141884  0  3.81626  0  0  0.140617  0  4.062647  0  0  0.143426  0  4.086792  0  0  0.080889  0.138604  0  4.046333  0
C  C31  1  0.62535602  0.81482558  0.56555676  1  0  0.141776  0  3.816432  0  0  0.140519  0  4.062768  0  0  0.143325  0  4.086911  0  0  0.080822  0.13851  0  4.046468  0
C  C32  1  0.57118383  0.36579989  0.37180158  1  0  0.379618  0  3.700579  0  0  0.346102  0  3.985464  0  0  0.363952  0  3.99761  0  0  0.224996  0.334511  0  3.976796  0
C  C33  1  0.42881405  0.63420253  0.62820058  1  0  0.379508  0  3.700496  0  0  0.346057  0  3.985361  0  0  0.363905  0  3.997517  0  0  0.225005  0.334483  0  3.976669  0
C  C34  1  0.67363575  0.48005806  0.29363368  1  0  -0.12314  0  3.639016  0  0  -0.193802  0  3.877591  0  0  -0.191994  0  3.883833  0  0  -0.035301  -0.194826  0  3.873472  0
C  C35  1  0.32636237  0.51994557  0.70636762  1  0  -0.123089  0  3.638985  0  0  -0.19378  0  3.877504  0  0  -0.191977  0  3.883764  0  0  -0.035297  -0.194805  0  3.873376  0
C  C36  1  0.58886249  0.35483011  0.94580980  1  0  0.305689  0  3.987709  0  0  0.282622  0  4.291074  0  0  0.30433  0  4.304526  0  0  0.148407  0.267848  0  4.281346  0
C  C37  1  0.41113678  0.64517349  0.05418227  1  0  0.305507  0  3.987835  0  0  0.282424  0  4.291221  0  0  0.304131  0  4.304681  0  0  0.14824  0.267643  0  4.281499  0
C  C38  1  0.95210843  0.12373049  0.89133105  1  0  0.326779  0  3.999127  0  0  0.308321  0  4.295083  0  0  0.331438  0  4.308515  0  0  0.151242  0.292528  0  4.285667  0
C  C39  1  0.04789638  0.87628757  0.10866929  1  0  0.32688  0  4.000017  0  0  0.308426  0  4.295911  0  0  0.331535  0  4.309323  0  0  0.151156  0.292637  0  4.28651  0
S  S40  1  0.52914557  0.18868874  0.01499873  1  0  -0.337692  0  2.238919  0  0  -0.300918  0  2.586758  0  0  -0.318815  0  2.579555  0  0  -0.136913  -0.28825  0  2.590413  0
S  S41  1  0.47085321  0.81131245  0.98499601  1  0  -0.337573  0  2.23904  0  0  -0.300786  0  2.586877  0  0  -0.318683  0  2.579677  0  0  -0.13689  -0.288115  0  2.590537  0
S  S42  1  0.05708857  0.30386201  0.93395288  1  0  -0.348488  0  2.190351  0  0  -0.323505  0  2.520913  0  0  -0.34289  0  2.518017  0  0  -0.160267  -0.309748  0  2.522871  0
S  S43  1  0.94289918  0.69612720  0.06604172  1  0  -0.348748  0  2.189602  0  0  -0.323798  0  2.520224  0  0  -0.343187  0  2.51732  0  0  -0.160354  -0.310033  0  2.522186  0
N  N44  1  0.42614858  0.27046215  0.33211504  1  0  -0.463849  0  3.113832  0  0  -0.404373  0  3.3921  0  0  -0.425446  0  3.406644  0  0  -0.345296  -0.390496  0  3.382004  0
N  N45  1  0.57385390  0.72953903  0.66788736  1  0  -0.463795  0  3.113743  0  0  -0.404348  0  3.392001  0  0  -0.425423  0  3.406547  0  0  -0.345322  -0.390476  0  3.381904  0
N  N46  1  0.61787774  0.34763574  0.49396398  1  0  -0.375749  0  3.37397  0  0  -0.317418  0  3.614834  0  0  -0.335896  0  3.62685  0  0  -0.376095  -0.304834  0  3.606147  0
N  N47  1  0.38212431  0.65236908  0.50604131  1  0  -0.375665  0  3.373882  0  0  -0.317467  0  3.614757  0  0  -0.33595  0  3.626774  0  0  -0.376087  -0.304899  0  3.606122  0
N  N48  1  0.84208509  0.45059598  0.29286449  1  0  0.046407  0  3.551524  0  0  0.163067  0  3.743574  0  0  0.151596  0  3.766535  0  0  -0.113199  0.168852  0  3.730969  0
N  N49  1  0.15791207  0.54940886  0.70713586  1  0  0.046381  0  3.551645  0  0  0.16312  0  3.743629  0  0  0.151682  0  3.766536  0  0  -0.113182  0.168902  0  3.731025  0
N  N50  1  0.06316876  0.36193438  0.25782208  1  0  -0.246631  0  3.084981  0  0  -0.200262  0  3.385392  0  0  -0.215696  0  3.400134  0  0  -0.208238  -0.189928  0  3.375222  0
N  N51  1  0.93683179  0.63806923  0.74217844  1  0  -0.246537  0  3.085009  0  0  -0.200148  0  3.385409  0  0  -0.215584  0  3.40016  0  0  -0.20822  -0.189822  0  3.375253  0
N  N52  1  0.10037102  0.48892793  0.34361955  1  0  -0.046918  0  3.012726  0  0  -0.032505  0  3.316874  0  0  -0.031853  0  3.32626  0  0  -0.059407  -0.032614  0  3.310365  0
N  N53  1  0.89962833  0.51107570  0.65638275  1  0  -0.046828  0  3.01273  0  0  -0.032432  0  3.316895  0  0  -0.031783  0  3.326289  0  0  -0.059384  -0.032539  0  3.310379  0
N  N54  1  0.63365900  0.47039463  0.89045098  1  0  -0.532273  0  2.894407  0  0  -0.475115  0  3.17082  0  0  -0.495559  0  3.177765  0  0  -0.391425  -0.461029  0  3.166045  0
N  N55  1  0.36634212  0.52960050  0.10953998  1  0  -0.532222  0  2.894386  0  0  -0.475041  0  3.170784  0  0  -0.495486  0  3.17774  0  0  -0.391293  -0.460948  0  3.166007  0
N  N56  1  0.87376290  0.99443117  0.85786978  1  0  -0.550584  0  2.920621  0  0  -0.487842  0  3.193189  0  0  -0.510151  0  3.19843  0  0  -0.402197  -0.472489  0  3.189185  0
N  N57  1  0.12621709  0.00553878  0.14211718  1  0  -0.550409  0  2.922141  0  0  -0.487655  0  3.194631  0  0  -0.509952  0  3.19986  0  0  -0.402005  -0.47231  0  3.190635  0
N  N58  1  0.96865039  0.54393220  0.36545540  1  0  -0.082419  0  2.849812  0  0  -0.108616  0  3.134993  0  0  -0.105548  0  3.143746  0  0  -0.066431  -0.11002  0  3.129078  0
N  N59  1  0.03134870  0.45607021  0.63454684  1  0  -0.082596  0  2.849993  0  0  -0.108807  0  3.135152  0  0  -0.105748  0  3.143909  0  0  -0.06648  -0.110202  0  3.129222  0
