# generated using pymatgen
data_Zn2H19C20NO11
_symmetry_space_group_name_H-M   'P 1'
_cell_length_a   13.63058293
_cell_length_b   14.05486100
_cell_length_c   17.55256355
_cell_angle_alpha   95.52518167
_cell_angle_beta   90.00005412
_cell_angle_gamma   89.99997813
_symmetry_Int_Tables_number   1
_chemical_formula_structural   Zn2H19C20NO11
_chemical_formula_sum   'Zn8 H76 C80 N4 O44'
_cell_volume   3347.02606710
_cell_formula_units_Z   4
loop_
 _symmetry_equiv_pos_site_id
 _symmetry_equiv_pos_as_xyz
  1  'x, y, z'
loop_
 _atom_site_type_symbol
 _atom_site_label
 _atom_site_symmetry_multiplicity
 _atom_site_fract_x
 _atom_site_fract_y
 _atom_site_fract_z
 _atom_site_occupancy
 _atom_site_pbe_bader_charge
 _atom_site_pbe_bader_spin_density
 _atom_site_pbe_cm5_charge
 _atom_site_pbe_ddec_charge
 _atom_site_pbe_ddec_spin_density
 _atom_site_pbe_ddec_sum_bond_order
 _atom_site_pbe_magmom
Zn  Zn0  1  0.54897403  0.01503665  0.72737273  1  1.319818  0  0.676831  0.922685  0  2.314475  0
Zn  Zn1  1  0.04897261  0.48496110  0.77262759  1  1.319834  0  0.676852  0.922747  0  2.314417  0
Zn  Zn2  1  0.45102617  0.98496190  0.27262553  1  1.319788  0  0.676839  0.922726  0  2.314519  0
Zn  Zn3  1  0.95102906  0.51503532  0.22737507  1  1.319729  0  0.676821  0.922707  0  2.314415  0
Zn  Zn4  1  0.69600010  0.07651776  0.86297273  1  1.380464  0  0.680382  0.996772  0  2.186928  0
Zn  Zn5  1  0.19600220  0.42348067  0.63702831  1  1.38043  0  0.68038  0.996787  0  2.186878  0
Zn  Zn6  1  0.30400010  0.92348079  0.13702667  1  1.380431  0  0.680361  0.996698  0  2.186941  0
Zn  Zn7  1  0.80399874  0.57651932  0.36297347  1  1.380467  0  0.680344  0.996751  0  2.186986  0
H  H8  1  0.56194499  0.80971284  0.00067990  1  0.045796  0  0.104645  0.105896  0  1.021188  0
H  H9  1  0.06194249  0.69028734  0.49931779  1  0.045942  0  0.104625  0.105889  0  1.021143  0
H  H10  1  0.43805815  0.19028857  0.99931800  1  0.045938  0  0.104624  0.105873  0  1.021168  0
H  H11  1  0.93805551  0.30971265  0.50068228  1  0.045803  0  0.104645  0.105928  0  1.021147  0
H  H12  1  0.82044463  0.64498641  0.04395688  1  0.064148  0  0.10553  0.108157  0  1.028813  0
H  H13  1  0.32043835  0.85502228  0.45604506  1  0.064192  0  0.105536  0.108182  0  1.028814  0
H  H14  1  0.17955704  0.35501429  0.95604211  1  0.064165  0  0.105529  0.108174  0  1.028763  0
H  H15  1  0.67956185  0.14497913  0.54395342  1  0.064191  0  0.105562  0.108233  0  1.028746  0
H  H16  1  0.62302984  0.73287637  0.22687076  1  0.103181  0  0.106208  0.113028  0  1.026686  0
H  H17  1  0.12301897  0.76713666  0.27313021  1  0.102955  0  0.106145  0.113014  0  1.026759  0
H  H18  1  0.37697109  0.26712360  0.77312703  1  0.103166  0  0.106171  0.112975  0  1.026699  0
H  H19  1  0.87697537  0.23287120  0.72687216  1  0.103162  0  0.10616  0.113002  0  1.026682  0
H  H20  1  0.64365225  0.85902169  0.91352682  1  0.112493  0  0.102294  0.114374  0  1.040951  0
H  H21  1  0.14365220  0.64097625  0.58647459  1  0.112441  0  0.102293  0.114296  0  1.041059  0
H  H22  1  0.35634429  0.14097829  0.08647268  1  0.112509  0  0.1023  0.114372  0  1.040975  0
H  H23  1  0.85634654  0.35902161  0.41352874  1  0.112502  0  0.102282  0.114294  0  1.041006  0
H  H24  1  0.82259183  0.60696685  0.92655973  1  0.090543  0  0.101708  0.103215  0  1.034505  0
H  H25  1  0.32258726  0.89303748  0.57344513  1  0.090607  0  0.101715  0.103247  0  1.034387  0
H  H26  1  0.17741204  0.39303742  0.07343952  1  0.090643  0  0.101694  0.103179  0  1.03448  0
H  H27  1  0.67741001  0.10696465  0.42655681  1  0.090556  0  0.101702  0.103226  0  1.034492  0
H  H28  1  0.72689773  0.32018090  0.07774515  1  0.107952  0  0.104846  0.165981  0  1.014545  0
H  H29  1  0.22689954  0.17981974  0.42225396  1  0.108061  0  0.104836  0.165932  0  1.014655  0
H  H30  1  0.27309954  0.67981907  0.92225265  1  0.108024  0  0.104854  0.165979  0  1.014643  0
H  H31  1  0.77310139  0.82017882  0.57774543  1  0.108087  0  0.104844  0.165955  0  1.014593  0
H  H32  1  0.72321632  0.19372761  0.06460286  1  0.078994  0  0.104527  0.15211  0  0.992972  0
H  H33  1  0.22321883  0.30627304  0.43539739  1  0.078993  0  0.104549  0.152118  0  0.993008  0
H  H34  1  0.27678315  0.80627308  0.93539385  1  0.078912  0  0.104544  0.152132  0  0.993072  0
H  H35  1  0.77678284  0.69372552  0.56460372  1  0.078939  0  0.104573  0.152153  0  0.993086  0
H  H36  1  0.64330480  0.25968624  0.01005323  1  0.091415  0  0.105525  0.164348  0  0.990751  0
H  H37  1  0.14330814  0.24031371  0.48994634  1  0.091493  0  0.105511  0.164335  0  0.990782  0
H  H38  1  0.35669394  0.74031302  0.98994452  1  0.091352  0  0.10554  0.164397  0  0.990746  0
H  H39  1  0.85669206  0.75968413  0.51005300  1  0.091456  0  0.105513  0.16436  0  0.990785  0
H  H40  1  0.91745517  0.45596600  0.00225323  1  0.063502  0  0.110788  0.126955  0  0.996282  0
H  H41  1  0.41746153  0.04403602  0.49774612  1  0.063407  0  0.110774  0.126903  0  0.996283  0
H  H42  1  0.08254136  0.54403541  0.99774524  1  0.063448  0  0.110777  0.126946  0  0.996289  0
H  H43  1  0.58254160  0.95596325  0.50225333  1  0.063479  0  0.110801  0.126954  0  0.996298  0
H  H44  1  0.86187066  0.39695040  0.07618809  1  0.128322  0  0.110261  0.144436  0  1.032777  0
H  H45  1  0.36187471  0.10305235  0.42381071  1  0.128306  0  0.110269  0.144443  0  1.032727  0
H  H46  1  0.13812734  0.60304958  0.92380971  1  0.128278  0  0.110257  0.144448  0  1.032789  0
H  H47  1  0.63812769  0.89694692  0.57618874  1  0.128311  0  0.110264  0.144428  0  1.032744  0
H  H48  1  0.78766836  0.45590445  0.01105246  1  0.08012  0  0.103517  0.117308  0  0.985261  0
H  H49  1  0.28767471  0.04409689  0.48894618  1  0.080263  0  0.103547  0.117321  0  0.985187  0
H  H50  1  0.21232818  0.54409553  0.98894534  1  0.080194  0  0.103533  0.117327  0  0.985262  0
H  H51  1  0.71232843  0.95590238  0.51105270  1  0.080141  0  0.103541  0.117347  0  0.98521  0
H  H52  1  0.97310487  0.37668646  0.90542605  1  0.053381  0  0.109727  0.129397  0  1.012324  0
H  H53  1  0.47310923  0.12331760  0.59457276  1  0.053269  0  0.109726  0.129434  0  1.012289  0
H  H54  1  0.02689607  0.62331494  0.09457128  1  0.05338  0  0.109756  0.12945  0  1.012302  0
H  H55  1  0.52689170  0.87668310  0.40542680  1  0.053296  0  0.109732  0.129427  0  1.012287  0
H  H56  1  0.87802673  0.32709892  0.84449937  1  0.089949  0  0.109558  0.132651  0  0.983791  0
H  H57  1  0.37803189  0.17290303  0.65549979  1  0.089605  0  0.109505  0.132575  0  0.983837  0
H  H58  1  0.12197420  0.67290249  0.15549796  1  0.090028  0  0.109527  0.13263  0  0.98379  0
H  H59  1  0.62196831  0.82709696  0.34449915  1  0.089563  0  0.109519  0.132604  0  0.983852  0
H  H60  1  0.95675489  0.25027821  0.89148781  1  0.053784  0  0.104988  0.117531  0  0.987567  0
H  H61  1  0.45676215  0.24972443  0.60851259  1  0.053647  0  0.104954  0.117489  0  0.987575  0
H  H62  1  0.04324312  0.74972320  0.10851123  1  0.053737  0  0.104962  0.117496  0  0.987581  0
H  H63  1  0.54324025  0.75027555  0.39148634  1  0.053672  0  0.104925  0.117452  0  0.987595  0
H  H64  1  0.80299090  0.73766333  0.71666495  1  0.10433  0  0.105155  0.11073  0  1.020605  0
H  H65  1  0.30298957  0.76233028  0.78333796  1  0.10461  0  0.105153  0.110666  0  1.020598  0
H  H66  1  0.19700930  0.26233666  0.28333569  1  0.104369  0  0.105146  0.110722  0  1.020565  0
H  H67  1  0.69701136  0.23766899  0.21666320  1  0.104614  0  0.105154  0.110663  0  1.02064  0
H  H68  1  0.60958715  0.06052760  0.99169324  1  0.642233  0  0.325269  0.409492  0  0.881944  0
H  H69  1  0.10958395  0.43947015  0.50830996  1  0.64216  0  0.325288  0.409505  0  0.881988  0
H  H70  1  0.39041526  0.93947238  0.00830683  1  0.642799  0  0.325287  0.409501  0  0.881903  0
H  H71  1  0.89041625  0.56053199  0.49169255  1  0.642276  0  0.325308  0.409551  0  0.881866  0
H  H72  1  0.70831234  0.01867551  0.01875035  1  0.59792  0  0.339384  0.418215  0  0.850239  0
H  H73  1  0.20830824  0.48132300  0.48125030  1  0.597961  0  0.339421  0.418289  0  0.85005  0
H  H74  1  0.29168859  0.98132304  0.98124962  1  0.59794  0  0.339402  0.418271  0  0.850186  0
H  H75  1  0.79169343  0.51867700  0.51875262  1  0.597923  0  0.339401  0.418308  0  0.850075  0
H  H76  1  0.86998313  0.07629078  0.88091679  1  0.651481  0  0.308719  0.395049  0  0.920799  0
H  H77  1  0.36998667  0.42371046  0.61908573  1  0.651493  0  0.308682  0.39503  0  0.920794  0
H  H78  1  0.13001781  0.92370991  0.11908106  1  0.651486  0  0.308711  0.395017  0  0.920835  0
H  H79  1  0.63001793  0.57628310  0.38091785  1  0.65155  0  0.30872  0.395054  0  0.92078  0
H  H80  1  0.86104510  0.01435232  0.80312340  1  0.636193  0  0.329755  0.411742  0  0.859041  0
H  H81  1  0.36104799  0.48564750  0.69688072  1  0.636112  0  0.329781  0.411796  0  0.859031  0
H  H82  1  0.13895583  0.98564481  0.19687646  1  0.63619  0  0.329732  0.411713  0  0.85907  0
H  H83  1  0.63895148  0.51434392  0.30312327  1  0.636349  0  0.329729  0.411727  0  0.859123  0
C  C84  1  0.89504279  0.59706696  0.78362201  1  1.533769  0  0.192883  0.568706  0  4.219251  0
C  C85  1  0.39504206  0.90293020  0.71638066  1  1.533652  0  0.192665  0.568254  0  4.219724  0
C  C86  1  0.10495741  0.40293517  0.21637765  1  1.533761  0  0.192867  0.568659  0  4.219264  0
C  C87  1  0.60495888  0.09706907  0.28361936  1  1.53367  0  0.19266  0.568168  0  4.219742  0
C  C88  1  0.82103422  0.66670041  0.81924231  1  0.052772  0  -0.018023  -0.021535  0  3.989053  0
C  C89  1  0.32103641  0.83329749  0.68076208  1  0.053175  0  -0.017947  -0.021336  0  3.988901  0
C  C90  1  0.17896304  0.33329886  0.18075942  1  0.05287  0  -0.018028  -0.021444  0  3.988909  0
C  C91  1  0.67896452  0.16670250  0.31923914  1  0.052799  0  -0.01798  -0.021285  0  3.989013  0
C  C92  1  0.78684162  0.62683698  0.19163448  1  1.580514  0  0.218443  0.602405  0  4.165792  0
C  C93  1  0.28683514  0.87316672  0.30836535  1  1.57994  0  0.21853  0.602508  0  4.165556  0
C  C94  1  0.21316152  0.37316229  0.80836440  1  1.579866  0  0.21848  0.60242  0  4.165776  0
C  C95  1  0.71316139  0.12683326  0.69163302  1  1.58051  0  0.21852  0.602539  0  4.165574  0
C  C96  1  0.49967041  0.83606086  0.14751992  1  1.562168  0  0.225093  0.614816  0  4.154064  0
C  C97  1  0.99966973  0.66394063  0.35247875  1  1.562217  0  0.225148  0.614944  0  4.154035  0
C  C98  1  0.50032979  0.16393697  0.85247771  1  1.562265  0  0.224984  0.614645  0  4.154305  0
C  C99  1  0.00032974  0.33606008  0.64752194  1  1.562278  0  0.22515  0.614955  0  4.154057  0
C  C100  1  0.58419357  0.77713837  0.11615880  1  -0.025837  0  -0.020734  -0.038359  0  4.006455  0
C  C101  1  0.08419018  0.72286539  0.38384259  1  -0.025997  0  -0.020698  -0.038421  0  4.00638  0
C  C102  1  0.41580884  0.22286162  0.88384070  1  -0.025943  0  -0.020711  -0.038362  0  4.006335  0
C  C103  1  0.91580855  0.27713532  0.61615868  1  -0.025931  0  -0.020777  -0.038509  0  4.006406  0
C  C104  1  0.60943382  0.77391671  0.03885858  1  0.025304  0  -0.077666  -0.130599  0  3.923318  0
C  C105  1  0.10943126  0.72608775  0.46114060  1  0.025321  0  -0.077677  -0.130577  0  3.92335  0
C  C106  1  0.39056858  0.22608542  0.96113994  1  0.025339  0  -0.077671  -0.13057  0  3.923289  0
C  C107  1  0.89056747  0.27391295  0.53885952  1  0.025434  0  -0.077703  -0.130676  0  3.923413  0
C  C108  1  0.69559740  0.72784803  0.01106869  1  -0.018036  0  -0.007021  0.068311  0  4.012577  0
C  C109  1  0.19559486  0.77215426  0.48893382  1  -0.017485  0  -0.007011  0.068391  0  4.012373  0
C  C110  1  0.30440426  0.27215338  0.98893263  1  -0.018166  0  -0.007082  0.068231  0  4.012355  0
C  C111  1  0.80440460  0.22784572  0.51106683  1  -0.017855  0  -0.007047  0.0684  0  4.012456  0
C  C112  1  0.75241600  0.68069249  0.06236854  1  -0.039151  0  -0.079096  -0.136065  0  3.924972  0
C  C113  1  0.25241191  0.81931408  0.43763319  1  -0.039475  0  -0.079069  -0.13607  0  3.924924  0
C  C114  1  0.24758494  0.31930963  0.93762999  1  -0.038989  0  -0.079078  -0.136027  0  3.924902  0
C  C115  1  0.74758536  0.18068949  0.56236829  1  -0.039303  0  -0.079082  -0.136089  0  3.924986  0
C  C116  1  0.72512374  0.67984957  0.13912530  1  -0.017995  0  -0.021814  -0.035382  0  4.002503  0
C  C117  1  0.22511809  0.82015700  0.36087640  1  -0.018244  0  -0.02191  -0.035568  0  4.002677  0
C  C118  1  0.27488013  0.32015327  0.86087498  1  -0.018139  0  -0.021778  -0.035382  0  4.002692  0
C  C119  1  0.77487918  0.17984799  0.63912519  1  -0.018121  0  -0.021866  -0.035548  0  4.002686  0
C  C120  1  0.64210309  0.72998667  0.16653144  1  -0.012671  0  -0.078037  -0.103473  0  3.932835  0
C  C121  1  0.14209742  0.77001992  0.33346736  1  -0.012473  0  -0.077969  -0.103419  0  3.932672  0
C  C122  1  0.35789858  0.27001474  0.83346589  1  -0.012644  0  -0.078038  -0.103441  0  3.932645  0
C  C123  1  0.85789838  0.22998436  0.66653360  1  -0.012645  0  -0.077961  -0.10333  0  3.932653  0
C  C124  1  0.72648513  0.73087083  0.93059852  1  -0.040521  0  -0.011995  0.056879  0  4.022823  0
C  C125  1  0.22648721  0.76913066  0.56940379  1  -0.04056  0  -0.011998  0.056868  0  4.022512  0
C  C126  1  0.27351214  0.26913058  0.06940167  1  -0.040515  0  -0.012001  0.056868  0  4.022774  0
C  C127  1  0.77351519  0.23086861  0.43059737  1  -0.040523  0  -0.01199  0.056827  0  4.02266  0
C  C128  1  0.69158049  0.80299781  0.88780861  1  -0.066992  0  -0.080013  -0.123549  0  3.903399  0
C  C129  1  0.19157825  0.69699940  0.61219335  1  -0.066804  0  -0.079914  -0.123357  0  3.903033  0
C  C130  1  0.30841751  0.19700145  0.11218970  1  -0.067033  0  -0.079934  -0.123463  0  3.903192  0
C  C131  1  0.80841828  0.30299773  0.38780822  1  -0.067043  0  -0.079936  -0.123364  0  3.903401  0
C  C132  1  0.71835626  0.80550083  0.81126040  1  0.066392  0  -0.020891  -0.031294  0  4.006488  0
C  C133  1  0.21835412  0.69449852  0.68874345  1  0.066407  0  -0.020964  -0.031272  0  4.006751  0
C  C134  1  0.28164100  0.19449916  0.18874139  1  0.066765  0  -0.020936  -0.031267  0  4.006676  0
C  C135  1  0.78164242  0.30550362  0.31126077  1  0.066635  0  -0.020872  -0.031302  0  4.006643  0
C  C136  1  0.78222586  0.73656632  0.77645298  1  -0.102492  0  -0.073609  -0.103489  0  3.92556  0
C  C137  1  0.28222520  0.76342657  0.72354702  1  -0.102843  0  -0.073596  -0.103431  0  3.925651  0
C  C138  1  0.21777287  0.26343151  0.22354409  1  -0.102569  0  -0.073626  -0.103576  0  3.925712  0
C  C139  1  0.71777280  0.23657127  0.27645290  1  -0.102851  0  -0.073646  -0.103487  0  3.925702  0
C  C140  1  0.79238766  0.66366603  0.89547957  1  -0.057342  0  -0.078423  -0.129076  0  3.917758  0
C  C141  1  0.29238535  0.83633402  0.60452438  1  -0.057662  0  -0.07848  -0.129249  0  3.917609  0
C  C142  1  0.20761327  0.33633752  0.10451963  1  -0.057442  0  -0.078399  -0.129071  0  3.917656  0
C  C143  1  0.70761191  0.16366383  0.39547724  1  -0.057314  0  -0.078466  -0.129227  0  3.917676  0
C  C144  1  0.67462735  0.87855615  0.76547088  1  1.472353  0  0.210338  0.584767  0  4.155966  0
C  C145  1  0.17462235  0.62144174  0.73452086  1  1.472209  0  0.21019  0.584406  0  4.15551  0
C  C146  1  0.32537359  0.12144165  0.23451763  1  1.472062  0  0.210288  0.584584  0  4.155586  0
C  C147  1  0.82537418  0.37855964  0.26547077  1  1.471737  0  0.210396  0.584848  0  4.155814  0
C  C148  1  0.79046344  0.25354689  0.97094675  1  1.339419  0  0.250616  0.533984  0  4.00882  0
C  C149  1  0.29046768  0.24645508  0.52905291  1  1.3397  0  0.250543  0.533861  0  4.009088  0
C  C150  1  0.20953456  0.74645523  0.02905006  1  1.339605  0  0.250616  0.534055  0  4.008981  0
C  C151  1  0.70953252  0.75354276  0.47094700  1  1.339638  0  0.250583  0.533998  0  4.00907  0
C  C152  1  0.71720994  0.25897158  0.03513295  1  -0.111429  0  -0.23502  -0.5104  0  3.896637  0
C  C153  1  0.21721399  0.24102835  0.46486667  1  -0.111796  0  -0.235043  -0.510371  0  3.896858  0
C  C154  1  0.28278879  0.74102911  0.96486375  1  -0.111614  0  -0.235041  -0.510468  0  3.896779  0
C  C155  1  0.78278695  0.75896949  0.53513382  1  -0.111708  0  -0.235059  -0.510443  0  3.896892  0
C  C156  1  0.85435884  0.41315640  0.01670861  1  0.212853  0  -0.132379  -0.2773  0  3.876223  0
C  C157  1  0.35436590  0.08684564  0.48329069  1  0.212748  0  -0.13243  -0.277336  0  3.875979  0
C  C158  1  0.14563769  0.58684429  0.98328923  1  0.212738  0  -0.132393  -0.277328  0  3.876105  0
C  C159  1  0.64563723  0.91315363  0.51670876  1  0.212803  0  -0.132393  -0.277314  0  3.876079  0
C  C160  1  0.91883427  0.31940746  0.89749682  1  0.283546  0  -0.132105  -0.265078  0  3.888885  0
C  C161  1  0.41884009  0.18059590  0.60250248  1  0.28406  0  -0.131961  -0.265007  0  3.888933  0
C  C162  1  0.08116447  0.68059395  0.10250109  1  0.283542  0  -0.132029  -0.26503  0  3.888872  0
C  C163  1  0.58116158  0.81940336  0.39749697  1  0.284059  0  -0.131938  -0.264913  0  3.888964  0
N  N164  1  0.85287968  0.32564114  0.96372260  1  -1.183682  0  -0.263931  -0.004216  0  3.60651  0
N  N165  1  0.35288542  0.17436081  0.53627596  1  -1.183616  0  -0.263918  -0.003992  0  3.606463  0
N  N166  1  0.14711759  0.67436026  0.03627416  1  -1.183591  0  -0.263994  -0.004278  0  3.606519  0
N  N167  1  0.64711625  0.82563846  0.46372292  1  -1.183573  0  -0.264059  -0.004302  0  3.606638  0
O  O168  1  0.94460270  0.55056379  0.83209018  1  -1.155555  0  -0.345351  -0.577552  0  2.265043  0
O  O169  1  0.44460336  0.94943122  0.66791636  1  -1.155414  0  -0.34537  -0.577407  0  2.265327  0
O  O170  1  0.05539896  0.44943834  0.16791120  1  -1.155608  0  -0.345341  -0.577528  0  2.265143  0
O  O171  1  0.55539610  0.05056590  0.33208236  1  -1.155398  0  -0.345387  -0.577401  0  2.265417  0
O  O172  1  0.90872448  0.58765014  0.71292384  1  -1.154126  0  -0.344748  -0.561348  0  2.062775  0
O  O173  1  0.40872090  0.91234847  0.78708522  1  -1.154215  0  -0.344538  -0.561113  0  2.062666  0
O  O174  1  0.09127645  0.41235200  0.28707868  1  -1.154127  0  -0.344706  -0.561307  0  2.062655  0
O  O175  1  0.59128224  0.08765223  0.21291434  1  -1.154206  0  -0.344517  -0.561075  0  2.062648  0
O  O176  1  0.86081056  0.58236783  0.16129001  1  -1.170909  0  -0.311214  -0.540039  0  2.35502  0
O  O177  1  0.36080925  0.91763299  0.33871136  1  -1.170946  0  -0.311281  -0.540123  0  2.35483  0
O  O178  1  0.13918964  0.41763144  0.83871115  1  -1.170864  0  -0.31128  -0.540133  0  2.354898  0
O  O179  1  0.63919242  0.08236485  0.66128741  1  -1.170948  0  -0.311279  -0.540148  0  2.354932  0
O  O180  1  0.76025952  0.62965708  0.26152735  1  -1.191065  0  -0.32499  -0.600009  0  2.34788  0
O  O181  1  0.26025737  0.87034591  0.23847469  1  -1.190457  0  -0.324972  -0.599954  0  2.347948  0
O  O182  1  0.23973994  0.37034147  0.73847262  1  -1.190481  0  -0.324932  -0.599911  0  2.34803  0
O  O183  1  0.73974283  0.12965265  0.76152585  1  -1.191034  0  -0.324984  -0.599998  0  2.34785  0
O  O184  1  0.84581175  0.01416764  0.85742208  1  -1.234459  0  -0.560562  -0.720312  0  2.006513  0
O  O185  1  0.34581310  0.48583290  0.64258207  1  -1.234398  0  -0.560533  -0.720339  0  2.006532  0
O  O186  1  0.15418845  0.98583306  0.14257747  1  -1.23444  0  -0.560519  -0.720232  0  2.006543  0
O  O187  1  0.65418857  0.51416066  0.35742151  1  -1.234709  0  -0.560525  -0.720297  0  2.006621  0
O  O188  1  0.43118541  0.85670445  0.10161849  1  -1.182909  0  -0.319852  -0.585666  0  2.323535  0
O  O189  1  0.93118186  0.64329778  0.39838133  1  -1.182947  0  -0.319925  -0.585779  0  2.323452  0
O  O190  1  0.56881479  0.14329411  0.89838205  1  -1.182953  0  -0.319812  -0.585602  0  2.323501  0
O  O191  1  0.06881687  0.35670292  0.60161880  1  -1.18292  0  -0.319913  -0.585765  0  2.32339  0
O  O192  1  0.63360050  0.95411259  0.80415116  1  -1.173852  0  -0.336499  -0.615591  0  2.471919  0
O  O193  1  0.13359989  0.54588679  0.69585263  1  -1.174129  0  -0.336513  -0.615453  0  2.472249  0
O  O194  1  0.36639970  0.04588668  0.19584943  1  -1.174091  0  -0.336468  -0.615478  0  2.472098  0
O  O195  1  0.86640178  0.45411393  0.30415320  1  -1.173474  0  -0.336536  -0.615581  0  2.471774  0
O  O196  1  0.50281191  0.86276184  0.21848605  1  -1.180294  0  -0.308871  -0.545965  0  2.363007  0
O  O197  1  0.00281284  0.63723979  0.28151455  1  -1.180292  0  -0.308854  -0.545966  0  2.363082  0
O  O198  1  0.49719122  0.13723743  0.78151340  1  -1.180369  0  -0.308833  -0.545864  0  2.363214  0
O  O199  1  0.99718516  0.36276162  0.71848449  1  -1.180383  0  -0.308848  -0.545957  0  2.36326  0
O  O200  1  0.66223273  0.01556118  0.97622739  1  -1.188864  0  -0.543351  -0.725415  0  2.057392  0
O  O201  1  0.16222806  0.48443655  0.52377528  1  -1.188814  0  -0.543408  -0.725494  0  2.057327  0
O  O202  1  0.33776967  0.98443952  0.02377217  1  -1.189456  0  -0.543369  -0.725452  0  2.057351  0
O  O203  1  0.83777287  0.51556059  0.47622914  1  -1.188932  0  -0.543408  -0.725555  0  2.057231  0
O  O204  1  0.79345302  0.18000002  0.92244334  1  -1.199271  0  -0.320825  -0.586428  0  2.344859  0
O  O205  1  0.29345656  0.31999981  0.57755560  1  -1.199239  0  -0.320766  -0.586413  0  2.344962  0
O  O206  1  0.20654571  0.81999995  0.07755218  1  -1.199159  0  -0.320843  -0.58647  0  2.345054  0
O  O207  1  0.70654364  0.67999732  0.42244540  1  -1.199309  0  -0.320773  -0.586445  0  2.345054  0
O  O208  1  0.67243738  0.86674636  0.69445633  1  -1.117547  0  -0.299933  -0.521823  0  2.150224  0
O  O209  1  0.17242807  0.63325305  0.80555775  1  -1.117451  0  -0.299856  -0.521734  0  2.148962  0
O  O210  1  0.32756722  0.13325580  0.30555246  1  -1.117399  0  -0.299931  -0.521807  0  2.149335  0
O  O211  1  0.82757140  0.36675056  0.19445684  1  -1.11751  0  -0.299962  -0.521875  0  2.15026  0
