# generated using pymatgen
data_Cu2H13C9S2NCl2
_symmetry_space_group_name_H-M   'P 1'
_cell_length_a   7.93543942
_cell_length_b   11.88055672
_cell_length_c   14.48357101
_cell_angle_alpha   93.06460301
_cell_angle_beta   91.12274467
_cell_angle_gamma   105.85351224
_symmetry_Int_Tables_number   1
_chemical_formula_structural   Cu2H13C9S2NCl2
_chemical_formula_sum   'Cu8 H52 C36 S8 N4 Cl8'
_cell_volume   1310.82577248
_cell_formula_units_Z   4
loop_
 _symmetry_equiv_pos_site_id
 _symmetry_equiv_pos_as_xyz
  1  'x, y, z'
loop_
 _atom_site_type_symbol
 _atom_site_label
 _atom_site_symmetry_multiplicity
 _atom_site_fract_x
 _atom_site_fract_y
 _atom_site_fract_z
 _atom_site_occupancy
 _atom_site_hle17_bader_spin_density
 _atom_site_hle17_ddec_charge
 _atom_site_hle17_ddec_spin_density
 _atom_site_hle17_ddec_sum_bond_order
 _atom_site_hle17_magmom
 _atom_site_hse06_10hf_bader_spin_density
 _atom_site_hse06_10hf_ddec_charge
 _atom_site_hse06_10hf_ddec_spin_density
 _atom_site_hse06_10hf_ddec_sum_bond_order
 _atom_site_hse06_10hf_magmom
 _atom_site_hse06_bader_spin_density
 _atom_site_hse06_ddec_charge
 _atom_site_hse06_ddec_spin_density
 _atom_site_hse06_ddec_sum_bond_order
 _atom_site_hse06_magmom
 _atom_site_pbe_bader_spin_density
 _atom_site_pbe_cm5_charge
 _atom_site_pbe_ddec_charge
 _atom_site_pbe_ddec_spin_density
 _atom_site_pbe_ddec_sum_bond_order
 _atom_site_pbe_magmom
Cu  Cu0  1  0.68495748  0.96308236  0.23447908  1  0  0.313966  0  2.106856  0  0  0.229281  0  2.596102  0  0  0.234767  0  2.545818  0  0  0.343216  0.228152  0  2.628387  0
Cu  Cu1  1  0.31504961  0.03691950  0.76551916  1  0  0.313967  0  2.106932  0  0  0.229273  0  2.596176  0  0  0.234756  0  2.545914  0  0  0.343219  0.228153  0  2.628451  0
Cu  Cu2  1  0.53629936  0.73018753  0.23671489  1  0  0.300407  0  2.059324  0  0  0.196584  0  2.583812  0  0  0.21707  0  2.517815  0  0  0.278772  0.183742  0  2.628127  0
Cu  Cu3  1  0.46370180  0.26981523  0.76328194  1  0  0.300424  0  2.059305  0  0  0.196598  0  2.583784  0  0  0.217089  0  2.517792  0  0  0.278756  0.183757  0  2.628099  0
Cu  Cu4  1  0.50693743  0.24401386  0.25757978  1  0  0.304631  0  2.098847  0  0  0.20386  0  2.622084  0  0  0.219342  0  2.562405  0  0  0.289612  0.195021  0  2.661334  0
Cu  Cu5  1  0.49306241  0.75598276  0.74241953  1  0  0.304686  0  2.098803  0  0  0.203919  0  2.622033  0  0  0.219401  0  2.562359  0  0  0.289627  0.195085  0  2.66127  0
Cu  Cu6  1  0.66090386  0.46411217  0.25385101  1  0  0.307686  0  2.177436  0  0  0.226773  0  2.670543  0  0  0.229186  0  2.622967  0  0  0.34755  0.227449  0  2.700998  0
Cu  Cu7  1  0.33908826  0.53588711  0.74615108  1  0  0.307678  0  2.1774  0  0  0.226766  0  2.670499  0  0  0.229184  0  2.622926  0  0  0.347548  0.227466  0  2.700896  0
H  H8  1  0.08720683  0.14860437  0.23911401  1  0  0.119184  0  0.917921  0  0  0.135666  0  0.978644  0  0  0.137152  0  0.97805  0  0  0.104595  0.134518  0  0.979216  0
H  H9  1  0.91280236  0.85139661  0.76089182  1  0  0.119167  0  0.917936  0  0  0.135624  0  0.978681  0  0  0.137108  0  0.978088  0  0  0.104575  0.13448  0  0.97925  0
H  H10  1  0.20548459  0.05819687  0.28753505  1  0  0.103883  0  0.958159  0  0  0.116527  0  1.028714  0  0  0.119264  0  1.025604  0  0  0.092557  0.11435  0  1.031262  0
H  H11  1  0.79452116  0.94179885  0.71246774  1  0  0.103923  0  0.958158  0  0  0.116549  0  1.028727  0  0  0.119284  0  1.025618  0  0  0.092593  0.114373  0  1.031274  0
H  H12  1  0.92790740  0.82902687  0.33981657  1  0  0.122574  0  0.973491  0  0  0.137803  0  1.04225  0  0  0.139896  0  1.04145  0  0  0.087091  0.136203  0  1.04295  0
H  H13  1  0.07208954  0.17096887  0.66018542  1  0  0.1226  0  0.973419  0  0  0.13779  0  1.042228  0  0  0.139884  0  1.041428  0  0  0.087052  0.136194  0  1.042919  0
H  H14  1  0.85907754  0.87568364  0.44780859  1  0  0.127551  0  0.952095  0  0  0.14685  0  1.013041  0  0  0.147874  0  1.014175  0  0  0.093628  0.146035  0  1.012371  0
H  H15  1  0.14091799  0.12431475  0.55219281  1  0  0.127586  0  0.952142  0  0  0.146883  0  1.013074  0  0  0.147908  0  1.014208  0  0  0.093629  0.146072  0  1.012395  0
H  H16  1  0.08670096  0.92112909  0.42217142  1  0  0.120823  0  0.946611  0  0  0.141576  0  1.002686  0  0  0.142752  0  1.003757  0  0  0.089273  0.140752  0  1.001921  0
H  H17  1  0.91329634  0.07886753  0.57783131  1  0  0.120915  0  0.946695  0  0  0.141702  0  1.002691  0  0  0.142878  0  1.003762  0  0  0.089334  0.140878  0  1.001936  0
H  H18  1  0.30527637  0.99429024  0.14364562  1  0  0.110256  0  0.986062  0  0  0.115975  0  1.056419  0  0  0.119812  0  1.054388  0  0  0.091886  0.113028  0  1.058273  0
H  H19  1  0.69473216  0.00571513  0.85635556  1  0  0.110226  0  0.986088  0  0  0.116005  0  1.056386  0  0  0.119842  0  1.054356  0  0  0.091893  0.113064  0  1.058241  0
H  H20  1  0.23092161  0.86862920  0.99469575  1  0  0.097563  0  0.964341  0  0  0.110659  0  1.020876  0  0  0.113221  0  1.019305  0  0  0.096657  0.108666  0  1.022155  0
H  H21  1  0.76908965  0.13137967  0.00530354  1  0  0.097558  0  0.96433  0  0  0.110675  0  1.02083  0  0  0.113232  0  1.019271  0  0  0.096664  0.108682  0  1.022103  0
H  H22  1  0.91340713  0.78421188  0.94656375  1  0  0.113414  0  0.943762  0  0  0.12525  0  1.002409  0  0  0.128121  0  1.00235  0  0  0.104017  0.123106  0  1.00271  0
H  H23  1  0.08660614  0.21579874  0.05343357  1  0  0.113435  0  0.943726  0  0  0.125277  0  1.002351  0  0  0.128144  0  1.002288  0  0  0.104037  0.123134  0  1.002651  0
H  H24  1  0.61478500  0.79799765  0.96263733  1  0  0.119945  0  0.962631  0  0  0.130877  0  1.027077  0  0  0.132633  0  1.027648  0  0  0.091165  0.129576  0  1.026787  0
H  H25  1  0.38522192  0.20200685  0.03736102  1  0  0.119962  0  0.962542  0  0  0.130882  0  1.026998  0  0  0.13264  0  1.027574  0  0  0.091138  0.129577  0  1.026709  0
H  H26  1  0.55770532  0.87545859  0.06273816  1  0  0.113211  0  0.934354  0  0  0.12487  0  0.999082  0  0  0.128362  0  0.99555  0  0  0.096706  0.122196  0  1.001835  0
H  H27  1  0.44229798  0.12454328  0.93726073  1  0  0.113206  0  0.934406  0  0  0.124877  0  0.999107  0  0  0.128372  0  0.995575  0  0  0.096686  0.122198  0  1.001865  0
H  H28  1  0.35309534  0.62266375  0.96126656  1  0  0.127649  0  0.987333  0  0  0.142686  0  1.054547  0  0  0.144521  0  1.054636  0  0  0.083168  0.14122  0  1.054707  0
H  H29  1  0.64691622  0.37733371  0.03872948  1  0  0.127742  0  0.987352  0  0  0.142684  0  1.054649  0  0  0.144533  0  1.054726  0  0  0.083163  0.141219  0  1.054804  0
H  H30  1  0.25377979  0.67918512  0.05813431  1  0  0.11902  0  0.96399  0  0  0.139289  0  1.023729  0  0  0.140148  0  1.024819  0  0  0.089582  0.138628  0  1.023081  0
H  H31  1  0.74622925  0.32081235  0.94186169  1  0  0.11893  0  0.963977  0  0  0.139269  0  1.023648  0  0  0.14013  0  1.024734  0  0  0.089565  0.138608  0  1.023002  0
H  H32  1  0.28318298  0.53413774  0.05666867  1  0  0.133791  0  0.954605  0  0  0.1509  0  1.017735  0  0  0.152379  0  1.018204  0  0  0.091209  0.149772  0  1.017504  0
H  H33  1  0.71683181  0.46586146  0.94333025  1  0  0.133806  0  0.954576  0  0  0.15091  0  1.017698  0  0  0.15239  0  1.018168  0  0  0.091232  0.149781  0  1.017475  0
H  H34  1  0.56256037  0.44055919  0.43767752  1  0  0.122918  0  0.950387  0  0  0.136726  0  1.012052  0  0  0.13933  0  1.010222  0  0  0.096483  0.134723  0  1.013562  0
H  H35  1  0.43743370  0.55943570  0.56232440  1  0  0.122894  0  0.950366  0  0  0.136685  0  1.012075  0  0  0.139276  0  1.010242  0  0  0.096444  0.134685  0  1.013582  0
H  H36  1  0.59646671  0.35928394  0.53364269  1  0  0.120673  0  0.960057  0  0  0.133619  0  1.019989  0  0  0.135568  0  1.020028  0  0  0.093427  0.132144  0  1.020124  0
H  H37  1  0.40352553  0.64070656  0.46635764  1  0  0.120684  0  0.960119  0  0  0.133672  0  1.020006  0  0  0.135601  0  1.020049  0  0  0.09343  0.132199  0  1.020138  0
H  H38  1  0.65291958  0.12806770  0.43521546  1  0  0.117339  0  0.971787  0  0  0.131671  0  1.043788  0  0  0.133445  0  1.043738  0  0  0.086443  0.130316  0  1.044036  0
H  H39  1  0.34707196  0.87192719  0.56478712  1  0  0.117279  0  0.9719  0  0  0.131609  0  1.043914  0  0  0.133385  0  1.043863  0  0  0.086411  0.130254  0  1.044153  0
H  H40  1  0.43297092  0.03923515  0.42304309  1  0  0.129277  0  0.972974  0  0  0.149455  0  1.031421  0  0  0.15105  0  1.031541  0  0  0.087536  0.148174  0  1.031547  0
H  H41  1  0.56701884  0.96076150  0.57695817  1  0  0.129296  0  0.973001  0  0  0.149516  0  1.031379  0  0  0.15111  0  1.031499  0  0  0.087533  0.148236  0  1.031503  0
H  H42  1  0.50626965  0.12804827  0.52916145  1  0  0.129946  0  0.973867  0  0  0.147638  0  1.03387  0  0  0.149442  0  1.034375  0  0  0.084433  0.146253  0  1.033644  0
H  H43  1  0.49371922  0.87194926  0.47083914  1  0  0.129989  0  0.973887  0  0  0.147658  0  1.033903  0  0  0.149478  0  1.034392  0  0  0.084426  0.146274  0  1.03368  0
H  H44  1  0.88437917  0.33231310  0.55612613  1  0  0.110867  0  0.942206  0  0  0.124491  0  0.996617  0  0  0.12771  0  0.99617  0  0  0.106077  0.122086  0  0.997252  0
H  H45  1  0.11561343  0.66767827  0.44387493  1  0  0.110791  0  0.942289  0  0  0.124418  0  0.996735  0  0  0.127626  0  0.996288  0  0  0.106058  0.12201  0  0.997372  0
H  H46  1  0.18209884  0.34225853  0.49532677  1  0  0.09113  0  0.978945  0  0  0.097311  0  1.048459  0  0  0.099839  0  1.046935  0  0  0.092352  0.095369  0  1.049623  0
H  H47  1  0.81789779  0.65774249  0.50467407  1  0  0.091144  0  0.978952  0  0  0.097362  0  1.048428  0  0  0.09989  0  1.046907  0  0  0.092359  0.095416  0  1.0496  0
H  H48  1  0.23546368  0.38532628  0.32760928  1  0  0.105814  0  0.990176  0  0  0.110671  0  1.062748  0  0  0.114445  0  1.06087  0  0  0.091983  0.107748  0  1.064553  0
H  H49  1  0.76453046  0.61468089  0.67239455  1  0  0.10577  0  0.990112  0  0  0.110615  0  1.062722  0  0  0.114354  0  1.060874  0  0  0.091933  0.107684  0  1.064542  0
H  H50  1  0.92161230  0.33484444  0.16227785  1  0  0.120491  0  0.929692  0  0  0.136178  0  0.990329  0  0  0.138257  0  0.988953  0  0  0.100272  0.134565  0  0.991437  0
H  H51  1  0.07837765  0.66515572  0.83772563  1  0  0.120516  0  0.929635  0  0  0.136174  0  0.990312  0  0  0.138252  0  0.98894  0  0  0.100269  0.134558  0  0.991414  0
H  H52  1  0.13361516  0.43553692  0.18344652  1  0  0.113999  0  0.97774  0  0  0.129195  0  1.036059  0  0  0.130915  0  1.036091  0  0  0.089549  0.12794  0  1.036065  0
H  H53  1  0.86637498  0.56446061  0.81655340  1  0  0.113906  0  0.977699  0  0  0.129128  0  1.035995  0  0  0.130849  0  1.036026  0  0  0.089532  0.127866  0  1.036012  0
H  H54  1  0.00626488  0.65420735  0.29572279  1  0  0.117162  0  0.966036  0  0  0.133984  0  1.02988  0  0  0.135687  0  1.029768  0  0  0.086616  0.13273  0  1.030049  0
H  H55  1  0.99373161  0.34579630  0.70427540  1  0  0.117197  0  0.966038  0  0  0.134021  0  1.029853  0  0  0.135723  0  1.029744  0  0  0.086642  0.132772  0  1.030013  0
H  H56  1  0.00181467  0.73139745  0.19365705  1  0  0.125815  0  0.963166  0  0  0.145424  0  1.023247  0  0  0.145589  0  1.026433  0  0  0.092308  0.145217  0  1.021216  0
H  H57  1  0.99818037  0.26860269  0.80633890  1  0  0.125888  0  0.963126  0  0  0.145427  0  1.02328  0  0  0.145592  0  1.026467  0  0  0.09231  0.145225  0  1.021247  0
H  H58  1  0.17341698  0.66368972  0.21198598  1  0  0.116203  0  0.977331  0  0  0.133338  0  1.046233  0  0  0.136264  0  1.043444  0  0  0.081468  0.131067  0  1.048397  0
H  H59  1  0.82657768  0.33630955  0.78801131  1  0  0.116194  0  0.977359  0  0  0.133331  0  1.046255  0  0  0.136256  0  1.043466  0  0  0.081435  0.131058  0  1.048424  0
C  C60  1  0.03406019  0.97642965  0.17221670  1  0  0.265301  0  3.705542  0  0  0.268892  0  3.945248  0  0  0.276829  0  3.966254  0  0  0.110645  0.263501  0  3.931419  0
C  C61  1  0.96594310  0.02357223  0.82778426  1  0  0.265251  0  3.705573  0  0  0.268846  0  3.945246  0  0  0.276787  0  3.966244  0  0  0.110681  0.26345  0  3.931444  0
C  C62  1  0.07695264  0.05830161  0.25787948  1  0  -0.22967  0  3.662462  0  0  -0.27129  0  3.917195  0  0  -0.27236  0  3.92521  0  0  -0.14818  -0.270492  0  3.911984  0
C  C63  1  0.92305133  0.94169587  0.74212129  1  0  -0.229705  0  3.66252  0  0  -0.271274  0  3.917223  0  0  -0.272334  0  3.925228  0  0  -0.148241  -0.270478  0  3.912019  0
C  C64  1  0.95254698  0.90140723  0.39282250  1  0  -0.328534  0  3.632865  0  0  -0.398713  0  3.881499  0  0  -0.401256  0  3.889431  0  0  -0.235254  -0.396779  0  3.876137  0
C  C65  1  0.04745071  0.09859027  0.60717820  1  0  -0.328691  0  3.632866  0  0  -0.398888  0  3.881549  0  0  -0.401432  0  3.889478  0  0  -0.235277  -0.396963  0  3.876187  0
C  C66  1  0.16945209  0.95537629  0.11999704  1  0  -0.15805  0  3.69051  0  0  -0.17507  0  3.935456  0  0  -0.1834  0  3.956525  0  0  -0.088399  -0.169987  0  3.922055  0
C  C67  1  0.83055340  0.04463084  0.88000348  1  0  -0.157991  0  3.690581  0  0  -0.175068  0  3.935506  0  0  -0.183399  0  3.956577  0  0  -0.088349  -0.169999  0  3.922125  0
C  C68  1  0.12814949  0.88525126  0.03791533  1  0  0.008113  0  3.719085  0  0  -0.010249  0  3.968806  0  0  -0.004707  0  3.985205  0  0  -0.072946  -0.013988  0  3.95818  0
C  C69  1  0.87185801  0.11475762  0.96208254  1  0  0.008123  0  3.719007  0  0  -0.010271  0  3.968743  0  0  -0.00473  0  3.985142  0  0  -0.072992  -0.013999  0  3.958111  0
C  C70  1  0.95261062  0.83907399  0.01034351  1  0  -0.157928  0  3.692509  0  0  -0.180633  0  3.945699  0  0  -0.188574  0  3.967016  0  0  -0.087157  -0.175665  0  3.931889  0
C  C71  1  0.04739887  0.16093664  0.98965308  1  0  -0.157956  0  3.692381  0  0  -0.180643  0  3.945492  0  0  -0.188575  0  3.966796  0  0  -0.087155  -0.17568  0  3.931682  0
C  C72  1  0.82302042  0.86406630  0.06529085  1  0  0.263123  0  3.74614  0  0  0.266703  0  3.99049  0  0  0.274982  0  4.010641  0  0  0.108744  0.26103  0  3.977258  0
C  C73  1  0.17698635  0.13594083  0.93470693  1  0  0.263147  0  3.746291  0  0  0.26675  0  3.990561  0  0  0.275035  0  4.010717  0  0  0.108742  0.261079  0  3.977329  0
C  C74  1  0.63342820  0.81587005  0.03780999  1  0  -0.23672  0  3.641699  0  0  -0.275047  0  3.886826  0  0  -0.277005  0  3.895133  0  0  -0.152868  -0.273693  0  3.881477  0
C  C75  1  0.36658124  0.18413444  0.96218839  1  0  -0.236765  0  3.641696  0  0  -0.275098  0  3.886793  0  0  -0.277071  0  3.895116  0  0  -0.152835  -0.273733  0  3.88143  0
C  C76  1  0.33786707  0.62402995  0.03634536  1  0  -0.330069  0  3.616892  0  0  -0.400223  0  3.862021  0  0  -0.402772  0  3.870788  0  0  -0.236302  -0.398319  0  3.856185  0
C  C77  1  0.66214431  0.37597015  0.96365287  1  0  -0.330061  0  3.616853  0  0  -0.400193  0  3.861981  0  0  -0.402757  0  3.870734  0  0  -0.236313  -0.39829  0  3.856148  0
C  C78  1  0.78558630  0.37234714  0.42624099  1  0  0.267326  0  3.743096  0  0  0.271983  0  3.979691  0  0  0.281004  0  3.998933  0  0  0.108365  0.26582  0  3.967139  0
C  C79  1  0.21440901  0.62764773  0.57376164  1  0  0.267149  0  3.743121  0  0  0.271997  0  3.97952  0  0  0.281004  0  3.998748  0  0  0.108456  0.265835  0  3.966952  0
C  C80  1  0.60571889  0.36492615  0.45852040  1  0  -0.238732  0  3.64356  0  0  -0.277137  0  3.88484  0  0  -0.278727  0  3.892313  0  0  -0.153679  -0.276114  0  3.880207  0
C  C81  1  0.39427806  0.63506960  0.54148022  1  0  -0.2387  0  3.643573  0  0  -0.277268  0  3.885024  0  0  -0.278787  0  3.892408  0  0  -0.15371  -0.276255  0  3.880403  0
C  C82  1  0.51748870  0.12227656  0.45372548  1  0  -0.339173  0  3.626881  0  0  -0.409749  0  3.873494  0  0  -0.412087  0  3.880254  0  0  -0.241639  -0.407941  0  3.869006  0
C  C83  1  0.48250520  0.87772096  0.54627586  1  0  -0.339143  0  3.627096  0  0  -0.409693  0  3.873587  0  0  -0.412054  0  3.880356  0  0  -0.24156  -0.407895  0  3.869127  0
C  C84  1  0.91424436  0.35118291  0.48448859  1  0  -0.16279  0  3.69974  0  0  -0.18191  0  3.947955  0  0  -0.19076  0  3.968868  0  0  -0.088101  -0.176382  0  3.934489  0
C  C85  1  0.08575060  0.64881109  0.51551193  1  0  -0.16263  0  3.699811  0  0  -0.181849  0  3.948044  0  0  -0.190686  0  3.96895  0  0  -0.08814  -0.176325  0  3.93457  0
C  C86  1  0.07909784  0.35675033  0.45042917  1  0  0.00457  0  3.745399  0  0  -0.018781  0  4.007434  0  0  -0.012159  0  4.024109  0  0  -0.076538  -0.023242  0  3.996665  0
C  C87  1  0.92089406  0.64324543  0.54957415  1  0  0.004551  0  3.745586  0  0  -0.018817  0  4.007611  0  0  -0.012195  0  4.024279  0  0  -0.076513  -0.023271  0  3.99683  0
C  C88  1  0.10953357  0.38110222  0.35812941  1  0  -0.169649  0  3.690034  0  0  -0.186486  0  3.936666  0  0  -0.195693  0  3.95799  0  0  -0.092548  -0.180929  0  3.923243  0
C  C89  1  0.89045980  0.61889705  0.64187407  1  0  -0.169571  0  3.69019  0  0  -0.186451  0  3.936764  0  0  -0.195627  0  3.958118  0  0  -0.092551  -0.180896  0  3.923344  0
C  C90  1  0.97440032  0.39907418  0.30273306  1  0  0.281143  0  3.703463  0  0  0.28375  0  3.942352  0  0  0.293086  0  3.961406  0  0  0.112002  0.277403  0  3.929947  0
C  C91  1  0.02559054  0.60092510  0.69726902  1  0  0.280957  0  3.703586  0  0  0.283729  0  3.942265  0  0  0.293066  0  3.961312  0  0  0.112025  0.277382  0  3.929835  0
C  C92  1  0.99531454  0.41660062  0.20110766  1  0  -0.247403  0  3.659995  0  0  -0.285791  0  3.906936  0  0  -0.288084  0  3.915465  0  0  -0.155743  -0.284115  0  3.901243  0
C  C93  1  0.00468009  0.58339865  0.79889584  1  0  -0.247244  0  3.659812  0  0  -0.285653  0  3.906689  0  0  -0.28795  0  3.915228  0  0  -0.155664  -0.283961  0  3.900979  0
C  C94  1  0.03406830  0.65585797  0.22192312  1  0  -0.327606  0  3.640103  0  0  -0.397741  0  3.887927  0  0  -0.400638  0  3.896577  0  0  -0.23898  -0.395511  0  3.882113  0
C  C95  1  0.96592709  0.34414306  0.77807494  1  0  -0.327722  0  3.640039  0  0  -0.397821  0  3.887913  0  0  -0.400714  0  3.896562  0  0  -0.239002  -0.395603  0  3.882109  0
S  S96  1  0.91486632  0.03099423  0.34616324  1  0  0.074765  0  2.663274  0  0  0.097356  0  3.073215  0  0  0.097872  0  3.062836  0  0  -0.025325  0.096636  0  3.080278  0
S  S97  1  0.08513513  0.96900326  0.65383820  1  0  0.074782  0  2.663293  0  0  0.097359  0  3.073231  0  0  0.09787  0  3.062853  0  0  -0.025322  0.096642  0  3.080284  0
S  S98  1  0.55442946  0.67480822  0.09043084  1  0  0.091486  0  2.824001  0  0  0.120594  0  3.275321  0  0  0.11953  0  3.257415  0  0  -0.036227  0.120836  0  3.287681  0
S  S99  1  0.44557962  0.32519539  0.90956750  1  0  0.091471  0  2.824001  0  0  0.120576  0  3.27529  0  0  0.119515  0  3.257397  0  0  -0.036217  0.120813  0  3.287652  0
S  S100  1  0.44323827  0.23698501  0.40435720  1  0  0.083233  0  2.842499  0  0  0.114908  0  3.28955  0  0  0.114732  0  3.272037  0  0  -0.03233  0.114713  0  3.301288  0
S  S101  1  0.55675744  0.76301075  0.59564064  1  0  0.083172  0  2.842555  0  0  0.114863  0  3.289638  0  0  0.114667  0  3.272099  0  0  -0.032355  0.114666  0  3.301385  0
S  S102  1  0.89837810  0.52674756  0.15904321  1  0  0.076219  0  2.706199  0  0  0.097829  0  3.11991  0  0  0.098253  0  3.110209  0  0  -0.026377  0.097123  0  3.126549  0
S  S103  1  0.10161401  0.47325171  0.84095888  1  0  0.076253  0  2.706184  0  0  0.097869  0  3.119874  0  0  0.098284  0  3.110191  0  0  -0.026366  0.097152  0  3.126513  0
N  N104  1  0.86337111  0.92984257  0.14618468  1  0  -0.376911  0  3.311536  0  0  -0.311424  0  3.585521  0  0  -0.325466  0  3.593986  0  0  -0.352636  -0.302817  0  3.580116  0
N  N105  1  0.13663723  0.07015929  0.85381427  1  0  -0.376904  0  3.311659  0  0  -0.311422  0  3.585608  0  0  -0.325472  0  3.594087  0  0  -0.352653  -0.302816  0  3.580209  0
N  N106  1  0.81628870  0.39701392  0.33689257  1  0  -0.380034  0  3.322074  0  0  -0.311957  0  3.589217  0  0  -0.325161  0  3.596234  0  0  -0.357186  -0.304101  0  3.584936  0
N  N107  1  0.18370557  0.60298447  0.66310813  1  0  -0.37988  0  3.322063  0  0  -0.311905  0  3.589082  0  0  -0.325109  0  3.596106  0  0  -0.357205  -0.304041  0  3.584771  0
Cl  Cl108  1  0.62322004  0.62501456  0.34338327  1  0  -0.502394  0  1.390383  0  0  -0.429298  0  1.769228  0  0  -0.446606  0  1.732596  0  0  -0.300401  -0.416832  0  1.793553  0
Cl  Cl109  1  0.37676633  0.37498298  0.65661522  1  0  -0.502421  0  1.390421  0  0  -0.429295  0  1.769228  0  0  -0.446607  0  1.732601  0  0  -0.300394  -0.416845  0  1.793566  0
Cl  Cl110  1  0.40687700  0.36982047  0.16978642  1  0  -0.502574  0  1.353614  0  0  -0.433747  0  1.71099  0  0  -0.448472  0  1.677521  0  0  -0.289352  -0.423383  0  1.733301  0
Cl  Cl111  1  0.59311907  0.63017616  0.83021285  1  0  -0.502581  0  1.353657  0  0  -0.433761  0  1.711021  0  0  -0.448483  0  1.677541  0  0  -0.289352  -0.423398  0  1.733327  0
Cl  Cl112  1  0.63632555  0.13445241  0.16878404  1  0  -0.51113  0  1.3033  0  0  -0.438687  0  1.664764  0  0  -0.45495  0  1.62964  0  0  -0.314049  -0.42709  0  1.687997  0
Cl  Cl113  1  0.36368153  0.86554946  0.83121421  1  0  -0.511106  0  1.303283  0  0  -0.438664  0  1.664744  0  0  -0.454926  0  1.629622  0  0  -0.31405  -0.427074  0  1.687977  0
Cl  Cl114  1  0.41882577  0.87172913  0.29144853  1  0  -0.493122  0  1.371091  0  0  -0.413223  0  1.728572  0  0  -0.431461  0  1.69516  0  0  -0.297173  -0.400433  0  1.750806  0
Cl  Cl115  1  0.58117969  0.12827186  0.70854966  1  0  -0.493122  0  1.37104  0  0  -0.41324  0  1.728564  0  0  -0.431477  0  1.695151  0  0  -0.297178  -0.400452  0  1.750794  0
