# generated using pymatgen
data_Zn2H32C34SN2O11
_symmetry_space_group_name_H-M   'P 1'
_cell_length_a   10.90793979
_cell_length_b   11.80916649
_cell_length_c   13.04197647
_cell_angle_alpha   87.33556752
_cell_angle_beta   87.64343283
_cell_angle_gamma   84.85433330
_symmetry_Int_Tables_number   1
_chemical_formula_structural   Zn2H32C34SN2O11
_chemical_formula_sum   'Zn2 H32 C34 S1 N2 O11'
_cell_volume   1670.25249777
_cell_formula_units_Z   1
loop_
 _symmetry_equiv_pos_site_id
 _symmetry_equiv_pos_as_xyz
  1  'x, y, z'
loop_
 _atom_site_type_symbol
 _atom_site_label
 _atom_site_symmetry_multiplicity
 _atom_site_fract_x
 _atom_site_fract_y
 _atom_site_fract_z
 _atom_site_occupancy
 _atom_site_pbe_bader_charge
 _atom_site_pbe_bader_spin_density
 _atom_site_pbe_cm5_charge
 _atom_site_pbe_ddec_charge
 _atom_site_pbe_ddec_spin_density
 _atom_site_pbe_ddec_sum_bond_order
 _atom_site_pbe_magmom
Zn  Zn0  1  0.47866817  0.62427297  0.50347039  1  1.282559  0  0.674381  0.82301  0  2.400839  0
Zn  Zn1  1  0.50715744  0.38342590  0.48929500  1  1.292821  0  0.673443  0.821176  0  2.442217  0
H  H2  1  0.07082764  0.66831298  0.55327876  1  0.032182  0  0.093779  0.095824  0  0.99577  0
H  H3  1  0.53832893  0.63724858  0.81809823  1  0.076534  0  0.102938  0.106036  0  1.019513  0
H  H4  1  0.56668330  0.81000055  0.38799111  1  0.132636  0  0.131688  0.107186  0  1.000141  0
H  H5  1  0.08294683  0.57151164  0.66066257  1  0.006405  0  0.092226  0.089407  0  0.977346  0
H  H6  1  0.34905376  0.00825360  0.67509005  1  0.07313  0  0.117371  0.128468  0  0.984645  0
H  H7  1  0.62789698  0.21762682  0.33645751  1  0.100106  0  0.124586  0.105335  0  1.000889  0
H  H8  1  0.41607378  0.19683037  0.60547125  1  0.131638  0  0.130326  0.108907  0  0.97902  0
H  H9  1  0.87940011  0.52258322  0.65060852  1  0.024527  0  0.094214  0.096035  0  0.969475  0
H  H10  1  0.85846211  0.65636199  0.58560216  1  0.047235  0  0.092633  0.096747  0  1.010521  0
H  H11  1  0.12887971  0.61061972  0.37900678  1  0.120268  0  0.102502  0.118202  0  0.999501  0
H  H12  1  0.12322381  0.31119357  0.49855626  1  0.040358  0  0.090023  0.092748  0  0.994117  0
H  H13  1  0.92185716  0.33549647  0.43698987  1  0.01752  0  0.090255  0.089614  0  0.982384  0
H  H14  1  0.07340015  0.35803699  0.62086235  1  -0.000739  0  0.088459  0.085547  0  0.978102  0
H  H15  1  0.87281541  0.34349698  0.56659506  1  0.046385  0  0.094912  0.098795  0  0.978338  0
H  H16  1  0.18800413  0.91024851  0.73293389  1  0.018909  0  0.083936  0.10327  0  1.017964  0
H  H17  1  0.14570202  0.82881927  0.63068239  1  0.04022  0  0.09213  0.12402  0  1.00091  0
H  H18  1  0.15188102  0.76805763  0.75777821  1  0.026912  0  0.094745  0.126715  0  0.987956  0
H  H19  1  0.33513648  0.69167903  0.65802174  1  0.115033  0  0.101798  0.115703  0  1.028333  0
H  H20  1  0.38071282  0.77646919  0.75426155  1  0.036402  0  0.100108  0.103577  0  0.968987  0
H  H21  1  0.65013712  0.13412510  0.17371103  1  0.03077  0  0.085731  0.107608  0  1.014221  0
H  H22  1  0.78644040  0.11873555  0.24513251  1  0.026951  0  0.092005  0.118583  0  0.996096  0
H  H23  1  0.76666567  0.02317946  0.14775110  1  0.034281  0  0.09749  0.131226  0  0.983381  0
H  H24  1  0.12790475  0.46646760  0.34810431  1  0.019553  0  0.099549  0.107663  0  0.95827  0
H  H25  1  0.72939107  0.92644981  0.31685883  1  0.094912  0  0.103441  0.113322  0  0.986846  0
H  H26  1  0.59565056  0.94046399  0.24652120  1  0.048961  0  0.103081  0.102465  0  0.959321  0
H  H27  1  0.76016201  0.70651916  0.45239079  1  0.642888  0  0.297706  0.35367  0  0.998733  0
H  H28  1  0.91987248  0.49600724  0.32502910  1  0.091594  0  0.114564  0.112198  0  0.96369  0
H  H29  1  0.47992148  0.36225459  0.17306925  1  0.078978  0  0.10254  0.107316  0  1.016667  0
H  H30  1  0.50790919  0.72203551  0.17665044  1  0.094899  0  0.104168  0.10745  0  1.003283  0
H  H31  1  0.49533951  0.26481005  0.00661956  1  0.062598  0  0.099563  0.098974  0  1.001667  0
H  H32  1  0.53169189  0.73345458  0.98527831  1  0.042355  0  0.10067  0.09932  0  0.997238  0
H  H33  1  0.51570189  0.27661237  0.81492925  1  0.082681  0  0.100486  0.106105  0  1.005989  0
C  C34  1  0.52798189  0.46644178  0.69150663  1  1.494886  0  0.213955  0.590538  0  4.171157  0
C  C35  1  0.51874480  0.55308963  0.96893457  1  -0.000983  0  -0.004807  0.078018  0  4.006182  0
C  C36  1  0.50472770  0.44577607  0.02256610  1  -0.055641  0  -0.005251  0.079174  0  4.007143  0
C  C37  1  0.25579046  0.49159546  0.51991445  1  1.550748  0  0.222898  0.59302  0  4.104593  0
C  C38  1  0.49120237  0.44270017  0.13076158  1  0.071498  0  -0.079745  -0.139569  0  3.937912  0
C  C39  1  0.50640940  0.64662691  0.13188462  1  -0.062383  0  -0.081418  -0.079263  0  3.978375  0
C  C40  1  0.51969930  0.65231439  0.02647082  1  -0.023045  0  -0.088468  -0.133434  0  3.996185  0
C  C41  1  0.58871094  0.04430477  0.37633798  1  -0.037964  0  0.014797  0.063429  0  3.917456  0
C  C42  1  0.58332058  0.15997350  0.39053324  1  0.469935  0  0.040724  0.006393  0  3.893359  0
C  C43  1  0.46356576  0.15090076  0.54259084  1  0.573857  0  0.074372  0.063451  0  3.867307  0
C  C44  1  0.46150859  0.03185265  0.53673685  1  -0.027114  0  0.009513  0.065992  0  4.054974  0
C  C45  1  0.87804413  0.50790572  0.48749865  1  0.03209  0  -0.012577  0.0125  0  3.77454  0
C  C46  1  0.52523909  0.97744909  0.45228116  1  0.044055  0  0.009202  -0.008293  0  3.959237  0
C  C47  1  0.52087156  0.85829867  0.45012220  1  0.524603  0  0.075541  0.088939  0  3.844317  0
C  C48  1  0.39865006  0.85008692  0.60317292  1  0.467461  0  0.128061  0.269455  0  3.898183  0
C  C49  1  0.48073706  0.53293051  0.29957908  1  1.58946  0  0.218908  0.600143  0  4.154465  0
C  C50  1  0.39848893  0.96638791  0.61093836  1  -0.031643  0  -0.072918  -0.210676  0  3.919942  0
C  C51  1  0.73813656  0.51468784  0.47644423  1  1.547787  0  0.229194  0.58978  0  4.070241  0
C  C52  1  0.04924173  0.58334756  0.58220619  1  0.001515  0  -0.16243  -0.17885  0  3.884579  0
C  C53  1  0.90968039  0.57260802  0.58238793  1  -0.027158  0  -0.164183  -0.184066  0  3.87367  0
C  C54  1  0.08693687  0.53133962  0.40012358  1  -0.034232  0  -0.155962  -0.19627  0  3.838191  0
C  C55  1  0.06609655  0.37822625  0.53798171  1  0.001648  0  -0.165952  -0.181755  0  3.894331  0
C  C56  1  0.94622748  0.54820769  0.38673766  1  -0.134633  0  -0.069335  -0.172154  0  3.723809  0
C  C57  1  0.11627769  0.49404486  0.51238407  1  0.049739  0  -0.016645  0.029535  0  3.805982  0
C  C58  1  0.33119457  0.77943004  0.68206496  1  -0.015957  0  -0.160302  -0.190125  0  3.954965  0
C  C59  1  0.19667436  0.82490160  0.70180825  1  -0.054446  0  -0.237479  -0.343318  0  3.958822  0
C  C60  1  0.65844974  0.99023453  0.28651659  1  -0.001287  0  -0.153862  -0.149724  0  3.981973  0
C  C61  1  0.71823777  0.07161532  0.20929243  1  -0.054755  0  -0.237812  -0.349403  0  3.969051  0
C  C62  1  0.93059563  0.38283839  0.50649242  1  -0.020633  0  -0.162039  -0.178449  0  3.877441  0
C  C63  1  0.49183674  0.54073737  0.18489325  1  -0.07179  0  -0.014121  -0.023588  0  3.968188  0
C  C64  1  0.52626936  0.45878509  0.80631228  1  0.028322  0  -0.02145  -0.03183  0  3.988861  0
C  C65  1  0.50495348  0.34625733  0.96520336  1  -0.06189  0  -0.091835  -0.136948  0  4.013037  0
C  C66  1  0.51596209  0.35223108  0.85969164  1  0.013731  0  -0.093392  -0.106415  0  4.014623  0
C  C67  1  0.52906811  0.55653691  0.86049876  1  -0.074346  0  -0.078636  -0.136507  0  3.938047  0
S  S68  1  0.89557386  0.69132636  0.33122799  1  3.02829  0  0.51657  1.152923  0  5.925684  0
N  N69  1  0.46146922  0.79807126  0.52206181  1  -1.220834  0  -0.307126  -0.23765  0  3.446306  0
N  N70  1  0.52229185  0.21133372  0.47191132  1  -1.265609  0  -0.316441  -0.175558  0  3.566958  0
O  O71  1  0.52101702  0.56612984  0.64868625  1  -1.173755  0  -0.319156  -0.557861  0  2.381438  0
O  O72  1  0.80513072  0.67391587  0.25660653  1  -1.305012  0  -0.344661  -0.571372  0  2.102572  0
O  O73  1  0.82886127  0.75742870  0.42423050  1  -1.253903  0  -0.375155  -0.55786  0  2.223102  0
O  O74  1  0.53381227  0.37385210  0.64450446  1  -1.163519  0  -0.317949  -0.545509  0  2.32672  0
O  O75  1  0.29921740  0.58846792  0.51945648  1  -1.175711  0  -0.317327  -0.552017  0  2.357363  0
O  O76  1  0.31901401  0.39597475  0.52239042  1  -1.174746  0  -0.317085  -0.550073  0  2.334435  0
O  O77  1  0.47735893  0.62495199  0.34742658  1  -1.157809  0  -0.312506  -0.537732  0  2.330637  0
O  O78  1  0.47638651  0.43347186  0.34138348  1  -1.17505  0  -0.322283  -0.557857  0  2.357656  0
O  O79  1  0.67828655  0.61365255  0.48064853  1  -1.176536  0  -0.307109  -0.550587  0  2.399706  0
O  O80  1  0.68888002  0.42358586  0.46643869  1  -1.171172  0  -0.300934  -0.519703  0  2.338821  0
O  O81  1  0.00068482  0.75219506  0.29999827  1  -1.298531  0  -0.332833  -0.541096  0  2.094715  0
