# generated using pymatgen
data_CdH16C16Br2(NO2)2
_symmetry_space_group_name_H-M   'P 1'
_cell_length_a   7.20031074
_cell_length_b   10.27174405
_cell_length_c   14.26379394
_cell_angle_alpha   75.31293009
_cell_angle_beta   75.38997528
_cell_angle_gamma   69.48374592
_symmetry_Int_Tables_number   1
_chemical_formula_structural   CdH16C16Br2(NO2)2
_chemical_formula_sum   'Cd2 H32 C32 Br4 N4 O8'
_cell_volume   940.08067145
_cell_formula_units_Z   2
loop_
 _symmetry_equiv_pos_site_id
 _symmetry_equiv_pos_as_xyz
  1  'x, y, z'
loop_
 _atom_site_type_symbol
 _atom_site_label
 _atom_site_symmetry_multiplicity
 _atom_site_fract_x
 _atom_site_fract_y
 _atom_site_fract_z
 _atom_site_occupancy
 _atom_site_hle17_bader_spin_density
 _atom_site_hle17_ddec_charge
 _atom_site_hle17_ddec_spin_density
 _atom_site_hle17_ddec_sum_bond_order
 _atom_site_hle17_magmom
 _atom_site_hse06_10hf_bader_spin_density
 _atom_site_hse06_10hf_ddec_charge
 _atom_site_hse06_10hf_ddec_spin_density
 _atom_site_hse06_10hf_ddec_sum_bond_order
 _atom_site_hse06_10hf_magmom
 _atom_site_hse06_bader_spin_density
 _atom_site_hse06_ddec_charge
 _atom_site_hse06_ddec_spin_density
 _atom_site_hse06_ddec_sum_bond_order
 _atom_site_hse06_magmom
 _atom_site_pbe_bader_spin_density
 _atom_site_pbe_cm5_charge
 _atom_site_pbe_ddec_charge
 _atom_site_pbe_ddec_spin_density
 _atom_site_pbe_ddec_sum_bond_order
 _atom_site_pbe_magmom
Cd  Cd0  1  0.15790857  0.25015755  0.74997806  1  0  0.990109  0  1.869189  0  0  0.8231  0  2.354807  0  0  0.879525  0  2.299936  0  0  0.583578  0.782703  0  2.392547  0
Cd  Cd1  1  0.84211838  0.74981890  0.25002569  1  0  0.990175  0  1.869224  0  0  0.82314  0  2.354958  0  0  0.879556  0  2.300091  0  0  0.583634  0.782747  0  2.392702  0
H  H2  1  0.61739906  0.30230404  0.61814631  1  0  0.0859  0  0.936923  0  0  0.091125  0  1.007241  0  0  0.093694  0  1.005588  0  0  0.112842  0.089208  0  1.008606  0
H  H3  1  0.53793588  0.19754173  0.88177321  1  0  0.08595  0  0.937428  0  0  0.091157  0  1.007847  0  0  0.093686  0  1.00625  0  0  0.112834  0.089281  0  1.009152  0
H  H4  1  0.38260807  0.69769247  0.38185737  1  0  0.085882  0  0.93691  0  0  0.091061  0  1.007282  0  0  0.093626  0  1.00563  0  0  0.112796  0.089144  0  1.008648  0
H  H5  1  0.46206194  0.80245908  0.11822161  1  0  0.086012  0  0.937321  0  0  0.091177  0  1.007775  0  0  0.093705  0  1.006186  0  0  0.112871  0.089298  0  1.009078  0
H  H6  1  0.68586645  0.55273668  0.45794046  1  0  0.076293  0  0.940323  0  0  0.091503  0  1.01064  0  0  0.092373  0  1.010315  0  0  0.088909  0.090715  0  1.011078  0
H  H7  1  0.69657175  0.94719193  0.04205781  1  0  0.076568  0  0.94108  0  0  0.091336  0  1.011935  0  0  0.092231  0  1.011617  0  0  0.088784  0.090612  0  1.012166  0
H  H8  1  0.31413896  0.44726089  0.54206290  1  0  0.076295  0  0.940375  0  0  0.091524  0  1.01068  0  0  0.092395  0  1.010356  0  0  0.088896  0.090734  0  1.011119  0
H  H9  1  0.30341366  0.05281203  0.95793901  1  0  0.076566  0  0.940981  0  0  0.0913  0  1.011872  0  0  0.092195  0  1.011554  0  0  0.088781  0.090568  0  1.012114  0
H  H10  1  0.54223161  0.56146234  0.57812002  1  0  0.092195  0  0.943296  0  0  0.105247  0  1.009556  0  0  0.107158  0  1.008607  0  0  0.092486  0.103778  0  1.010412  0
H  H11  1  0.68169032  0.93838643  0.92190215  1  0  0.092237  0  0.94377  0  0  0.105041  0  1.010464  0  0  0.106991  0  1.009523  0  0  0.092579  0.103711  0  1.011084  0
H  H12  1  0.45777460  0.43853629  0.42188340  1  0  0.092211  0  0.943381  0  0  0.105277  0  1.009636  0  0  0.107189  0  1.008686  0  0  0.092511  0.103809  0  1.010489  0
H  H13  1  0.31829945  0.06161330  0.07809556  1  0  0.0923  0  0.943688  0  0  0.10507  0  1.010403  0  0  0.107018  0  1.009464  0  0  0.092593  0.103742  0  1.011012  0
H  H14  1  0.60867051  0.14429784  0.54977578  1  0  0.095577  0  0.984343  0  0  0.101822  0  1.052888  0  0  0.105573  0  1.049054  0  0  0.110052  0.099002  0  1.055657  0
H  H15  1  0.30240320  0.35533382  0.95046972  1  0  0.096244  0  0.985554  0  0  0.102818  0  1.053445  0  0  0.106592  0  1.049606  0  0  0.110387  0.099966  0  1.056271  0
H  H16  1  0.39132842  0.85570186  0.45022570  1  0  0.095566  0  0.984375  0  0  0.101792  0  1.052936  0  0  0.105536  0  1.049104  0  0  0.110077  0.098971  0  1.05571  0
H  H17  1  0.69758112  0.64466906  0.04953022  1  0  0.096098  0  0.985537  0  0  0.102695  0  1.053422  0  0  0.10647  0  1.049582  0  0  0.110342  0.099849  0  1.056245  0
H  H18  1  0.74293494  0.99100015  0.41925696  1  0  0.124124  0  0.946768  0  0  0.131912  0  1.006294  0  0  0.135795  0  1.004576  0  0  0.110602  0.129002  0  1.007909  0
H  H19  1  0.15310986  0.50842536  0.08112240  1  0  0.124269  0  0.945599  0  0  0.131442  0  1.005817  0  0  0.13537  0  1.004037  0  0  0.110493  0.128642  0  1.007192  0
H  H20  1  0.25705829  0.00900273  0.58074269  1  0  0.124082  0  0.94672  0  0  0.131866  0  1.006272  0  0  0.13575  0  1.004554  0  0  0.110602  0.128955  0  1.00789  0
H  H21  1  0.84688280  0.49157117  0.91887995  1  0  0.124321  0  0.945567  0  0  0.131501  0  1.00578  0  0  0.135429  0  1.003996  0  0  0.110507  0.128696  0  1.007164  0
H  H22  1  0.02781265  0.03100233  0.28498913  1  0  0.124732  0  0.950328  0  0  0.130143  0  1.015326  0  0  0.133845  0  1.011568  0  0  0.11092  0.127395  0  1.01792  0
H  H23  1  0.34438583  0.46861951  0.21512060  1  0  0.124611  0  0.949419  0  0  0.130492  0  1.013859  0  0  0.134176  0  1.010147  0  0  0.110737  0.127673  0  1.016671  0
H  H24  1  0.97218525  0.96899525  0.71501312  1  0  0.124713  0  0.950349  0  0  0.130135  0  1.015335  0  0  0.133838  0  1.011576  0  0  0.110907  0.127389  0  1.017927  0
H  H25  1  0.65561385  0.53137597  0.78487962  1  0  0.124601  0  0.949382  0  0  0.13049  0  1.013824  0  0  0.134173  0  1.010111  0  0  0.110755  0.127673  0  1.016636  0
H  H26  1  0.16551942  0.22581708  0.28397486  1  0  0.115622  0  0.948697  0  0  0.12633  0  1.003526  0  0  0.12893  0  1.004048  0  0  0.108406  0.12424  0  1.00377  0
H  H27  1  0.67636418  0.27414746  0.21574529  1  0  0.116202  0  0.94948  0  0  0.126904  0  1.004501  0  0  0.129533  0  1.004988  0  0  0.108728  0.125181  0  1.004181  0
H  H28  1  0.83447895  0.77417944  0.71602752  1  0  0.115602  0  0.948666  0  0  0.126312  0  1.003507  0  0  0.128914  0  1.004026  0  0  0.108409  0.124221  0  1.003755  0
H  H29  1  0.32363775  0.72584487  0.78425304  1  0  0.116278  0  0.949386  0  0  0.126903  0  1.004469  0  0  0.129526  0  1.004979  0  0  0.108709  0.12518  0  1.004155  0
H  H30  1  0.01187963  0.37434834  0.41374159  1  0  0.117898  0  0.960837  0  0  0.124435  0  1.025155  0  0  0.127719  0  1.021755  0  0  0.128741  0.122004  0  1.027702  0
H  H31  1  0.80068346  0.12584409  0.08588978  1  0  0.118021  0  0.962787  0  0  0.124675  0  1.026696  0  0  0.128018  0  1.02322  0  0  0.128977  0.122199  0  1.029187  0
H  H32  1  0.98812352  0.62565030  0.58626057  1  0  0.117904  0  0.960897  0  0  0.124435  0  1.025211  0  0  0.12772  0  1.02181  0  0  0.128719  0.122004  0  1.027761  0
H  H33  1  0.19930567  0.87415459  0.91410630  1  0  0.118053  0  0.962834  0  0  0.124658  0  1.026759  0  0  0.128  0  1.023285  0  0  0.12898  0.122184  0  1.02925  0
C  C34  1  0.87823920  0.35544136  0.61363716  1  0  0.630576  0  3.896829  0  0  0.579988  0  4.201129  0  0  0.61307  0  4.195961  0  0  0.197644  0.557644  0  4.203621  0
C  C35  1  0.84738591  0.14439722  0.88627890  1  0  0.631327  0  3.897509  0  0  0.581319  0  4.201069  0  0  0.614394  0  4.1958  0  0  0.198046  0.55882  0  4.203639  0
C  C36  1  0.12176179  0.64456258  0.38636276  1  0  0.63042  0  3.896886  0  0  0.579852  0  4.201161  0  0  0.61293  0  4.195997  0  0  0.197622  0.557508  0  4.203648  0
C  C37  1  0.15261087  0.85559828  0.11371848  1  0  0.631447  0  3.897621  0  0  0.581462  0  4.201109  0  0  0.614525  0  4.195862  0  0  0.198076  0.558956  0  4.203676  0
C  C38  1  0.71631246  0.35440283  0.56054127  1  0  -0.020248  0  3.55849  0  0  -0.038689  0  3.79155  0  0  -0.039734  0  3.803258  0  0  0.017816  -0.037985  0  3.783545  0
C  C39  1  0.63139556  0.14546878  0.93936766  1  0  -0.020176  0  3.558175  0  0  -0.039115  0  3.79177  0  0  -0.040062  0  3.803376  0  0  0.017872  -0.038334  0  3.78372  0
C  C40  1  0.28369173  0.64559683  0.43946501  1  0  -0.020133  0  3.558455  0  0  -0.038514  0  3.791441  0  0  -0.039555  0  3.803151  0  0  0.017905  -0.037809  0  3.783433  0
C  C41  1  0.36859607  0.85452991  0.06062878  1  0  -0.020185  0  3.558279  0  0  -0.039061  0  3.791807  0  0  -0.040022  0  3.80345  0  0  0.017885  -0.038272  0  3.783731  0
C  C42  1  0.59024174  0.50136017  0.51801552  1  0  -0.147683  0  3.698568  0  0  -0.19685  0  3.961011  0  0  -0.198295  0  3.975246  0  0  -0.171613  -0.195561  0  3.950938  0
C  C43  1  0.60965499  0.99857033  0.98196603  1  0  -0.148311  0  3.699207  0  0  -0.196766  0  3.961431  0  0  -0.198344  0  3.975985  0  0  -0.171659  -0.195313  0  3.950712  0
C  C44  1  0.40976172  0.49863740  0.48198836  1  0  -0.147771  0  3.698756  0  0  -0.197002  0  3.961247  0  0  -0.198451  0  3.975482  0  0  -0.171685  -0.195713  0  3.951174  0
C  C45  1  0.39033455  0.00143151  0.01803072  1  0  -0.148267  0  3.699013  0  0  -0.196714  0  3.961299  0  0  -0.198283  0  3.975855  0  0  -0.171581  -0.195243  0  3.950548  0
C  C46  1  0.72835354  0.15876820  0.48747948  1  0  0.090584  0  3.594219  0  0  0.05142  0  3.838635  0  0  0.058671  0  3.855575  0  0  0.061702  0.046688  0  3.827856  0
C  C47  1  0.37464123  0.34098219  0.01262112  1  0  0.089511  0  3.592127  0  0  0.049663  0  3.836778  0  0  0.056858  0  3.853793  0  0  0.061486  0.045331  0  3.825647  0
C  C48  1  0.27164814  0.84123574  0.51251974  1  0  0.090674  0  3.594296  0  0  0.051546  0  3.838692  0  0  0.05881  0  3.855622  0  0  0.061706  0.046825  0  3.827895  0
C  C49  1  0.62534854  0.65901753  0.98737659  1  0  0.089871  0  3.59191  0  0  0.050011  0  3.836579  0  0  0.057207  0  3.853592  0  0  0.06162  0.045712  0  3.825362  0
C  C50  1  0.80565770  0.07445502  0.41623799  1  0  -0.102906  0  3.709514  0  0  -0.118373  0  3.968346  0  0  -0.126368  0  3.988628  0  0  -0.072752  -0.113431  0  3.955268  0
C  C51  1  0.29652769  0.42519765  0.08393256  1  0  -0.101799  0  3.705037  0  0  -0.116537  0  3.964134  0  0  -0.124533  0  3.984386  0  0  -0.072213  -0.111594  0  3.950376  0
C  C52  1  0.19433670  0.92554681  0.58376109  1  0  -0.102867  0  3.70956  0  0  -0.118341  0  3.968393  0  0  -0.126336  0  3.98867  0  0  -0.07273  -0.113401  0  3.955321  0
C  C53  1  0.70346786  0.57479995  0.91606774  1  0  -0.101999  0  3.704999  0  0  -0.116764  0  3.964152  0  0  -0.12476  0  3.984401  0  0  -0.072291  -0.111828  0  3.950411  0
C  C54  1  0.96545279  0.09656927  0.34164011  1  0  0.026647  0  3.636803  0  0  0.001182  0  3.894289  0  0  0.008799  0  3.907246  0  0  -0.049879  -0.003962  0  3.885843  0
C  C55  1  0.40419075  0.40316381  0.15840123  1  0  0.026118  0  3.633492  0  0  4.1e-05  0  3.891011  0  0  0.007685  0  3.904055  0  0  -0.049931  -0.004518  0  3.882713  0
C  C56  1  0.03454653  0.90343150  0.65835895  1  0  0.026665  0  3.636977  0  0  0.001186  0  3.894494  0  0  0.008805  0  3.907448  0  0  -0.049847  -0.003961  0  3.886056  0
C  C57  1  0.59580917  0.59683274  0.84159817  1  0  0.026216  0  3.633335  0  0  0.000118  0  3.890835  0  0  0.007766  0  3.903875  0  0  -0.049926  -0.004445  0  3.882547  0
C  C58  1  0.04151881  0.20463474  0.34063839  1  0  -0.09164  0  3.706927  0  0  -0.104242  0  3.960199  0  0  -0.112014  0  3.979395  0  0  -0.071467  -0.099661  0  3.948092  0
C  C59  1  0.58755342  0.29531591  0.15918977  1  0  -0.092946  0  3.70788  0  0  -0.10565  0  3.961084  0  0  -0.11344  0  3.980301  0  0  -0.072714  -0.101917  0  3.949829  0
C  C60  1  0.95848332  0.79536496  0.65936276  1  0  -0.091579  0  3.706943  0  0  -0.10421  0  3.960229  0  0  -0.111977  0  3.979418  0  0  -0.071551  -0.09963  0  3.948131  0
C  C61  1  0.41244744  0.70468170  0.84080810  1  0  -0.093019  0  3.707839  0  0  -0.105634  0  3.960971  0  0  -0.113427  0  3.98018  0  0  -0.072699  -0.101902  0  3.949728  0
C  C62  1  0.95912982  0.28736579  0.41277525  1  0  0.106848  0  3.568488  0  0  0.064079  0  3.818092  0  0  0.073274  0  3.83158  0  0  0.068469  0.05798  0  3.809456  0
C  C63  1  0.65984572  0.21272163  0.08696578  1  0  0.106496  0  3.571769  0  0  0.063882  0  3.820603  0  0  0.07305  0  3.834112  0  0  0.068619  0.058136  0  3.812309  0
C  C64  1  0.04087059  0.71263179  0.58722738  1  0  0.10682  0  3.568523  0  0  0.064088  0  3.818086  0  0  0.073286  0  3.831572  0  0  0.068555  0.057985  0  3.809458  0
C  C65  1  0.34014912  0.78727705  0.91303033  1  0  0.106372  0  3.571961  0  0  0.063849  0  3.820688  0  0  0.073021  0  3.834193  0  0  0.068557  0.058097  0  3.812404  0
Br  Br66  1  0.49511003  0.04387828  0.73183998  1  0  -0.572083  0  0.938636  0  0  -0.511737  0  1.226732  0  0  -0.533391  0  1.204772  0  0  -0.277085  -0.495542  0  1.242109  0
Br  Br67  1  0.27083387  0.45625540  0.76829054  1  0  -0.571881  0  0.939651  0  0  -0.511446  0  1.228024  0  0  -0.533047  0  1.205906  0  0  -0.276541  -0.495502  0  1.243553  0
Br  Br68  1  0.50499165  0.95614994  0.26816047  1  0  -0.572125  0  0.938548  0  0  -0.511763  0  1.226624  0  0  -0.533392  0  1.204626  0  0  -0.277141  -0.495566  0  1.242  0
Br  Br69  1  0.72912271  0.54376440  0.23170754  1  0  -0.571846  0  0.939664  0  0  -0.511433  0  1.228081  0  0  -0.533033  0  1.205961  0  0  -0.276552  -0.495523  0  1.243667  0
N  N70  1  0.80590396  0.26264678  0.48496311  1  0  -0.010541  0  3.537685  0  0  0.082446  0  3.740382  0  0  0.069101  0  3.766964  0  0  -0.203643  0.091057  0  3.722504  0
N  N71  1  0.55374482  0.23727546  0.01493812  1  0  -0.010123  0  3.535582  0  0  0.083218  0  3.73829  0  0  0.069839  0  3.764892  0  0  -0.203394  0.091385  0  3.720224  0
N  N72  1  0.19409999  0.73735609  0.51503731  1  0  -0.010709  0  3.537827  0  0  0.082268  0  3.740515  0  0  0.068917  0  3.767096  0  0  -0.203756  0.090879  0  3.722642  0
N  N73  1  0.44624964  0.76272533  0.98505861  1  0  -0.010269  0  3.535696  0  0  0.08303  0  3.738416  0  0  0.069656  0  3.765019  0  0  -0.203416  0.091191  0  3.720358  0
O  O74  1  0.02116563  0.23893529  0.62628968  1  0  -0.633663  0  2.012323  0  0  -0.571295  0  2.267669  0  0  -0.601506  0  2.258858  0  0  -0.337886  -0.549944  0  2.272683  0
O  O75  1  0.88632275  0.26092901  0.87353183  1  0  -0.634005  0  2.011091  0  0  -0.571769  0  2.26629  0  0  -0.601832  0  2.25728  0  0  -0.338136  -0.550079  0  2.271341  0
O  O76  1  0.97883109  0.76106965  0.37371680  1  0  -0.633632  0  2.012241  0  0  -0.571278  0  2.267583  0  0  -0.601491  0  2.258784  0  0  -0.337943  -0.549927  0  2.272594  0
O  O77  1  0.11368075  0.73906543  0.12646661  1  0  -0.634039  0  2.011315  0  0  -0.571813  0  2.266502  0  0  -0.601868  0  2.257492  0  0  -0.338149  -0.550125  0  2.271559  0
O  O78  1  0.85291641  0.46434667  0.64563555  1  0  -0.603002  0  1.955143  0  0  -0.551552  0  2.181271  0  0  -0.576118  0  2.173145  0  0  -0.316139  -0.534046  0  2.186057  0
O  O79  1  0.96296889  0.03545382  0.85438175  1  0  -0.603679  0  1.956742  0  0  -0.552684  0  2.182864  0  0  -0.577261  0  2.174736  0  0  -0.316646  -0.534939  0  2.187479  0
O  O80  1  0.14709164  0.53566150  0.35436356  1  0  -0.602927  0  1.95536  0  0  -0.551455  0  2.181462  0  0  -0.576022  0  2.173338  0  0  -0.316064  -0.533943  0  2.186242  0
O  O81  1  0.03703711  0.96453744  0.14561884  1  0  -0.603748  0  1.956641  0  0  -0.552778  0  2.18277  0  0  -0.577349  0  2.174646  0  0  -0.316696  -0.535052  0  2.18743  0
