# generated using pymatgen
data_Cd3H12(C6N5)2
_symmetry_space_group_name_H-M   'P 1'
_cell_length_a   7.80714637
_cell_length_b   11.41648483
_cell_length_c   13.30053323
_cell_angle_alpha   89.99998198
_cell_angle_beta   90.00003156
_cell_angle_gamma   109.99202679
_symmetry_Int_Tables_number   1
_chemical_formula_structural   Cd3H12(C6N5)2
_chemical_formula_sum   'Cd6 H24 C24 N20'
_cell_volume   1114.04205678
_cell_formula_units_Z   2
loop_
 _symmetry_equiv_pos_site_id
 _symmetry_equiv_pos_as_xyz
  1  'x, y, z'
loop_
 _atom_site_type_symbol
 _atom_site_label
 _atom_site_symmetry_multiplicity
 _atom_site_fract_x
 _atom_site_fract_y
 _atom_site_fract_z
 _atom_site_occupancy
 _atom_site_hle17_bader_spin_density
 _atom_site_hle17_ddec_charge
 _atom_site_hle17_ddec_spin_density
 _atom_site_hle17_ddec_sum_bond_order
 _atom_site_hle17_magmom
 _atom_site_hse06_10hf_bader_spin_density
 _atom_site_hse06_10hf_ddec_charge
 _atom_site_hse06_10hf_ddec_spin_density
 _atom_site_hse06_10hf_ddec_sum_bond_order
 _atom_site_hse06_10hf_magmom
 _atom_site_hse06_bader_spin_density
 _atom_site_hse06_ddec_charge
 _atom_site_hse06_ddec_spin_density
 _atom_site_hse06_ddec_sum_bond_order
 _atom_site_hse06_magmom
 _atom_site_pbe_bader_spin_density
 _atom_site_pbe_cm5_charge
 _atom_site_pbe_ddec_charge
 _atom_site_pbe_ddec_spin_density
 _atom_site_pbe_ddec_sum_bond_order
 _atom_site_pbe_magmom
Cd  Cd0  1  0.27471452  0.31327001  0.25000051  1  0  0.765874  0  2.298454  0  0  0.579444  0  2.77663  0  0  0.614098  0  2.738215  0  0  0.60994  0.55544  0  2.802648  0
Cd  Cd1  1  0.96131117  0.68672325  0.24999906  1  0  0.764702  0  2.299937  0  0  0.57855  0  2.777428  0  0  0.613181  0  2.739086  0  0  0.610053  0.554247  0  2.804182  0
Cd  Cd2  1  0.03868839  0.31327708  0.75000072  1  0  0.764691  0  2.299978  0  0  0.578564  0  2.777444  0  0  0.613189  0  2.739113  0  0  0.610053  0.554261  0  2.804196  0
Cd  Cd3  1  0.72528585  0.68672939  0.75000003  1  0  0.765867  0  2.298407  0  0  0.579446  0  2.776575  0  0  0.614098  0  2.738161  0  0  0.609925  0.55544  0  2.802593  0
Cd  Cd4  1  0.49999930  0.99999900  0.99999970  1  0  1.077398  0  1.871998  0  0  0.877281  0  2.323292  0  0  0.927208  0  2.281758  0  0  0.82382  0.842264  0  2.351474  0
Cd  Cd5  1  0.49999909  0.99999904  0.49999945  1  0  1.077386  0  1.872006  0  0  0.877252  0  2.323313  0  0  0.927183  0  2.281778  0  0  0.823822  0.842236  0  2.351494  0
H  H6  1  0.91623562  0.00000067  0.81724332  1  0  0.071782  0  0.937897  0  0  0.083075  0  1.006765  0  0  0.082775  0  1.008196  0  0  0.112855  0.083252  0  1.005831  0
H  H7  1  0.08376481  0.99999872  0.31724355  1  0  0.071783  0  0.937851  0  0  0.083102  0  1.006685  0  0  0.082806  0  1.008117  0  0  0.112871  0.08328  0  1.005754  0
H  H8  1  0.08376348  0.99999873  0.18275571  1  0  0.071742  0  0.9379  0  0  0.083058  0  1.006747  0  0  0.082758  0  1.008177  0  0  0.112849  0.083237  0  1.005814  0
H  H9  1  0.91623428  0.00000068  0.68275623  1  0  0.071803  0  0.937854  0  0  0.083117  0  1.006679  0  0  0.08282  0  1.008113  0  0  0.112868  0.083293  0  1.005746  0
H  H10  1  0.18878733  0.11291057  0.90737191  1  0  0.076107  0  0.920587  0  0  0.088332  0  0.985599  0  0  0.088638  0  0.985572  0  0  0.117833  0.088047  0  0.98575  0
H  H11  1  0.07582091  0.88700505  0.90737028  1  0  0.075777  0  0.920734  0  0  0.087952  0  0.985792  0  0  0.088179  0  0.985828  0  0  0.117755  0.087724  0  0.985866  0
H  H12  1  0.92418006  0.11299525  0.40737102  1  0  0.075731  0  0.920686  0  0  0.087905  0  0.985761  0  0  0.088133  0  0.985795  0  0  0.117725  0.087677  0  0.985836  0
H  H13  1  0.81121411  0.88709067  0.40737315  1  0  0.076034  0  0.920481  0  0  0.088253  0  0.98554  0  0  0.088561  0  0.985512  0  0  0.117801  0.087968  0  0.985692  0
H  H14  1  0.81121398  0.88709069  0.09262712  1  0  0.076042  0  0.920478  0  0  0.088264  0  0.985533  0  0  0.088571  0  0.985504  0  0  0.117805  0.087979  0  0.985685  0
H  H15  1  0.92417946  0.11299435  0.09262950  1  0  0.075732  0  0.920715  0  0  0.087904  0  0.985794  0  0  0.088133  0  0.985828  0  0  0.117719  0.087677  0  0.985868  0
H  H16  1  0.07582125  0.88700601  0.59262952  1  0  0.075694  0  0.920658  0  0  0.087864  0  0.985745  0  0  0.088092  0  0.985777  0  0  0.117696  0.087636  0  0.985819  0
H  H17  1  0.18878720  0.11291060  0.59262814  1  0  0.076081  0  0.920532  0  0  0.0883  0  0.985562  0  0  0.088607  0  0.985536  0  0  0.117811  0.088016  0  0.985714  0
H  H18  1  0.39235143  0.19637140  0.84060393  1  0  0.085803  0  0.897979  0  0  0.100744  0  0.95598  0  0  0.100975  0  0.956181  0  0  0.124922  0.100529  0  0.955952  0
H  H19  1  0.19584892  0.80352409  0.84059855  1  0  0.085742  0  0.897537  0  0  0.100247  0  0.955954  0  0  0.100431  0  0.956144  0  0  0.124734  0.099988  0  0.956028  0
H  H20  1  0.80415200  0.19647622  0.34059848  1  0  0.08575  0  0.897573  0  0  0.100256  0  0.955989  0  0  0.10044  0  0.956179  0  0  0.124748  0.099998  0  0.956064  0
H  H21  1  0.60764914  0.80363078  0.34060363  1  0  0.085748  0  0.898056  0  0  0.100709  0  0.956042  0  0  0.100942  0  0.956241  0  0  0.124903  0.100496  0  0.95601  0
H  H22  1  0.60764906  0.80363079  0.15939585  1  0  0.08575  0  0.898056  0  0  0.100712  0  0.956042  0  0  0.100945  0  0.95624  0  0  0.124902  0.1005  0  0.956009  0
H  H23  1  0.80415193  0.19647624  0.15940123  1  0  0.085752  0  0.89756  0  0  0.100254  0  0.955985  0  0  0.100439  0  0.956175  0  0  0.124736  0.099996  0  0.956059  0
H  H24  1  0.19585012  0.80352411  0.65940206  1  0  0.085723  0  0.897582  0  0  0.100238  0  0.955994  0  0  0.10042  0  0.956184  0  0  0.124733  0.099978  0  0.956068  0
H  H25  1  0.39235136  0.19637142  0.65939691  1  0  0.085795  0  0.897978  0  0  0.100733  0  0.95598  0  0  0.100964  0  0.956181  0  0  0.124917  0.100518  0  0.955955  0
H  H26  1  0.47129517  0.91656341  0.74999996  1  0  0.075123  0  0.929051  0  0  0.086568  0  0.996867  0  0  0.086153  0  0.998223  0  0  0.117852  0.086794  0  0.996023  0
H  H27  1  0.55469289  0.08341238  0.75000008  1  0  0.074905  0  0.929833  0  0  0.087088  0  0.996815  0  0  0.086664  0  0.998192  0  0  0.117811  0.087325  0  0.995959  0
H  H28  1  0.44530760  0.91658982  0.24999970  1  0  0.074907  0  0.929837  0  0  0.087086  0  0.996825  0  0  0.08666  0  0.998202  0  0  0.117814  0.08732  0  0.995973  0
H  H29  1  0.52870405  0.08343879  0.24999983  1  0  0.075148  0  0.928927  0  0  0.08659  0  0.996753  0  0  0.086169  0  0.998113  0  0  0.117864  0.086823  0  0.9959  0
C  C30  1  0.10211873  0.42802064  0.24999971  1  0  -0.080372  0  3.297393  0  0  -0.062871  0  3.604785  0  0  -0.060377  0  3.615573  0  0  -0.008965  -0.06413  0  3.596955  0
C  C31  1  0.67400605  0.57213306  0.24999978  1  0  -0.079881  0  3.296387  0  0  -0.062354  0  3.603574  0  0  -0.059843  0  3.614395  0  0  -0.008714  -0.063535  0  3.596089  0
C  C32  1  0.32599305  0.42786635  0.75000000  1  0  -0.079858  0  3.296301  0  0  -0.062329  0  3.603475  0  0  -0.059818  0  3.614297  0  0  -0.008696  -0.06351  0  3.595987  0
C  C33  1  0.89788037  0.57197876  0.75000007  1  0  -0.080289  0  3.297346  0  0  -0.062784  0  3.604735  0  0  -0.060287  0  3.615525  0  0  -0.008933  -0.064042  0  3.596904  0
C  C34  1  0.34885434  0.21560485  0.12081473  1  0  -0.063629  0  3.209128  0  0  -0.042716  0  3.507268  0  0  -0.039312  0  3.516926  0  0  0.007868  -0.044999  0  3.500711  0
C  C35  1  0.13318823  0.78438695  0.12083868  1  0  -0.062647  0  3.209289  0  0  -0.041593  0  3.507272  0  0  -0.038204  0  3.516985  0  0  0.008261  -0.043858  0  3.500926  0
C  C36  1  0.86680820  0.21561247  0.62084063  1  0  -0.062782  0  3.209252  0  0  -0.041741  0  3.507242  0  0  -0.038351  0  3.516956  0  0  0.008185  -0.044003  0  3.500895  0
C  C37  1  0.65114593  0.78439458  0.62081421  1  0  -0.063663  0  3.209192  0  0  -0.042754  0  3.507332  0  0  -0.039352  0  3.516992  0  0  0.007853  -0.045037  0  3.500775  0
C  C38  1  0.65114651  0.78439549  0.87918580  1  0  -0.063644  0  3.209201  0  0  -0.042732  0  3.507336  0  0  -0.039329  0  3.516996  0  0  0.007865  -0.045013  0  3.500779  0
C  C39  1  0.86681262  0.21561339  0.87916186  1  0  -0.062768  0  3.209234  0  0  -0.041726  0  3.507217  0  0  -0.038336  0  3.51693  0  0  0.008191  -0.043989  0  3.50087  0
C  C40  1  0.13319043  0.78438599  0.37916065  1  0  -0.062787  0  3.209231  0  0  -0.041745  0  3.507223  0  0  -0.038354  0  3.516934  0  0  0.008169  -0.044009  0  3.500876  0
C  C41  1  0.34885491  0.21560576  0.37918558  1  0  -0.063617  0  3.209157  0  0  -0.042705  0  3.507301  0  0  -0.039301  0  3.51696  0  0  0.007865  -0.044987  0  3.500743  0
C  C42  1  0.99780496  0.00000169  0.75000017  1  0  0.069556  0  3.643159  0  0  -0.002068  0  3.904858  0  0  0.00519  0  3.916358  0  0  0.011137  -0.007021  0  3.897014  0
C  C43  1  0.00219542  0.99999771  0.24999962  1  0  0.069683  0  3.643034  0  0  -0.002006  0  3.904766  0  0  0.005274  0  3.916281  0  0  0.011138  -0.006974  0  3.896943  0
C  C44  1  0.26951016  0.11257884  0.83989944  1  0  0.078434  0  3.613391  0  0  0.005778  0  3.878193  0  0  0.014016  0  3.887864  0  0  0.019226  0.000116  0  3.87164  0
C  C45  1  0.15685366  0.88735469  0.83989781  1  0  0.080404  0  3.611998  0  0  0.008449  0  3.876263  0  0  0.016859  0  3.885725  0  0  0.0199  0.002775  0  3.869716  0
C  C46  1  0.84314645  0.11264656  0.33989777  1  0  0.080432  0  3.611972  0  0  0.008472  0  3.876232  0  0  0.016883  0  3.885698  0  0  0.019919  0.0028  0  3.869683  0
C  C47  1  0.73048646  0.88742054  0.33989840  1  0  0.078652  0  3.613239  0  0  0.005926  0  3.878044  0  0  0.014182  0  3.887737  0  0  0.019292  0.000263  0  3.871487  0
C  C48  1  0.73048638  0.88742056  0.16010185  1  0  0.078632  0  3.61327  0  0  0.005907  0  3.878079  0  0  0.014168  0  3.887764  0  0  0.019277  0.000244  0  3.871523  0
C  C49  1  0.84314591  0.11264565  0.16010197  1  0  0.080441  0  3.61202  0  0  0.008478  0  3.876299  0  0  0.016882  0  3.885773  0  0  0.019928  0.002804  0  3.86975  0
C  C50  1  0.15685486  0.88735470  0.66010276  1  0  0.080529  0  3.611896  0  0  0.008557  0  3.876168  0  0  0.016967  0  3.885635  0  0  0.019962  0.002882  0  3.86962  0
C  C51  1  0.26951183  0.11257979  0.66010063  1  0  0.078479  0  3.613318  0  0  0.005826  0  3.878114  0  0  0.014063  0  3.887785  0  0  0.019262  0.000162  0  3.871563  0
C  C52  1  0.43169174  0.99999228  0.75000069  1  0  0.081506  0  3.593504  0  0  0.009552  0  3.854101  0  0  0.017641  0  3.865257  0  0  0.016045  0.004005  0  3.846496  0
C  C53  1  0.56830864  0.00000713  0.24999984  1  0  0.081521  0  3.593323  0  0  0.009577  0  3.853932  0  0  0.017678  0  3.865077  0  0  0.016043  0.00402  0  3.846339  0
N  N54  1  0.04007167  0.50759365  0.24999969  1  0  -0.38064  0  3.083307  0  0  -0.313822  0  3.349885  0  0  -0.332647  0  3.365192  0  0  -0.370642  -0.300923  0  3.339252  0
N  N55  1  0.53244453  0.49245964  0.24999977  1  0  -0.380973  0  3.081622  0  0  -0.314103  0  3.34827  0  0  -0.33295  0  3.363565  0  0  -0.370795  -0.301244  0  3.337547  0
N  N56  1  0.46755631  0.50754070  0.75000001  1  0  -0.380996  0  3.081557  0  0  -0.314135  0  3.348212  0  0  -0.332981  0  3.363506  0  0  -0.370812  -0.301274  0  3.337488  0
N  N57  1  0.95992870  0.49240575  0.75000009  1  0  -0.380695  0  3.083283  0  0  -0.313884  0  3.349863  0  0  -0.332711  0  3.365174  0  0  -0.370662  -0.300986  0  3.33923  0
N  N58  1  0.39699068  0.15114132  0.06782289  1  0  -0.420686  0  3.066386  0  0  -0.356682  0  3.342271  0  0  -0.375979  0  3.357083  0  0  -0.371213  -0.34354  0  3.33204  0
N  N59  1  0.24573142  0.84889635  0.06784758  1  0  -0.421786  0  3.066455  0  0  -0.358132  0  3.342905  0  0  -0.377434  0  3.357718  0  0  -0.371725  -0.345044  0  3.332764  0
N  N60  1  0.75426752  0.15110308  0.56784726  1  0  -0.421655  0  3.066345  0  0  -0.357989  0  3.342783  0  0  -0.377292  0  3.357597  0  0  -0.371652  -0.3449  0  3.332641  0
N  N61  1  0.60300826  0.84885811  0.56782308  1  0  -0.420651  0  3.066457  0  0  -0.35664  0  3.342336  0  0  -0.375936  0  3.357148  0  0  -0.371188  -0.343499  0  3.332105  0
N  N62  1  0.60300841  0.84885808  0.93217690  1  0  -0.420676  0  3.066481  0  0  -0.356666  0  3.342351  0  0  -0.375962  0  3.357164  0  0  -0.371205  -0.343525  0  3.332122  0
N  N63  1  0.75426896  0.15110305  0.93215295  1  0  -0.421661  0  3.066359  0  0  -0.357996  0  3.342795  0  0  -0.377298  0  3.357609  0  0  -0.371654  -0.344908  0  3.332654  0
N  N64  1  0.24573157  0.84889632  0.43215252  1  0  -0.42165  0  3.066364  0  0  -0.35798  0  3.342792  0  0  -0.377283  0  3.357605  0  0  -0.371637  -0.344892  0  3.332649  0
N  N65  1  0.39699259  0.15114222  0.43217745  1  0  -0.420684  0  3.066405  0  0  -0.356675  0  3.342285  0  0  -0.375972  0  3.357097  0  0  -0.371192  -0.343533  0  3.332053  0
N  N66  1  0.32495724  0.99995330  0.84235261  1  0  -0.291329  0  3.158873  0  0  -0.201529  0  3.406749  0  0  -0.220118  0  3.424521  0  0  -0.338863  -0.188428  0  3.394065  0
N  N67  1  0.67504461  0.00004889  0.34235330  1  0  -0.291354  0  3.158878  0  0  -0.201529  0  3.406732  0  0  -0.220119  0  3.424504  0  0  -0.338858  -0.188427  0  3.394047  0
N  N68  1  0.67504406  0.00004797  0.15764642  1  0  -0.291362  0  3.158848  0  0  -0.201554  0  3.406734  0  0  -0.220144  0  3.424508  0  0  -0.33883  -0.188453  0  3.394049  0
N  N69  1  0.32495717  0.99995331  0.65764723  1  0  -0.291339  0  3.158887  0  0  -0.201522  0  3.406751  0  0  -0.220114  0  3.424527  0  0  -0.338856  -0.188421  0  3.394066  0
N  N70  1  0.16077197  0.11349996  0.75000002  1  0  -0.286453  0  3.225981  0  0  -0.204293  0  3.477482  0  0  -0.221737  0  3.496032  0  0  -0.345249  -0.191871  0  3.464642  0
N  N71  1  0.04723015  0.88648712  0.74999989  1  0  -0.288739  0  3.22706  0  0  -0.206911  0  3.478931  0  0  -0.224319  0  3.497252  0  0  -0.345454  -0.194568  0  3.466176  0
N  N72  1  0.95277069  0.11351322  0.24999989  1  0  -0.288756  0  3.227046  0  0  -0.206913  0  3.478913  0  0  -0.224323  0  3.497238  0  0  -0.345468  -0.194568  0  3.466161  0
N  N73  1  0.83922677  0.88650130  0.24999977  1  0  -0.286617  0  3.226075  0  0  -0.204332  0  3.477505  0  0  -0.221858  0  3.496139  0  0  -0.345261  -0.191901  0  3.464658  0
