# generated using pymatgen
data_TbH8C10NO9
_symmetry_space_group_name_H-M   'P 1'
_cell_length_a   9.45221900
_cell_length_b   11.04041098
_cell_length_c   13.39007637
_cell_angle_alpha   65.96685539
_cell_angle_beta   69.32782256
_cell_angle_gamma   64.66564365
_symmetry_Int_Tables_number   1
_chemical_formula_structural   TbH8C10NO9
_chemical_formula_sum   'Tb4 H32 C40 N4 O36'
_cell_volume   1126.09837510
_cell_formula_units_Z   4
loop_
 _symmetry_equiv_pos_site_id
 _symmetry_equiv_pos_as_xyz
  1  'x, y, z'
loop_
 _atom_site_type_symbol
 _atom_site_label
 _atom_site_symmetry_multiplicity
 _atom_site_fract_x
 _atom_site_fract_y
 _atom_site_fract_z
 _atom_site_occupancy
 _atom_site_hle17_bader_spin_density
 _atom_site_hle17_ddec_charge
 _atom_site_hle17_ddec_spin_density
 _atom_site_hle17_ddec_sum_bond_order
 _atom_site_hle17_magmom
 _atom_site_hse06_10hf_bader_spin_density
 _atom_site_hse06_10hf_ddec_charge
 _atom_site_hse06_10hf_ddec_spin_density
 _atom_site_hse06_10hf_ddec_sum_bond_order
 _atom_site_hse06_10hf_magmom
 _atom_site_hse06_bader_spin_density
 _atom_site_hse06_ddec_charge
 _atom_site_hse06_ddec_spin_density
 _atom_site_hse06_ddec_sum_bond_order
 _atom_site_hse06_magmom
 _atom_site_pbe_bader_spin_density
 _atom_site_pbe_cm5_charge
 _atom_site_pbe_ddec_charge
 _atom_site_pbe_ddec_spin_density
 _atom_site_pbe_ddec_sum_bond_order
 _atom_site_pbe_magmom
Tb  Tb0  1  0.06667461  0.92546753  0.81272730  1  0  2.237563  0  1.580967  0  0  2.082814  0  2.052086  0  0  2.209334  0  1.863506  0  0  1.459305  2.045422  0  2.084355  0
Tb  Tb1  1  0.80484606  0.57454236  0.68727991  1  0  2.237588  0  1.580028  0  0  2.082067  0  2.052218  0  0  2.209305  0  1.862434  0  0  1.459519  2.045365  0  2.083422  0
Tb  Tb2  1  0.93332490  0.07453298  0.18727258  1  0  2.237596  0  1.580948  0  0  2.08286  0  2.052101  0  0  2.209404  0  1.86348  0  0  1.459311  2.045495  0  2.084323  0
Tb  Tb3  1  0.19515271  0.42545815  0.31272071  1  0  2.237589  0  1.58003  0  0  2.082058  0  2.05223  0  0  2.209291  0  1.862442  0  0  1.459546  2.045338  0  2.083456  0
H  H4  1  0.48193629  0.00557592  0.85061527  1  0  0.116868  0  0.924842  0  0  0.125382  0  0.987237  0  0  0.129392  0  0.983908  0  0  0.111578  0.122296  0  0.989823  0
H  H5  1  0.33804887  0.49440132  0.64942450  1  0  0.116694  0  0.924294  0  0  0.12515  0  0.986914  0  0  0.129119  0  0.983628  0  0  0.111442  0.122118  0  0.989418  0
H  H6  1  0.51806373  0.99442352  0.14938588  1  0  0.116892  0  0.924801  0  0  0.125392  0  0.987214  0  0  0.129417  0  0.983867  0  0  0.111595  0.122303  0  0.989801  0
H  H7  1  0.66195008  0.50559816  0.35057431  1  0  0.116672  0  0.924301  0  0  0.125131  0  0.986911  0  0  0.129098  0  0.983632  0  0  0.111447  0.122087  0  0.989427  0
H  H8  1  0.59289843  0.30342348  0.91622865  1  0  0.13156  0  0.953938  0  0  0.139663  0  1.018028  0  0  0.144219  0  1.013649  0  0  0.120803  0.13657  0  1.020789  0
H  H9  1  0.81232978  0.19662138  0.58374510  1  0  0.132582  0  0.952578  0  0  0.139893  0  1.017608  0  0  0.144606  0  1.013055  0  0  0.120287  0.136631  0  1.02058  0
H  H10  1  0.40710108  0.69657703  0.08377123  1  0  0.131547  0  0.953955  0  0  0.139649  0  1.018044  0  0  0.144205  0  1.013666  0  0  0.120793  0.136557  0  1.020805  0
H  H11  1  0.18767139  0.80337702  0.41625555  1  0  0.132605  0  0.952537  0  0  0.139919  0  1.017557  0  0  0.144637  0  1.012997  0  0  0.120295  0.136655  0  1.02053  0
H  H12  1  0.10228876  0.35002206  0.95799945  1  0  0.122671  0  0.951459  0  0  0.128906  0  1.018158  0  0  0.13359  0  1.013549  0  0  0.115094  0.125686  0  1.021343  0
H  H13  1  0.41009306  0.14998490  0.54198240  1  0  0.123477  0  0.952694  0  0  0.129405  0  1.019631  0  0  0.134137  0  1.014953  0  0  0.115048  0.126191  0  1.022821  0
H  H14  1  0.89770943  0.64997630  0.04200419  1  0  0.122752  0  0.951408  0  0  0.128952  0  1.018138  0  0  0.133636  0  1.01353  0  0  0.115118  0.125732  0  1.02132  0
H  H15  1  0.58990759  0.85001457  0.45801697  1  0  0.123531  0  0.952633  0  0  0.12942  0  1.019613  0  0  0.13415  0  1.014939  0  0  0.11505  0.126215  0  1.022785  0
H  H16  1  0.37838007  0.49588116  0.96576409  1  0  0.360386  0  0.817178  0  0  0.337285  0  0.882143  0  0  0.346188  0  0.872927  0  0  0.331085  0.331133  0  0.88825  0
H  H17  1  0.83986260  0.00423643  0.53420354  1  0  0.359028  0  0.817612  0  0  0.336159  0  0.881997  0  0  0.345106  0  0.872817  0  0  0.330958  0.330009  0  0.888013  0
H  H18  1  0.62161950  0.50411724  0.03423702  1  0  0.360367  0  0.817199  0  0  0.337258  0  0.882169  0  0  0.346164  0  0.872952  0  0  0.331081  0.331104  0  0.888277  0
H  H19  1  0.16013646  0.99576303  0.46579630  1  0  0.35903  0  0.817594  0  0  0.336162  0  0.881982  0  0  0.345109  0  0.872803  0  0  0.330965  0.330017  0  0.887999  0
H  H20  1  0.21514762  0.45143544  0.04830361  1  0  0.350461  0  0.877012  0  0  0.330183  0  0.938393  0  0  0.33905  0  0.931199  0  0  0.318914  0.324032  0  0.943518  0
H  H21  1  0.71484109  0.04852037  0.45167334  1  0  0.350691  0  0.877297  0  0  0.329963  0  0.939412  0  0  0.3389  0  0.932171  0  0  0.318715  0.323787  0  0.944542  0
H  H22  1  0.78485125  0.54856505  0.95169805  1  0  0.350455  0  0.877019  0  0  0.330162  0  0.938417  0  0  0.339032  0  0.931221  0  0  0.318915  0.324011  0  0.943543  0
H  H23  1  0.28515967  0.95147909  0.54832707  1  0  0.350672  0  0.877326  0  0  0.329938  0  0.939456  0  0  0.338875  0  0.932215  0  0  0.3187  0.323765  0  0.944588  0
H  H24  1  0.21200555  0.55416467  0.91564108  1  0  0.354756  0  0.869533  0  0  0.334115  0  0.930745  0  0  0.342589  0  0.923648  0  0  0.318769  0.32831  0  0.935665  0
H  H25  1  0.68171125  0.94582059  0.58435394  1  0  0.354036  0  0.871334  0  0  0.333017  0  0.932951  0  0  0.341549  0  0.925864  0  0  0.318382  0.327208  0  0.937802  0
H  H26  1  0.78799481  0.44583584  0.08435908  1  0  0.354743  0  0.86952  0  0  0.3341  0  0.93074  0  0  0.342577  0  0.923638  0  0  0.318743  0.328292  0  0.935663  0
H  H27  1  0.31828786  0.05418098  0.41564569  1  0  0.353995  0  0.87124  0  0  0.332964  0  0.932885  0  0  0.341495  0  0.9258  0  0  0.318367  0.327164  0  0.937729  0
H  H28  1  0.11527206  0.17858558  0.59518223  1  0  0.446166  0  0.828406  0  0  0.423389  0  0.886795  0  0  0.432998  0  0.872883  0  0  0.315467  0.416907  0  0.89632  0
H  H29  1  0.88896462  0.32143609  0.90478220  1  0  0.444944  0  0.828845  0  0  0.422202  0  0.888241  0  0  0.431829  0  0.874299  0  0  0.314756  0.415717  0  0.897692  0
H  H30  1  0.88472870  0.82141387  0.40481817  1  0  0.446157  0  0.828422  0  0  0.423377  0  0.886815  0  0  0.432986  0  0.872903  0  0  0.315461  0.416892  0  0.896343  0
H  H31  1  0.11103693  0.67856547  0.09521725  1  0  0.444947  0  0.828822  0  0  0.422206  0  0.888225  0  0  0.431834  0  0.874281  0  0  0.31477  0.415719  0  0.897661  0
H  H32  1  0.94190259  0.22144094  0.66113493  1  0  0.445663  0  0.855028  0  0  0.414484  0  0.919268  0  0  0.426029  0  0.902487  0  0  0.305284  0.406459  0  0.931004  0
H  H33  1  0.82447287  0.27846856  0.83885251  1  0  0.445831  0  0.854712  0  0  0.415037  0  0.918155  0  0  0.426575  0  0.901402  0  0  0.305413  0.406995  0  0.929927  0
H  H34  1  0.05809891  0.77855853  0.33886473  1  0  0.445679  0  0.854998  0  0  0.414503  0  0.919232  0  0  0.426046  0  0.902455  0  0  0.305296  0.406479  0  0.930967  0
H  H35  1  0.17552834  0.72153195  0.16114793  1  0  0.445837  0  0.854691  0  0  0.415073  0  0.918086  0  0  0.42661  0  0.901335  0  0  0.305457  0.40703  0  0.929859  0
C  C36  1  0.43772617  0.72228479  0.82589250  1  0  0.556543  0  3.948593  0  0  0.516121  0  4.242274  0  0  0.546027  0  4.238512  0  0  0.212276  0.495625  0  4.248948  0
C  C37  1  0.98599225  0.77774821  0.67412442  1  0  0.555006  0  3.942648  0  0  0.515187  0  4.235622  0  0  0.545119  0  4.231748  0  0  0.211119  0.494669  0  4.242394  0
C  C38  1  0.56226964  0.27771678  0.17410703  1  0  0.556663  0  3.948371  0  0  0.516163  0  4.24207  0  0  0.546068  0  4.238306  0  0  0.21228  0.495666  0  4.248749  0
C  C39  1  0.01400996  0.22225438  0.32587713  1  0  0.554892  0  3.942804  0  0  0.515134  0  4.235708  0  0  0.545072  0  4.231835  0  0  0.211079  0.494618  0  4.242481  0
C  C40  1  0.73028876  0.06939487  0.85078894  1  0  0.629218  0  3.943663  0  0  0.582116  0  4.23263  0  0  0.614244  0  4.23493  0  0  0.193132  0.560144  0  4.234517  0
C  C41  1  0.65049701  0.43048384  0.64925643  1  0  0.633423  0  3.937851  0  0  0.585403  0  4.22704  0  0  0.617518  0  4.229331  0  0  0.194856  0.563443  0  4.22905  0
C  C42  1  0.26971314  0.93060354  0.14921096  1  0  0.629301  0  3.943552  0  0  0.582267  0  4.232455  0  0  0.614396  0  4.234751  0  0  0.193173  0.560296  0  4.234346  0
C  C43  1  0.34950091  0.56951667  0.35074391  1  0  0.633436  0  3.937902  0  0  0.58548  0  4.227021  0  0  0.617589  0  4.22931  0  0  0.194906  0.563521  0  4.229029  0
C  C44  1  0.55537771  0.14767701  0.87787645  1  0  -0.055662  0  3.768329  0  0  -0.029503  0  4.005635  0  0  -0.038405  0  4.029091  0  0  -0.01495  -0.023641  0  3.989488  0
C  C45  1  0.58081163  0.35229628  0.62216897  1  0  -0.056539  0  3.770471  0  0  -0.028253  0  4.004589  0  0  -0.037097  0  4.027928  0  0  -0.013657  -0.022412  0  3.988456  0
C  C46  1  0.44462031  0.85232348  0.12212493  1  0  -0.05568  0  3.768351  0  0  -0.029537  0  4.005656  0  0  -0.038445  0  4.029123  0  0  -0.014945  -0.023677  0  3.989511  0
C  C47  1  0.41918703  0.64770423  0.37783062  1  0  -0.056589  0  3.770487  0  0  -0.028367  0  4.004667  0  0  -0.037202  0  4.027996  0  0  -0.013707  -0.022537  0  3.988547  0
C  C48  1  0.44209169  0.10071769  0.87378387  1  0  -0.052978  0  3.668065  0  0  -0.093957  0  3.922202  0  0  -0.090906  0  3.94022  0  0  -0.065771  -0.095239  0  3.909488  0
C  C49  1  0.41649911  0.39926802  0.62625518  1  0  -0.052434  0  3.668632  0  0  -0.094063  0  3.922176  0  0  -0.09098  0  3.940168  0  0  -0.065746  -0.095294  0  3.909399  0
C  C50  1  0.55790714  0.89928070  0.12621800  1  0  -0.053016  0  3.668009  0  0  -0.093989  0  3.922152  0  0  -0.090949  0  3.940164  0  0  -0.065799  -0.09527  0  3.90944  0
C  C51  1  0.58349865  0.60073040  0.37374434  1  0  -0.052318  0  3.668487  0  0  -0.093918  0  3.922044  0  0  -0.090845  0  3.940041  0  0  -0.06571  -0.095138  0  3.909276  0
C  C52  1  0.34329353  0.34203930  0.93380586  1  0  0.250787  0  3.702458  0  0  0.251579  0  3.955563  0  0  0.25373  0  3.976933  0  0  0.08792  0.250005  0  3.941015  0
C  C53  1  0.61895552  0.15797172  0.56613902  1  0  0.25265  0  3.700277  0  0  0.251487  0  3.955503  0  0  0.253721  0  3.97694  0  0  0.089566  0.249867  0  3.940874  0
C  C54  1  0.65670494  0.65796224  0.06619556  1  0  0.250867  0  3.70239  0  0  0.251626  0  3.955513  0  0  0.25378  0  3.976881  0  0  0.087962  0.250052  0  3.940964  0
C  C55  1  0.38104274  0.84202985  0.43386033  1  0  0.252628  0  3.700318  0  0  0.251455  0  3.955554  0  0  0.25369  0  3.976991  0  0  0.089565  0.249845  0  3.940928  0
C  C56  1  0.50576474  0.26834253  0.90980663  1  0  -0.127531  0  3.645542  0  0  -0.165368  0  3.896176  0  0  -0.163836  0  3.912457  0  0  -0.071615  -0.166263  0  3.884813  0
C  C57  1  0.68370049  0.23166787  0.59017896  1  0  -0.129708  0  3.646116  0  0  -0.167066  0  3.897022  0  0  -0.165633  0  3.913113  0  0  -0.07242  -0.167833  0  3.88581  0
C  C58  1  0.49423443  0.73165693  0.09019424  1  0  -0.12753  0  3.645528  0  0  -0.165339  0  3.89615  0  0  -0.163807  0  3.912431  0  0  -0.071588  -0.166236  0  3.884788  0
C  C59  1  0.31629977  0.76833265  0.40982017  1  0  -0.129731  0  3.646127  0  0  -0.167072  0  3.897062  0  0  -0.165644  0  3.913146  0  0  -0.072445  -0.167836  0  3.885851  0
C  C60  1  0.22941301  0.29512191  0.93285716  1  0  -0.113726  0  3.657023  0  0  -0.153529  0  3.913923  0  0  -0.151264  0  3.928907  0  0  -0.069461  -0.154838  0  3.90336  0
C  C61  1  0.45720944  0.20488668  0.56710985  1  0  -0.116276  0  3.657852  0  0  -0.1552  0  3.915063  0  0  -0.15297  0  3.930079  0  0  -0.070212  -0.156399  0  3.90445  0
C  C62  1  0.77058758  0.70487436  0.06714651  1  0  -0.113828  0  3.657004  0  0  -0.153609  0  3.913937  0  0  -0.151346  0  3.928916  0  0  -0.069505  -0.154925  0  3.903382  0
C  C63  1  0.54278917  0.79511174  0.43288995  1  0  -0.1163  0  3.657802  0  0  -0.155176  0  3.915031  0  0  -0.152942  0  3.930041  0  0  -0.070195  -0.156381  0  3.904411  0
C  C64  1  0.27872737  0.17244641  0.90442279  1  0  -0.056976  0  3.739322  0  0  -0.031948  0  3.976171  0  0  -0.040226  0  3.996847  0  0  -0.005606  -0.02631  0  3.960822  0
C  C65  1  0.35550063  0.32755921  0.59556775  1  0  -0.056087  0  3.738705  0  0  -0.031213  0  3.974938  0  0  -0.039494  0  3.995647  0  0  -0.006273  -0.02563  0  3.959605  0
C  C66  1  0.72127230  0.82755197  0.09557936  1  0  -0.05692  0  3.739299  0  0  -0.031862  0  3.976113  0  0  -0.040139  0  3.996786  0  0  -0.005565  -0.026225  0  3.960763  0
C  C67  1  0.64449747  0.67244027  0.40443078  1  0  -0.056174  0  3.738677  0  0  -0.031333  0  3.974954  0  0  -0.039617  0  3.995658  0  0  -0.006306  -0.025752  0  3.95962  0
C  C68  1  0.45453365  0.82410408  0.70569806  1  0  0.595164  0  3.86904  0  0  0.549726  0  4.162812  0  0  0.580446  0  4.157703  0  0  0.232315  0.528225  0  4.17104  0
C  C69  1  0.98428187  0.67591994  0.79432985  1  0  0.595361  0  3.871913  0  0  0.549287  0  4.166642  0  0  0.580001  0  4.161541  0  0  0.231605  0.527771  0  4.174884  0
C  C70  1  0.54546080  0.17589855  0.29429991  1  0  0.595058  0  3.869187  0  0  0.549824  0  4.16269  0  0  0.580547  0  4.157576  0  0  0.232418  0.528324  0  4.170919  0
C  C71  1  0.01571960  0.32408263  0.20567244  1  0  0.595455  0  3.87171  0  0  0.549274  0  4.166578  0  0  0.579973  0  4.161502  0  0  0.231624  0.527757  0  4.174818  0
C  C72  1  0.15225309  0.11636521  0.91661158  1  0  0.732124  0  3.830156  0  0  0.682368  0  4.122198  0  0  0.718826  0  4.114058  0  0  0.243581  0.658289  0  4.129401  0
C  C73  1  0.18517095  0.38367644  0.58333020  1  0  0.729915  0  3.831422  0  0  0.681122  0  4.121971  0  0  0.717544  0  4.113928  0  0  0.242863  0.657086  0  4.129179  0
C  C74  1  0.84774896  0.88363008  0.08338671  1  0  0.73208  0  3.830012  0  0  0.68228  0  4.122138  0  0  0.718743  0  4.113992  0  0  0.243554  0.658203  0  4.129333  0
C  C75  1  0.81482886  0.61632304  0.41666889  1  0  0.729955  0  3.831468  0  0  0.681178  0  4.122001  0  0  0.717615  0  4.113926  0  0  0.242891  0.657142  0  4.129208  0
N  N76  1  0.28665845  0.46852775  0.96643655  1  0  -0.533627  0  3.206637  0  0  -0.483345  0  3.403521  0  0  -0.497205  0  3.396844  0  0  -0.591324  -0.473706  0  3.407006  0
N  N77  1  0.72149342  0.03149745  0.53353204  1  0  -0.531635  0  3.206839  0  0  -0.480293  0  3.404423  0  0  -0.494447  0  3.398039  0  0  -0.590908  -0.470511  0  3.407754  0
N  N78  1  0.71334191  0.53147276  0.03356361  1  0  -0.533636  0  3.206622  0  0  -0.48331  0  3.403482  0  0  -0.497179  0  3.396807  0  0  -0.591336  -0.473668  0  3.406964  0
N  N79  1  0.27850649  0.96850201  0.46646809  1  0  -0.531577  0  3.206755  0  0  -0.480212  0  3.404335  0  0  -0.494365  0  3.397954  0  0  -0.590895  -0.470462  0  3.4077  0
O  O80  1  0.03869904  0.13628346  0.65544544  1  0  -0.903974  0  1.868624  0  0  -0.859363  0  2.077664  0  0  -0.886836  0  2.039921  0  0  -0.646293  -0.846124  0  2.099976  0
O  O81  1  0.83039160  0.36367402  0.84451994  1  0  -0.902801  0  1.867898  0  0  -0.858348  0  2.077815  0  0  -0.885929  0  2.040008  0  0  -0.645924  -0.845203  0  2.100006  0
O  O82  1  0.96130047  0.86371706  0.34455444  1  0  -0.903991  0  1.868613  0  0  -0.859369  0  2.077656  0  0  -0.886845  0  2.039916  0  0  -0.646304  -0.846136  0  2.099967  0
O  O83  1  0.16961154  0.63632755  0.15547904  1  0  -0.902817  0  1.867843  0  0  -0.858365  0  2.077751  0  0  -0.885947  0  2.039946  0  0  -0.645981  -0.845227  0  2.099949  0
O  O84  1  0.82955687  0.11791997  0.85463272  1  0  -0.702805  0  2.091933  0  0  -0.637744  0  2.324931  0  0  -0.671325  0  2.316805  0  0  -0.368141  -0.619513  0  2.329317  0
O  O85  1  0.80214774  0.38200372  0.64529916  1  0  -0.705869  0  2.088415  0  0  -0.639869  0  2.321104  0  0  -0.673596  0  2.313111  0  0  -0.369697  -0.621753  0  2.325514  0
O  O86  1  0.17044268  0.88208264  0.14536695  1  0  -0.702799  0  2.091892  0  0  -0.637868  0  2.324994  0  0  -0.671451  0  2.316859  0  0  -0.368197  -0.619648  0  2.329394  0
O  O87  1  0.19784959  0.61799886  0.35470276  1  0  -0.705853  0  2.088512  0  0  -0.639886  0  2.321211  0  0  -0.673601  0  2.313213  0  0  -0.369698  -0.621766  0  2.325616  0
O  O88  1  0.29744471  0.74398437  0.88677298  1  0  -0.65683  0  2.06372  0  0  -0.611481  0  2.312773  0  0  -0.643136  0  2.301796  0  0  -0.364221  -0.595299  0  2.31847  0
O  O89  1  0.92823138  0.75612649  0.61323252  1  0  -0.657499  0  2.059372  0  0  -0.612182  0  2.307958  0  0  -0.643911  0  2.296872  0  0  -0.363794  -0.59614  0  2.313746  0
O  O90  1  0.70256195  0.25601307  0.11322164  1  0  -0.656914  0  2.06343  0  0  -0.611548  0  2.312506  0  0  -0.643209  0  2.301526  0  0  -0.364234  -0.595372  0  2.318208  0
O  O91  1  0.07176698  0.24387506  0.38676786  1  0  -0.657477  0  2.059497  0  0  -0.61218  0  2.308047  0  0  -0.643904  0  2.296955  0  0  -0.363822  -0.596138  0  2.313835  0
O  O92  1  0.78226967  0.95607086  0.82613148  1  0  -0.679856  0  1.973879  0  0  -0.634055  0  2.209635  0  0  -0.66735  0  2.205314  0  0  -0.361849  -0.615233  0  2.211343  0
O  O93  1  0.56453828  0.54376982  0.67399045  1  0  -0.680731  0  1.971208  0  0  -0.634948  0  2.207415  0  0  -0.668327  0  2.203098  0  0  -0.362591  -0.616205  0  2.209142  0
O  O94  1  0.21772954  0.04393069  0.17386918  1  0  -0.679921  0  1.973743  0  0  -0.634121  0  2.209463  0  0  -0.667418  0  2.20514  0  0  -0.361872  -0.615301  0  2.211171  0
O  O95  1  0.43545998  0.45623175  0.32600890  1  0  -0.68075  0  1.97122  0  0  -0.634982  0  2.207398  0  0  -0.66836  0  2.203084  0  0  -0.362622  -0.616238  0  2.209123  0
O  O96  1  0.59569431  0.81405080  0.64776766  1  0  -0.676122  0  2.105343  0  0  -0.624676  0  2.349496  0  0  -0.65703  0  2.338663  0  0  -0.344303  -0.608439  0  2.356027  0
O  O97  1  0.05736700  0.68593371  0.85233119  1  0  -0.676198  0  2.10798  0  0  -0.624974  0  2.352726  0  0  -0.65722  0  2.341936  0  0  -0.344059  -0.608636  0  2.35925  0
O  O98  1  0.40430562  0.18594976  0.35222837  1  0  -0.676051  0  2.105588  0  0  -0.624685  0  2.349674  0  0  -0.657035  0  2.338837  0  0  -0.344331  -0.608444  0  2.356199  0
O  O99  1  0.94263011  0.31406889  0.14766867  1  0  -0.67629  0  2.10768  0  0  -0.62505  0  2.352496  0  0  -0.657296  0  2.34171  0  0  -0.344102  -0.608714  0  2.359022  0
O  O100  1  0.32488901  0.90882884  0.67444450  1  0  -0.657728  0  2.090465  0  0  -0.603655  0  2.3354  0  0  -0.636853  0  2.324978  0  0  -0.343867  -0.586766  0  2.341639  0
O  O101  1  0.90794207  0.59129991  0.82553692  1  0  -0.657944  0  2.09105  0  0  -0.603906  0  2.336395  0  0  -0.63718  0  2.325933  0  0  -0.344576  -0.587118  0  2.342723  0
O  O102  1  0.67511255  0.09117383  0.32555086  1  0  -0.657751  0  2.090297  0  0  -0.603758  0  2.335161  0  0  -0.636959  0  2.324728  0  0  -0.34393  -0.586872  0  2.341402  0
O  O103  1  0.09205636  0.40869953  0.17446470  1  0  -0.6579  0  2.091167  0  0  -0.603798  0  2.336532  0  0  -0.637063  0  2.326079  0  0  -0.344529  -0.587007  0  2.342857  0
O  O104  1  0.56399516  0.62446339  0.85238107  1  0  -0.660929  0  2.021934  0  0  -0.61844  0  2.268958  0  0  -0.649916  0  2.258833  0  0  -0.341506  -0.602142  0  2.27442  0
O  O105  1  0.04100746  0.87554304  0.64764304  1  0  -0.659036  0  2.019875  0  0  -0.61677  0  2.266531  0  0  -0.648201  0  2.256434  0  0  -0.340518  -0.600358  0  2.271992  0
O  O106  1  0.43601429  0.37552979  0.14761790  1  0  -0.66095  0  2.022037  0  0  -0.618446  0  2.26908  0  0  -0.649929  0  2.258981  0  0  -0.34154  -0.602147  0  2.274544  0
O  O107  1  0.95899444  0.12445537  0.35235686  1  0  -0.658991  0  2.01988  0  0  -0.616725  0  2.266492  0  0  -0.648161  0  2.256396  0  0  -0.340483  -0.600318  0  2.271957  0
O  O108  1  0.02283809  0.14745281  0.99008021  1  0  -0.752549  0  2.048387  0  0  -0.699128  0  2.307715  0  0  -0.734431  0  2.292017  0  0  -0.390602  -0.68189  0  2.315993  0
O  O109  1  0.16033165  0.35254226  0.50987589  1  0  -0.751178  0  2.048828  0  0  -0.698077  0  2.307403  0  0  -0.73344  0  2.291701  0  0  -0.390594  -0.680936  0  2.315651  0
O  O110  1  0.97716269  0.85254244  0.00992164  1  0  -0.75255  0  2.048483  0  0  -0.699104  0  2.307805  0  0  -0.734406  0  2.292105  0  0  -0.390629  -0.681863  0  2.316081  0
O  O111  1  0.83966911  0.64745719  0.49012451  1  0  -0.751199  0  2.048739  0  0  -0.698097  0  2.307314  0  0  -0.733467  0  2.291604  0  0  -0.390599  -0.68096  0  2.315562  0
O  O112  1  0.18089529  0.04408653  0.85482396  1  0  -0.698115  0  2.032782  0  0  -0.651105  0  2.291146  0  0  -0.68725  0  2.276526  0  0  -0.384915  -0.633044  0  2.297403  0
O  O113  1  0.07973741  0.45603765  0.64505412  1  0  -0.697797  0  2.03335  0  0  -0.651024  0  2.291214  0  0  -0.687277  0  2.276571  0  0  -0.384614  -0.633037  0  2.297385  0
O  O114  1  0.81910478  0.95591501  0.14517699  1  0  -0.698104  0  2.032527  0  0  -0.651081  0  2.290918  0  0  -0.68723  0  2.276287  0  0  -0.3849  -0.633023  0  2.297168  0
O  O115  1  0.92026089  0.54396601  0.35494502  1  0  -0.697813  0  2.033523  0  0  -0.651041  0  2.291372  0  0  -0.687298  0  2.27672  0  0  -0.384637  -0.633051  0  2.297542  0
