# generated using pymatgen
data_MnH14(C10N3)2
_symmetry_space_group_name_H-M   'P 1'
_cell_length_a   5.51383469
_cell_length_b   9.45015172
_cell_length_c   13.22361076
_cell_angle_alpha   106.57105143
_cell_angle_beta   91.91450957
_cell_angle_gamma   102.15078596
_symmetry_Int_Tables_number   1
_chemical_formula_structural   MnH14(C10N3)2
_chemical_formula_sum   'Mn1 H14 C20 N6'
_cell_volume   642.40554779
_cell_formula_units_Z   1
loop_
 _symmetry_equiv_pos_site_id
 _symmetry_equiv_pos_as_xyz
  1  'x, y, z'
loop_
 _atom_site_type_symbol
 _atom_site_label
 _atom_site_symmetry_multiplicity
 _atom_site_fract_x
 _atom_site_fract_y
 _atom_site_fract_z
 _atom_site_occupancy
 _atom_site_pbe_bader_charge
 _atom_site_pbe_bader_spin_density
 _atom_site_pbe_cm5_charge
 _atom_site_pbe_ddec_charge
 _atom_site_pbe_ddec_spin_density
 _atom_site_pbe_ddec_sum_bond_order
 _atom_site_pbe_magmom
Mn  Mn0  1  0.00000479  0.99999959  0.99999884  1  1.486556  4.402537  0.648672  0.819308  4.528957  2.583833  4.32
H  H1  1  0.71804787  0.42443156  0.51010535  1  0.05916  -0.000161  0.102081  0.099421  -9.8e-05  1.010345  0.0
H  H2  1  0.56205508  0.38802756  0.92280611  1  0.089838  0.000429  0.098259  0.110294  0.000139  1.022287  0.0
H  H3  1  0.25685680  0.34214528  0.05321898  1  0.065921  0.000677  0.099176  0.104407  0.000267  1.044441  0.0
H  H4  1  0.56351828  0.93656822  0.80912386  1  0.094567  0.001441  0.117645  0.087429  0.000645  1.032387  0.001
H  H5  1  0.39933944  0.75238267  0.63569787  1  0.072398  0.000182  0.104155  0.107293  -4.3e-05  1.022499  0.0
H  H6  1  0.02195868  0.54598022  0.65880997  1  0.064168  0.000557  0.106308  0.112643  0.000309  0.999465  0.0
H  H7  1  0.16742427  0.74658565  0.83043618  1  0.115615  0.001079  0.117874  0.081319  0.000385  1.031891  0.0
H  H8  1  0.28195185  0.57556917  0.48989433  1  0.059146  -0.000161  0.102078  0.09943  -9.8e-05  1.010363  0.0
H  H9  1  0.43794502  0.61197431  0.07719456  1  0.089839  0.000429  0.098256  0.110285  0.000139  1.022277  0.0
H  H10  1  0.74314286  0.65785546  0.94678146  1  0.065917  0.000677  0.09917  0.104404  0.000267  1.044447  0.0
H  H11  1  0.43648545  0.06343366  0.19087691  1  0.094569  0.001441  0.117619  0.087414  0.000645  1.032386  0.001
H  H12  1  0.60066023  0.24761807  0.36430256  1  0.072396  0.000182  0.104171  0.107335  -4.3e-05  1.022444  0.0
H  H13  1  0.97804286  0.45402052  0.34118976  1  0.064155  0.000557  0.106313  0.112663  0.000309  0.999429  0.0
H  H14  1  0.83257727  0.25341509  0.16956355  1  0.115619  0.001079  0.117869  0.081315  0.000385  1.031868  0.0
C  C15  1  0.55277958  0.14305381  0.96269966  1  1.508487  0.037928  0.298534  0.439557  0.033376  4.280627  0.03
C  C16  1  0.89501587  0.34422861  0.98674816  1  0.410098  0.003219  0.077309  0.221343  0.002462  4.081314  0.002
C  C17  1  0.75506097  0.43665014  0.95674986  1  -0.050354  0.004151  -0.109647  -0.181673  0.003063  4.0063  0.002
C  C18  1  0.14291103  0.41074778  0.02998749  1  -0.112439  0.003008  -0.106318  -0.171884  0.00219  4.019752  0.002
C  C19  1  0.66266443  0.84948860  0.77280782  1  0.448871  0.004128  0.048197  0.092464  0.002862  3.951304  0.003
C  C20  1  0.57021110  0.74449612  0.67521364  1  0.001942  -0.006232  -0.088337  -0.180506  -0.00689  3.935971  -0.003
C  C21  1  0.69392496  0.62841276  0.63044453  1  -0.064914  -0.006013  -0.000318  0.14203  -0.006564  4.048653  -0.003
C  C22  1  0.60429746  0.50835049  0.53190906  1  -0.004222  -0.01439  -0.088855  -0.132199  -0.015644  3.983872  -0.008
C  C23  1  0.91536047  0.63178460  0.68824567  1  -0.020688  -0.00474  -0.086189  -0.186413  -0.005516  3.945123  -0.002
C  C24  1  0.99739084  0.74293151  0.78450946  1  0.482422  0.001446  0.049275  0.095679  0.000863  3.968273  0.002
C  C25  1  0.44721827  0.85694693  0.03730073  1  1.508485  0.037924  0.298558  0.439603  0.033372  4.28058  0.03
C  C26  1  0.10498198  0.65577213  0.01325223  1  0.410039  0.00322  0.077264  0.221293  0.002463  4.081365  0.002
C  C27  1  0.24493689  0.56335060  0.04325053  1  -0.050358  0.004151  -0.109613  -0.181608  0.003063  4.006266  0.002
C  C28  1  0.85708821  0.58925182  0.97001272  1  -0.112449  0.003007  -0.106297  -0.171858  0.00219  4.019737  0.002
C  C29  1  0.33733705  0.15051214  0.22719267  1  0.448866  0.004128  0.048219  0.092497  0.002862  3.951282  0.003
C  C30  1  0.42978851  0.25550463  0.32478755  1  0.001945  -0.006232  -0.088382  -0.180588  -0.006889  3.936063  -0.003
C  C31  1  0.30607423  0.37158685  0.36955643  1  -0.064936  -0.006011  -0.000282  0.142074  -0.006562  4.048828  -0.003
C  C32  1  0.39570220  0.49165025  0.46809138  1  -0.095811  -0.014327  -0.088845  -0.132218  -0.015645  3.983934  -0.008
C  C33  1  0.08464101  0.36821614  0.31175482  1  -0.020669  -0.004741  -0.08617  -0.186386  -0.005516  3.945068  -0.002
C  C34  1  0.00261069  0.25706923  0.21549027  1  0.482439  0.001447  0.049266  0.095637  0.000863  3.968233  0.002
N  N35  1  0.33349826  0.09044539  0.94786783  1  -1.311117  0.052929  -0.414197  -0.583228  0.032587  3.192718  0.007
N  N36  1  0.79088117  0.18998191  0.97730722  1  -1.331024  0.059414  -0.340015  -0.436412  0.043956  3.491544  0.03
N  N37  1  0.87268248  0.84973598  0.82839433  1  -1.216192  0.034651  -0.309291  -0.231238  0.022173  3.469027  0.011
N  N38  1  0.66650280  0.90955421  0.05213243  1  -1.311097  0.052922  -0.41419  -0.583233  0.032586  3.192627  0.007
N  N39  1  0.20911855  0.81001882  0.02269246  1  -1.33102  0.059415  -0.340036  -0.436457  0.043957  3.491587  0.03
N  N40  1  0.12731858  0.15026363  0.17160592  1  -1.216168  0.03465  -0.309286  -0.231236  0.022173  3.469059  0.011
