# generated using pymatgen
data_CdH10C14(SN2)2
_symmetry_space_group_name_H-M   'P 1'
_cell_length_a   8.92407281
_cell_length_b   9.12931482
_cell_length_c   9.91180140
_cell_angle_alpha   100.37981480
_cell_angle_beta   99.41669701
_cell_angle_gamma   102.98598859
_symmetry_Int_Tables_number   1
_chemical_formula_structural   CdH10C14(SN2)2
_chemical_formula_sum   'Cd2 H20 C28 S4 N8'
_cell_volume   756.24002809
_cell_formula_units_Z   2
loop_
 _symmetry_equiv_pos_site_id
 _symmetry_equiv_pos_as_xyz
  1  'x, y, z'
loop_
 _atom_site_type_symbol
 _atom_site_label
 _atom_site_symmetry_multiplicity
 _atom_site_fract_x
 _atom_site_fract_y
 _atom_site_fract_z
 _atom_site_occupancy
 _atom_site_pbe_bader_charge
 _atom_site_pbe_bader_spin_density
 _atom_site_pbe_cm5_charge
 _atom_site_pbe_ddec_charge
 _atom_site_pbe_ddec_spin_density
 _atom_site_pbe_ddec_sum_bond_order
 _atom_site_pbe_magmom
Cd  Cd0  1  0.88784389  0.09853694  0.24806123  1  1.172997  0  0.727083  0.741119  0  2.508733  0
Cd  Cd1  1  0.11215749  0.90146114  0.75194516  1  1.173043  0  0.727068  0.741112  0  2.508739  0
H  H2  1  0.82880592  0.54623824  0.25427440  1  0.099211  0  0.11001  0.076675  0  1.051801  0
H  H3  1  0.17119659  0.45375984  0.74572712  1  0.099284  0  0.110017  0.07665  0  1.05185  0
H  H4  1  0.57245754  0.52802682  0.30810864  1  0.118527  0  0.099644  0.10536  0  1.052134  0
H  H5  1  0.42754415  0.47197240  0.69188689  1  0.118464  0  0.099654  0.105376  0  1.052128  0
H  H6  1  0.33775449  0.38008561  0.38203155  1  0.089696  0  0.109989  0.110524  0  0.988938  0
H  H7  1  0.66224296  0.61991477  0.61796153  1  0.089681  0  0.109956  0.110467  0  0.988943  0
H  H8  1  0.33329745  0.11478338  0.41923561  1  0.119058  0  0.10595  0.113427  0  1.022887  0
H  H9  1  0.66669948  0.88521930  0.58076080  1  0.119069  0  0.105961  0.113442  0  1.022906  0
H  H10  1  0.56130222  0.00565057  0.37595064  1  0.08084  0  0.102895  0.065185  0  1.054225  0
H  H11  1  0.43869410  0.99434981  0.62404934  1  0.080855  0  0.102895  0.065195  0  1.05426  0
H  H12  1  0.09374202  0.65506492  0.35214679  1  0.089593  0  0.099422  0.113971  0  1.028568  0
H  H13  1  0.90626133  0.34493200  0.64785264  1  0.089527  0  0.099409  0.113938  0  1.02865  0
H  H14  1  0.32687796  0.80360905  0.28377824  1  0.09271  0  0.095429  0.094204  0  1.019688  0
H  H15  1  0.67312033  0.19639018  0.71621881  1  0.092731  0  0.095429  0.094217  0  1.019625  0
H  H16  1  0.43396279  0.68188538  0.08888400  1  0.090858  0  0.090493  0.093901  0  1.029516  0
H  H17  1  0.56603642  0.31811730  0.91111072  1  0.090914  0  0.090512  0.093951  0  1.029474  0
H  H18  1  0.30751522  0.40675891  0.96401359  1  0.046424  0  0.088568  0.08592  0  1.049397  0
H  H19  1  0.69248337  0.59324147  0.03598168  1  0.046494  0  0.088566  0.085933  0  1.049415  0
H  H20  1  0.07113129  0.25986313  0.02794683  1  0.127169  0  0.1012  0.114384  0  1.028999  0
H  H21  1  0.92887040  0.74013610  0.97204971  1  0.127191  0  0.101192  0.114426  0  1.028965  0
C  C22  1  0.82354830  0.42619107  0.25945768  1  0.654017  0  0.085724  0.070009  0  3.878608  0
C  C23  1  0.17645443  0.57380354  0.74054229  1  0.654217  0  0.085756  0.070145  0  3.878614  0
C  C24  1  0.68668976  0.34288149  0.30379304  1  0.464649  0  0.115224  0.190442  0  4.010369  0
C  C25  1  0.31331224  0.65711889  0.69620777  1  0.464735  0  0.115174  0.190248  0  4.010533  0
C  C26  1  0.56494508  0.41215485  0.32533569  1  -0.04077  0  -0.071219  -0.141162  0  3.903321  0
C  C27  1  0.43505547  0.58784438  0.67466169  1  -0.040756  0  -0.071215  -0.141159  0  3.903313  0
C  C28  1  0.43558692  0.33026224  0.36713906  1  0.001235  0  -0.059631  -0.008024  0  3.921295  0
C  C29  1  0.56441311  0.66973929  0.63285761  1  0.001224  0  -0.059605  -0.007866  0  3.921183  0
C  C30  1  0.43283361  0.18292189  0.38800095  1  0.003018  0  -0.074332  -0.11135  0  3.945841  0
C  C31  1  0.56716498  0.81707849  0.61199734  1  0.003024  0  -0.074346  -0.111426  0  3.945992  0
C  C32  1  0.55848696  0.12159601  0.36357211  1  0.490521  0  0.048152  0.097791  0  3.961468  0
C  C33  1  0.44151111  0.87840668  0.63642851  1  0.490288  0  0.048119  0.097701  0  3.961519  0
C  C34  1  0.06520121  0.44900641  0.19160462  1  0.305139  0  0.085657  0.200684  0  4.046993  0
C  C35  1  0.93479987  0.55099050  0.80839246  1  0.304931  0  0.085739  0.200765  0  4.046983  0
C  C36  1  0.13880429  0.60223095  0.26505979  1  0.002538  0  -0.09207  -0.162631  0  3.929086  0
C  C37  1  0.86119792  0.39776597  0.73493846  1  0.002551  0  -0.092067  -0.162603  0  3.929107  0
C  C38  1  0.27109750  0.68456985  0.22769570  1  -0.128736  0  -0.093289  -0.06413  0  4.019956  0
C  C39  1  0.72890419  0.31542937  0.77230084  1  -0.128705  0  -0.093318  -0.064159  0  4.019848  0
C  C40  1  0.33163183  0.61584815  0.11857572  1  -0.022358  0  -0.096757  -0.094373  0  4.011997  0
C  C41  1  0.66836645  0.38415107  0.88142032  1  -0.022643  0  -0.096774  -0.094412  0  4.011973  0
C  C42  1  0.26048229  0.46253744  0.04816713  1  -0.014602  0  -0.096487  -0.074415  0  4.017992  0
C  C43  1  0.73951774  0.53746409  0.95182955  1  -0.014229  0  -0.09648  -0.074405  0  4.018032  0
C  C44  1  0.12811278  0.37854258  0.08426832  1  -0.075711  0  -0.086394  -0.147107  0  3.92436  0
C  C45  1  0.87188777  0.62145664  0.91572704  1  -0.075763  0  -0.086423  -0.147221  0  3.924384  0
C  C46  1  0.86958476  0.81471055  0.42718314  1  0.578458  0  0.14823  0.262509  0  4.296831  0
C  C47  1  0.13041672  0.18529215  0.57282504  1  0.578377  0  0.148336  0.262638  0  4.296617  0
C  C48  1  0.81904742  0.98772876  0.89707606  1  0.578761  0  0.150961  0.271657  0  4.314746  0
C  C49  1  0.18095252  0.01226816  0.10292388  1  0.578702  0  0.150837  0.271509  0  4.314677  0
S  S50  1  0.74333071  0.81832972  0.28937441  1  0.029753  0  -0.124286  -0.300662  0  2.572414  0
S  S51  1  0.25667098  0.18166951  0.71063020  1  0.02964  0  -0.12428  -0.300702  0  2.572524  0
S  S52  1  0.68387639  0.99742160  0.98775828  1  0.07873  0  -0.150028  -0.284289  0  2.508798  0
S  S53  1  0.31611786  0.00257532  0.01224284  1  0.0789  0  -0.149967  -0.284162  0  2.508898  0
N  N54  1  0.93070867  0.36184816  0.22543088  1  -1.227137  0  -0.308207  -0.23988  0  3.487571  0
N  N55  1  0.06929240  0.63814876  0.77456721  1  -1.227397  0  -0.308234  -0.239944  0  3.487681  0
N  N56  1  0.68186232  0.19894014  0.32225488  1  -1.215311  0  -0.321238  -0.262571  0  3.491048  0
N  N57  1  0.31813823  0.80105909  0.67774957  1  -1.215127  0  -0.321185  -0.262401  0  3.491036  0
N  N58  1  0.95973463  0.80617169  0.52526893  1  -1.280765  0  -0.38851  -0.44926  0  3.105309  0
N  N59  1  0.04026519  0.19383332  0.47473737  1  -1.280669  0  -0.388635  -0.449379  0  3.105026  0
N  N60  1  0.91475463  0.98154651  0.82799914  1  -1.308491  0  -0.402179  -0.467923  0  3.185002  0
N  N61  1  0.08523880  0.01845157  0.17200407  1  -1.308574  0  -0.402098  -0.46786  0  3.184841  0
