# generated using pymatgen
data_ZnH12C14S2(N3O2)2
_symmetry_space_group_name_H-M   'P 1'
_cell_length_a   8.95447418
_cell_length_b   11.86192358
_cell_length_c   11.67592553
_cell_angle_alpha   89.99990316
_cell_angle_beta   89.99942758
_cell_angle_gamma   106.12948735
_symmetry_Int_Tables_number   1
_chemical_formula_structural   ZnH12C14S2(N3O2)2
_chemical_formula_sum   'Zn2 H24 C28 S4 N12 O8'
_cell_volume   1191.36688171
_cell_formula_units_Z   2
loop_
 _symmetry_equiv_pos_site_id
 _symmetry_equiv_pos_as_xyz
  1  'x, y, z'
loop_
 _atom_site_type_symbol
 _atom_site_label
 _atom_site_symmetry_multiplicity
 _atom_site_fract_x
 _atom_site_fract_y
 _atom_site_fract_z
 _atom_site_occupancy
 _atom_site_hle17_bader_spin_density
 _atom_site_hle17_ddec_charge
 _atom_site_hle17_ddec_spin_density
 _atom_site_hle17_ddec_sum_bond_order
 _atom_site_hle17_magmom
 _atom_site_hse06_10hf_bader_spin_density
 _atom_site_hse06_10hf_ddec_charge
 _atom_site_hse06_10hf_ddec_spin_density
 _atom_site_hse06_10hf_ddec_sum_bond_order
 _atom_site_hse06_10hf_magmom
 _atom_site_hse06_bader_spin_density
 _atom_site_hse06_ddec_charge
 _atom_site_hse06_ddec_spin_density
 _atom_site_hse06_ddec_sum_bond_order
 _atom_site_hse06_magmom
 _atom_site_pbe_bader_spin_density
 _atom_site_pbe_cm5_charge
 _atom_site_pbe_ddec_charge
 _atom_site_pbe_ddec_spin_density
 _atom_site_pbe_ddec_sum_bond_order
 _atom_site_pbe_magmom
Zn  Zn0  1  0.00000213  0.00000314  0.99999439  1  0  0.939821  0  1.911339  0  0  0.749591  0  2.349815  0  0  0.792783  0  2.306344  0  0  0.685887  0.719719  0  2.379567  0
Zn  Zn1  1  0.49999630  0.50000006  0.50000001  1  0  0.93982  0  1.911373  0  0  0.749619  0  2.349843  0  0  0.792799  0  2.306375  0  0  0.685885  0.719743  0  2.3796  0
H  H2  1  0.77109925  0.81654350  0.92836475  1  0  0.374614  0  0.931991  0  0  0.344687  0  1.006049  0  0  0.355348  0  0.990961  0  0  0.264459  0.337115  0  1.016754  0
H  H3  1  0.72890314  0.68345750  0.42836868  1  0  0.374718  0  0.931953  0  0  0.344802  0  1.005918  0  0  0.355462  0  0.990832  0  0  0.264472  0.337228  0  1.016627  0
H  H4  1  0.22889767  0.18346718  0.07163269  1  0  0.374723  0  0.9319  0  0  0.34481  0  1.005881  0  0  0.35547  0  0.990794  0  0  0.264492  0.33724  0  1.016583  0
H  H5  1  0.27109983  0.31653262  0.57163647  1  0  0.374615  0  0.932032  0  0  0.34469  0  1.006049  0  0  0.355352  0  0.990962  0  0  0.264432  0.337116  0  1.01676  0
H  H6  1  0.93418994  0.81427431  0.86808796  1  0  0.419977  0  0.836994  0  0  0.389018  0  0.916634  0  0  0.399783  0  0.903029  0  0  0.30623  0.381239  0  0.926558  0
H  H7  1  0.56581328  0.68573044  0.36809143  1  0  0.419991  0  0.836935  0  0  0.389022  0  0.916599  0  0  0.399786  0  0.902991  0  0  0.306211  0.381242  0  0.926529  0
H  H8  1  0.06580358  0.18572150  0.13191376  1  0  0.419973  0  0.836955  0  0  0.389013  0  0.916602  0  0  0.399779  0  0.902993  0  0  0.306217  0.381234  0  0.926527  0
H  H9  1  0.43419509  0.31427375  0.63191286  1  0  0.419902  0  0.83708  0  0  0.388937  0  0.916733  0  0  0.399702  0  0.90313  0  0  0.306189  0.38116  0  0.926657  0
H  H10  1  0.87901966  0.60740080  0.24121641  1  0  0.11694  0  0.952803  0  0  0.125433  0  1.015549  0  0  0.12903  0  1.013727  0  0  0.109485  0.122865  0  1.016927  0
H  H11  1  0.62098324  0.89258630  0.74123320  1  0  0.116934  0  0.952834  0  0  0.12541  0  1.015582  0  0  0.128998  0  1.013783  0  0  0.109466  0.122854  0  1.016932  0
H  H12  1  0.12096734  0.39259563  0.75877504  1  0  0.116958  0  0.952885  0  0  0.125456  0  1.015623  0  0  0.129052  0  1.013803  0  0  0.109474  0.122906  0  1.016971  0
H  H13  1  0.37902846  0.10740677  0.25878308  1  0  0.116961  0  0.952904  0  0  0.125462  0  1.015642  0  0  0.129068  0  1.01381  0  0  0.109492  0.122893  0  1.01702  0
H  H14  1  0.81596614  0.76372544  0.12531565  1  0  0.062648  0  0.998932  0  0  0.067729  0  1.071273  0  0  0.071019  0  1.06872  0  0  0.097341  0.065383  0  1.073052  0
H  H15  1  0.68403594  0.73626125  0.62533478  1  0  0.062776  0  0.998946  0  0  0.067806  0  1.071318  0  0  0.071097  0  1.068767  0  0  0.097359  0.06545  0  1.073113  0
H  H16  1  0.18402486  0.23626941  0.87467152  1  0  0.0627  0  0.998985  0  0  0.067782  0  1.071315  0  0  0.071072  0  1.068763  0  0  0.097346  0.065432  0  1.073104  0
H  H17  1  0.31596950  0.26373330  0.37467808  1  0  0.062683  0  0.99895  0  0  0.067759  0  1.071291  0  0  0.071051  0  1.068738  0  0  0.097352  0.065409  0  1.073081  0
H  H18  1  0.27528602  0.96638073  0.12777561  1  0  0.079343  0  0.964028  0  0  0.081215  0  1.040801  0  0  0.08395  0  1.03826  0  0  0.111693  0.079197  0  1.042729  0
H  H19  1  0.22471101  0.53361950  0.62778191  1  0  0.079247  0  0.964075  0  0  0.08114  0  1.040824  0  0  0.083871  0  1.038289  0  0  0.11166  0.079119  0  1.04276  0
H  H20  1  0.72470837  0.03361425  0.87221498  1  0  0.079318  0  0.963916  0  0  0.081199  0  1.040705  0  0  0.083936  0  1.038156  0  0  0.111652  0.079175  0  1.042641  0
H  H21  1  0.77529030  0.46638355  0.37222324  1  0  0.079321  0  0.963932  0  0  0.0812  0  1.040731  0  0  0.083935  0  1.038187  0  0  0.111711  0.079181  0  1.042659  0
H  H22  1  0.35787627  0.82068799  0.24623026  1  0  0.114085  0  0.957245  0  0  0.117317  0  1.026339  0  0  0.121848  0  1.023153  0  0  0.105384  0.114055  0  1.028773  0
H  H23  1  0.14211842  0.67931337  0.74623525  1  0  0.114047  0  0.957173  0  0  0.117278  0  1.026276  0  0  0.121807  0  1.023097  0  0  0.105385  0.114015  0  1.028714  0
H  H24  1  0.64211193  0.17930502  0.75376033  1  0  0.114047  0  0.957164  0  0  0.117264  0  1.026273  0  0  0.121793  0  1.023091  0  0  0.105391  0.113997  0  1.028713  0
H  H25  1  0.85788656  0.32069068  0.25377162  1  0  0.114041  0  0.957229  0  0  0.117268  0  1.026333  0  0  0.121798  0  1.023154  0  0  0.105377  0.114006  0  1.028763  0
C  C26  1  0.12540351  0.70064305  0.25279861  1  0  0.038522  0  3.8117  0  0  0.050116  0  4.048157  0  0  0.051937  0  4.068329  0  0  0.009095  0.048836  0  4.034584  0
C  C27  1  0.37459460  0.79935149  0.75280590  1  0  0.038668  0  3.811536  0  0  0.05012  0  4.048115  0  0  0.051956  0  4.068296  0  0  0.009094  0.048834  0  4.03455  0
C  C28  1  0.87458375  0.29935425  0.74719369  1  0  0.038627  0  3.811431  0  0  0.050106  0  4.048068  0  0  0.051913  0  4.068234  0  0  0.009058  0.048826  0  4.034489  0
C  C29  1  0.62541164  0.20064569  0.24720439  1  0  0.038426  0  3.811525  0  0  0.050102  0  4.047947  0  0  0.051908  0  4.068087  0  0  0.009072  0.048823  0  4.034376  0
C  C30  1  0.97092150  0.68538368  0.21817713  1  0  -0.136032  0  3.6901  0  0  -0.158213  0  3.937059  0  0  -0.163368  0  3.955771  0  0  -0.083099  -0.154823  0  3.924543  0
C  C31  1  0.52908141  0.81460611  0.71819219  1  0  -0.135991  0  3.690163  0  0  -0.158092  0  3.937093  0  0  -0.163248  0  3.955807  0  0  -0.083022  -0.154696  0  3.924567  0
C  C32  1  0.02907143  0.31461385  0.78181431  1  0  -0.135856  0  3.69  0  0  -0.158001  0  3.936959  0  0  -0.163155  0  3.955675  0  0  -0.08288  -0.154619  0  3.924437  0
C  C33  1  0.47092516  0.18538848  0.28181895  1  0  -0.135872  0  3.690067  0  0  -0.158106  0  3.937014  0  0  -0.163268  0  3.955723  0  0  -0.082991  -0.154713  0  3.924493  0
C  C34  1  0.93529648  0.77261903  0.15315623  1  0  0.12829  0  3.707579  0  0  0.103252  0  3.950814  0  0  0.109394  0  3.967719  0  0  0.041752  0.099127  0  3.939535  0
C  C35  1  0.56470366  0.72737354  0.65316944  1  0  0.127969  0  3.708018  0  0  0.10302  0  3.951226  0  0  0.109154  0  3.968128  0  0  0.041707  0.098895  0  3.93995  0
C  C36  1  0.06469818  0.22737684  0.84683094  1  0  0.127872  0  3.707657  0  0  0.102842  0  3.950859  0  0  0.108989  0  3.967765  0  0  0.041557  0.098715  0  3.939588  0
C  C37  1  0.43529719  0.27262430  0.34683742  1  0  0.128073  0  3.70762  0  0  0.10306  0  3.950846  0  0  0.109204  0  3.96776  0  0  0.04167  0.098934  0  3.939571  0
C  C38  1  0.19060950  0.88636162  0.15593565  1  0  0.136038  0  3.696335  0  0  0.102591  0  3.955912  0  0  0.109555  0  3.972414  0  0  0.041783  0.097947  0  3.944768  0
C  C39  1  0.30938745  0.61363589  0.65594289  1  0  0.136135  0  3.696289  0  0  0.102703  0  3.955909  0  0  0.109667  0  3.97241  0  0  0.041848  0.098064  0  3.944763  0
C  C40  1  0.80938649  0.11363862  0.84405408  1  0  0.136023  0  3.69633  0  0  0.102533  0  3.95594  0  0  0.109506  0  3.972445  0  0  0.041818  0.097893  0  3.944793  0
C  C41  1  0.69061167  0.38636361  0.34405969  1  0  0.13595  0  3.696259  0  0  0.102451  0  3.955893  0  0  0.109426  0  3.972398  0  0  0.041728  0.097817  0  3.944742  0
C  C42  1  0.23663545  0.80506495  0.22202966  1  0  -0.128367  0  3.696832  0  0  -0.149677  0  3.948244  0  0  -0.154874  0  3.966331  0  0  -0.078664  -0.146403  0  3.936224  0
C  C43  1  0.26336332  0.69493408  0.72203711  1  0  -0.128357  0  3.696713  0  0  -0.149623  0  3.948189  0  0  -0.154821  0  3.966273  0  0  -0.078668  -0.146344  0  3.936169  0
C  C44  1  0.76336154  0.19492753  0.77796265  1  0  -0.128356  0  3.696742  0  0  -0.149589  0  3.948218  0  0  -0.154785  0  3.966306  0  0  -0.078651  -0.146304  0  3.936191  0
C  C45  1  0.73663912  0.30506902  0.27796975  1  0  -0.128243  0  3.696718  0  0  -0.149538  0  3.948121  0  0  -0.154742  0  3.966212  0  0  -0.078631  -0.146263  0  3.936095  0
C  C46  1  0.17268118  0.61224507  0.31730902  1  0  0.340728  0  3.735652  0  0  0.307019  0  4.019773  0  0  0.323311  0  4.026422  0  0  0.212776  0.296125  0  4.015198  0
C  C47  1  0.32732237  0.88775547  0.81731224  1  0  0.340567  0  3.735569  0  0  0.306981  0  4.01961  0  0  0.323231  0  4.026317  0  0  0.212715  0.296078  0  4.015056  0
C  C48  1  0.82731508  0.38775605  0.68269185  1  0  0.340597  0  3.735665  0  0  0.30691  0  4.019826  0  0  0.323241  0  4.026431  0  0  0.21266  0.296006  0  4.015264  0
C  C49  1  0.67268945  0.11224539  0.18269719  1  0  0.340674  0  3.73553  0  0  0.306886  0  4.019706  0  0  0.323254  0  4.026266  0  0  0.212652  0.295989  0  4.01514  0
C  C50  1  0.15194705  0.44460971  0.40466419  1  0  0.399296  0  3.784808  0  0  0.360045  0  4.097575  0  0  0.386378  0  4.102995  0  0  0.195778  0.342461  0  4.093204  0
C  C51  1  0.34805332  0.05539570  0.90465410  1  0  0.399328  0  3.784855  0  0  0.360081  0  4.09763  0  0  0.386419  0  4.103041  0  0  0.195796  0.342499  0  4.093251  0
C  C52  1  0.84804947  0.55539228  0.59533753  1  0  0.399164  0  3.785013  0  0  0.359905  0  4.097785  0  0  0.386239  0  4.103208  0  0  0.195673  0.342315  0  4.093422  0
C  C53  1  0.65195472  0.94461107  0.09534163  1  0  0.399192  0  3.78508  0  0  0.359978  0  4.097781  0  0  0.386314  0  4.103209  0  0  0.195728  0.342397  0  4.093402  0
S  S54  1  0.06744793  0.31066344  0.45660911  1  0  -0.4362  0  1.844789  0  0  -0.432382  0  2.11648  0  0  -0.453171  0  2.112447  0  0  -0.20147  -0.417173  0  2.118646  0
S  S55  1  0.43255300  0.18934610  0.95659045  1  0  -0.436264  0  1.844797  0  0  -0.43245  0  2.116473  0  0  -0.453236  0  2.112444  0  0  -0.201498  -0.417242  0  2.118634  0
S  S56  1  0.93255764  0.68933891  0.54338918  1  0  -0.436186  0  1.844786  0  0  -0.432348  0  2.116455  0  0  -0.453135  0  2.112426  0  0  -0.201421  -0.417135  0  2.118619  0
S  S57  1  0.56745151  0.81066747  0.04339415  1  0  -0.436194  0  1.844891  0  0  -0.432384  0  2.116558  0  0  -0.453173  0  2.112527  0  0  -0.201465  -0.417175  0  2.118718  0
N  N58  1  0.04309884  0.87102023  0.12068934  1  0  -0.320013  0  3.254874  0  0  -0.244739  0  3.515498  0  0  -0.260989  0  3.532005  0  0  -0.324025  -0.233655  0  3.504379  0
N  N59  1  0.45690349  0.62897504  0.62070227  1  0  -0.319773  0  3.25495  0  0  -0.244627  0  3.515695  0  0  -0.260862  0  3.532193  0  0  -0.324011  -0.233542  0  3.504568  0
N  N60  1  0.95689535  0.12897042  0.87930039  1  0  -0.319714  0  3.254565  0  0  -0.244433  0  3.515186  0  0  -0.260699  0  3.531707  0  0  -0.32396  -0.233349  0  3.504059  0
N  N61  1  0.54310041  0.37102551  0.37930544  1  0  -0.319814  0  3.2548  0  0  -0.244531  0  3.515441  0  0  -0.260798  0  3.531966  0  0  -0.323963  -0.233444  0  3.504316  0
N  N62  1  0.31092643  0.61782603  0.35720853  1  0  -0.262105  0  2.966295  0  0  -0.243196  0  3.235447  0  0  -0.250538  0  3.248066  0  0  -0.220965  -0.238204  0  3.227088  0
N  N63  1  0.18907387  0.88218028  0.85720940  1  0  -0.262174  0  2.966063  0  0  -0.243301  0  3.235199  0  0  -0.25063  0  3.247833  0  0  -0.220953  -0.238307  0  3.226845  0
N  N64  1  0.68906549  0.38217925  0.64279491  1  0  -0.262105  0  2.965971  0  0  -0.2432  0  3.235113  0  0  -0.250554  0  3.247719  0  0  -0.220894  -0.238209  0  3.22676  0
N  N65  1  0.81093251  0.11782470  0.14279660  1  0  -0.26214  0  2.966141  0  0  -0.243217  0  3.235324  0  0  -0.250578  0  3.247917  0  0  -0.220938  -0.238225  0  3.22697  0
N  N66  1  0.29889614  0.51277203  0.41162233  1  0  -0.339687  0  3.187978  0  0  -0.271267  0  3.4728  0  0  -0.293452  0  3.488654  0  0  -0.253886  -0.256282  0  3.461862  0
N  N67  1  0.20110668  0.98723761  0.91161524  1  0  -0.339531  0  3.187765  0  0  -0.2711  0  3.472582  0  0  -0.293283  0  3.488431  0  0  -0.253856  -0.256108  0  3.46163  0
N  N68  1  0.70110311  0.48723527  0.58838196  1  0  -0.339591  0  3.187988  0  0  -0.271113  0  3.472723  0  0  -0.293294  0  3.488579  0  0  -0.253844  -0.256125  0  3.461782  0
N  N69  1  0.79890162  0.01277004  0.08838306  1  0  -0.339534  0  3.188049  0  0  -0.271121  0  3.472835  0  0  -0.293306  0  3.488694  0  0  -0.253791  -0.256137  0  3.461896  0
O  O70  1  0.06750634  0.50682911  0.34221888  1  0  -0.275246  0  2.285048  0  0  -0.19853  0  2.507018  0  0  -0.216852  0  2.506684  0  0  -0.112308  -0.186169  0  2.506965  0
O  O71  1  0.43249538  0.99317386  0.84221256  1  0  -0.275235  0  2.285087  0  0  -0.19856  0  2.507031  0  0  -0.216872  0  2.506714  0  0  -0.112292  -0.186195  0  2.506982  0
O  O72  1  0.93248712  0.49317017  0.65778284  1  0  -0.275206  0  2.285159  0  0  -0.198513  0  2.507142  0  0  -0.216857  0  2.506815  0  0  -0.112298  -0.186148  0  2.507097  0
O  O73  1  0.56751691  0.00683222  0.15778745  1  0  -0.275234  0  2.285174  0  0  -0.198508  0  2.507138  0  0  -0.216871  0  2.506808  0  0  -0.112289  -0.186144  0  2.507085  0
O  O74  1  0.86415684  0.86240341  0.88544527  1  0  -0.78277  0  1.962228  0  0  -0.725258  0  2.170903  0  0  -0.744731  0  2.140052  0  0  -0.564322  -0.71156  0  2.19262  0
O  O75  1  0.63584446  0.63759947  0.38544999  1  0  -0.782938  0  1.962254  0  0  -0.72541  0  2.170795  0  0  -0.7449  0  2.139989  0  0  -0.564332  -0.711697  0  2.192499  0
O  O76  1  0.13584421  0.13759877  0.11455046  1  0  -0.782896  0  1.962242  0  0  -0.72537  0  2.170791  0  0  -0.744867  0  2.13999  0  0  -0.564344  -0.711664  0  2.192484  0
O  O77  1  0.36415725  0.36239754  0.61455259  1  0  -0.782722  0  1.962361  0  0  -0.725207  0  2.170982  0  0  -0.744678  0  2.140136  0  0  -0.564268  -0.711499  0  2.192689  0
