# generated using pymatgen
data_CdH9C8(NO2)2
_symmetry_space_group_name_H-M   'P 1'
_cell_length_a   7.49031348
_cell_length_b   9.10819312
_cell_length_c   14.65877826
_cell_angle_alpha   92.04230159
_cell_angle_beta   104.80231238
_cell_angle_gamma   90.02914116
_symmetry_Int_Tables_number   1
_chemical_formula_structural   CdH9C8(NO2)2
_chemical_formula_sum   'Cd4 H36 C32 N8 O16'
_cell_volume   966.21786265
_cell_formula_units_Z   4
loop_
 _symmetry_equiv_pos_site_id
 _symmetry_equiv_pos_as_xyz
  1  'x, y, z'
loop_
 _atom_site_type_symbol
 _atom_site_label
 _atom_site_symmetry_multiplicity
 _atom_site_fract_x
 _atom_site_fract_y
 _atom_site_fract_z
 _atom_site_occupancy
 _atom_site_hle17_bader_spin_density
 _atom_site_hle17_ddec_charge
 _atom_site_hle17_ddec_spin_density
 _atom_site_hle17_ddec_sum_bond_order
 _atom_site_hle17_magmom
 _atom_site_hse06_10hf_bader_spin_density
 _atom_site_hse06_10hf_ddec_charge
 _atom_site_hse06_10hf_ddec_spin_density
 _atom_site_hse06_10hf_ddec_sum_bond_order
 _atom_site_hse06_10hf_magmom
 _atom_site_hse06_bader_spin_density
 _atom_site_hse06_ddec_charge
 _atom_site_hse06_ddec_spin_density
 _atom_site_hse06_ddec_sum_bond_order
 _atom_site_hse06_magmom
 _atom_site_pbe_bader_spin_density
 _atom_site_pbe_cm5_charge
 _atom_site_pbe_ddec_charge
 _atom_site_pbe_ddec_spin_density
 _atom_site_pbe_ddec_sum_bond_order
 _atom_site_pbe_magmom
Cd  Cd0  1  0.51261772  0.48095285  0.63158967  1  0  1.227457  0  1.664972  0  0  1.047608  0  2.117336  0  0  1.102856  0  2.062284  0  0  0.789219  1.006472  0  2.155976  0
Cd  Cd1  1  0.88050847  0.01901945  0.36844623  1  0  1.226706  0  1.665697  0  0  1.047129  0  2.118198  0  0  1.10236  0  2.063159  0  0  0.7893  1.006034  0  2.15683  0
Cd  Cd2  1  0.48738211  0.51904712  0.36841283  1  0  1.227464  0  1.665018  0  0  1.047617  0  2.117392  0  0  1.102867  0  2.062338  0  0  0.789222  1.006487  0  2.156033  0
Cd  Cd3  1  0.11949133  0.98097943  0.63155419  1  0  1.226725  0  1.665722  0  0  1.047164  0  2.118238  0  0  1.102393  0  2.063195  0  0  0.789302  1.006065  0  2.156869  0
H  H4  1  0.46334865  0.86254520  0.40854844  1  0  0.143751  0  0.935819  0  0  0.154206  0  0.998486  0  0  0.157761  0  0.996663  0  0  0.109198  0.151712  0  0.999864  0
H  H5  1  0.05500495  0.63731461  0.59134661  1  0  0.143937  0  0.93667  0  0  0.154672  0  0.998722  0  0  0.15821  0  0.996946  0  0  0.109302  0.152184  0  1.000081  0
H  H6  1  0.53665117  0.13745367  0.59145403  1  0  0.143749  0  0.935771  0  0  0.154206  0  0.998443  0  0  0.157761  0  0.996621  0  0  0.109217  0.151714  0  0.999817  0
H  H7  1  0.94499486  0.36268427  0.40865518  1  0  0.143948  0  0.936712  0  0  0.154678  0  0.99875  0  0  0.15822  0  0.996975  0  0  0.109293  0.15219  0  1.000111  0
H  H8  1  0.27843088  0.96167243  0.43816842  1  0  0.134626  0  0.965701  0  0  0.143113  0  1.028536  0  0  0.146621  0  1.026963  0  0  0.099158  0.14043  0  1.030111  0
H  H9  1  0.84035494  0.53825572  0.56195436  1  0  0.135048  0  0.965839  0  0  0.143358  0  1.028699  0  0  0.146848  0  1.027149  0  0  0.099352  0.140682  0  1.030266  0
H  H10  1  0.72156896  0.03832864  0.56183343  1  0  0.13461  0  0.965759  0  0  0.143094  0  1.028601  0  0  0.146604  0  1.027022  0  0  0.099144  0.14041  0  1.030178  0
H  H11  1  0.15964623  0.46174206  0.43804622  1  0  0.13507  0  0.965895  0  0  0.14334  0  1.028775  0  0  0.146834  0  1.027224  0  0  0.099347  0.140666  0  1.030339  0
H  H12  1  0.59176071  0.69481397  0.82273698  1  0  0.103054  0  0.97572  0  0  0.109945  0  1.041434  0  0  0.113181  0  1.038787  0  0  0.11425  0.107399  0  1.043849  0
H  H13  1  0.76823038  0.80509684  0.17729804  1  0  0.103793  0  0.974224  0  0  0.109859  0  1.040975  0  0  0.113067  0  1.038345  0  0  0.114423  0.107326  0  1.043361  0
H  H14  1  0.40823229  0.30519370  0.17726278  1  0  0.103076  0  0.975662  0  0  0.109969  0  1.041377  0  0  0.113205  0  1.03873  0  0  0.114255  0.107423  0  1.043794  0
H  H15  1  0.23176661  0.19490095  0.82269790  1  0  0.1038  0  0.974214  0  0  0.109862  0  1.040967  0  0  0.113071  0  1.038338  0  0  0.114424  0.107329  0  1.043355  0
H  H16  1  0.34069974  0.74937627  0.93110450  1  0  0.0961  0  0.996652  0  0  0.107187  0  1.05941  0  0  0.109909  0  1.05768  0  0  0.113702  0.10524  0  1.0605  0
H  H17  1  0.40861184  0.75038849  0.06910279  1  0  0.096357  0  0.997062  0  0  0.107354  0  1.05997  0  0  0.110134  0  1.058165  0  0  0.113504  0.105394  0  1.061078  0
H  H18  1  0.65929189  0.25063360  0.06889308  1  0  0.09611  0  0.996657  0  0  0.107206  0  1.059408  0  0  0.10991  0  1.057699  0  0  0.113692  0.10526  0  1.060494  0
H  H19  1  0.59138658  0.24961369  0.93089413  1  0  0.096283  0  0.997084  0  0  0.107317  0  1.059968  0  0  0.1101  0  1.058157  0  0  0.113502  0.105355  0  1.061077  0
H  H20  1  0.13554674  0.40703456  0.72785511  1  0  0.113416  0  0.948616  0  0  0.1186  0  1.018013  0  0  0.121565  0  1.014787  0  0  0.137313  0.116225  0  1.020633  0
H  H21  1  0.40734917  0.09309133  0.27211743  1  0  0.114478  0  0.94739  0  0  0.118908  0  1.017476  0  0  0.121914  0  1.014167  0  0  0.137449  0.116502  0  1.020161  0
H  H22  1  0.86446269  0.59295992  0.27214849  1  0  0.113455  0  0.948579  0  0  0.118657  0  1.017951  0  0  0.12163  0  1.014724  0  0  0.137311  0.116283  0  1.020575  0
H  H23  1  0.59265198  0.90690645  0.72788178  1  0  0.114451  0  0.947426  0  0  0.118893  0  1.017487  0  0  0.1219  0  1.014177  0  0  0.13745  0.116487  0  1.020173  0
H  H24  1  0.93255887  0.48430705  0.83017714  1  0  0.10062  0  0.93214  0  0  0.113216  0  0.99677  0  0  0.115377  0  0.994931  0  0  0.115633  0.111459  0  0.998316  0
H  H25  1  0.10173317  0.01552065  0.16990823  1  0  0.100767  0  0.93237  0  0  0.113635  0  0.996605  0  0  0.115887  0  0.994676  0  0  0.115736  0.111821  0  0.998213  0
H  H26  1  0.06744096  0.51569513  0.16982200  1  0  0.100607  0  0.932146  0  0  0.1132  0  0.996777  0  0  0.115363  0  0.994938  0  0  0.115626  0.111445  0  0.998324  0
H  H27  1  0.89826523  0.98447823  0.83009065  1  0  0.100756  0  0.932455  0  0  0.113656  0  0.996623  0  0  0.115909  0  0.99469  0  0  0.115747  0.111842  0  0.998231  0
H  H28  1  0.96627134  0.66716032  0.87664314  1  0  0.078896  0  0.91281  0  0  0.094978  0  0.973881  0  0  0.095803  0  0.973518  0  0  0.108776  0.094194  0  0.974314  0
H  H29  1  0.08881778  0.83269870  0.12335053  1  0  0.079112  0  0.91361  0  0  0.095291  0  0.974493  0  0  0.096103  0  0.974182  0  0  0.109276  0.094509  0  0.974912  0
H  H30  1  0.03372568  0.33283856  0.12335556  1  0  0.078903  0  0.912794  0  0  0.094982  0  0.973864  0  0  0.095807  0  0.973501  0  0  0.108777  0.094199  0  0.974295  0
H  H31  1  0.91118200  0.16730018  0.87664785  1  0  0.079131  0  0.913623  0  0  0.095272  0  0.974529  0  0  0.096082  0  0.974219  0  0  0.109267  0.094492  0  0.974949  0
H  H32  1  0.19218412  0.57252746  0.02493645  1  0  0.064912  0  0.942225  0  0  0.084109  0  1.003057  0  0  0.08457  0  1.003915  0  0  0.091054  0.083767  0  1.002403  0
H  H33  1  0.16746347  0.92760591  0.97533091  1  0  0.064612  0  0.94168  0  0  0.08361  0  1.002574  0  0  0.084089  0  1.003371  0  0  0.091245  0.083267  0  1.001926  0
H  H34  1  0.80781010  0.42746812  0.97506181  1  0  0.064983  0  0.942204  0  0  0.084176  0  1.003026  0  0  0.084636  0  1.003887  0  0  0.091057  0.083832  0  1.00237  0
H  H35  1  0.83253498  0.07239627  0.02466805  1  0  0.064603  0  0.941625  0  0  0.083622  0  1.002503  0  0  0.084101  0  1.003299  0  0  0.091255  0.083277  0  1.001856  0
H  H36  1  0.14347676  0.39216654  0.97816426  1  0  0.063152  0  0.931456  0  0  0.083514  0  0.990592  0  0  0.084175  0  0.991186  0  0  0.090928  0.082927  0  0.990331  0
H  H37  1  0.16540691  0.10789416  0.02215138  1  0  0.063874  0  0.930926  0  0  0.082986  0  0.9911  0  0  0.083605  0  0.99172  0  0  0.090941  0.082426  0  0.990819  0
H  H38  1  0.85651751  0.60783235  0.02183409  1  0  0.063139  0  0.931394  0  0  0.08346  0  0.990576  0  0  0.084122  0  0.991168  0  0  0.090891  0.082872  0  0.990315  0
H  H39  1  0.83459153  0.89210692  0.97784755  1  0  0.063877  0  0.93093  0  0  0.082968  0  0.991127  0  0  0.083587  0  0.991748  0  0  0.090947  0.08241  0  0.990845  0
C  C40  1  0.35195939  0.75988967  0.51000433  1  0  0.753713  0  3.805413  0  0  0.704545  0  4.098086  0  0  0.739476  0  4.090629  0  0  0.215817  0.680089  0  4.102953  0
C  C41  1  0.84211876  0.74001383  0.49001883  1  0  0.754067  0  3.805725  0  0  0.705201  0  4.097888  0  0  0.740175  0  4.09038  0  0  0.21582  0.680747  0  4.102754  0
C  C42  1  0.64803902  0.24010921  0.48999524  1  0  0.753838  0  3.805191  0  0  0.704591  0  4.097978  0  0  0.739517  0  4.090527  0  0  0.215831  0.680137  0  4.102848  0
C  C43  1  0.15788105  0.25998505  0.50998365  1  0  0.754178  0  3.805804  0  0  0.705181  0  4.098131  0  0  0.740162  0  4.090623  0  0  0.215855  0.680724  0  4.102993  0
C  C44  1  0.32685934  0.85252709  0.42309914  1  0  -0.455326  0  3.64632  0  0  -0.488728  0  3.882569  0  0  -0.499552  0  3.883561  0  0  -0.179558  -0.480886  0  3.881724  0
C  C45  1  0.90401420  0.64739729  0.57693727  1  0  -0.457351  0  3.647568  0  0  -0.49028  0  3.883738  0  0  -0.501144  0  3.884751  0  0  -0.180053  -0.482437  0  3.882887  0
C  C46  1  0.67314045  0.14747069  0.57690262  1  0  -0.45532  0  3.646315  0  0  -0.488747  0  3.882564  0  0  -0.49957  0  3.883557  0  0  -0.179593  -0.480908  0  3.88172  0
C  C47  1  0.09598561  0.35260159  0.42306452  1  0  -0.457471  0  3.647672  0  0  -0.49028  0  3.883811  0  0  -0.501163  0  3.884843  0  0  -0.180074  -0.482436  0  3.88296  0
C  C48  1  0.19473465  0.77978395  0.33564264  1  0  0.732335  0  3.842257  0  0  0.683677  0  4.145005  0  0  0.718247  0  4.137507  0  0  0.204207  0.660017  0  4.149132  0
C  C49  1  0.85974260  0.72018578  0.66441553  1  0  0.736019  0  3.837407  0  0  0.686162  0  4.141637  0  0  0.720744  0  4.134057  0  0  0.205456  0.662501  0  4.145823  0
C  C50  1  0.80526655  0.22021713  0.66435733  1  0  0.732302  0  3.842437  0  0  0.683756  0  4.145018  0  0  0.718328  0  4.137517  0  0  0.204257  0.660095  0  4.149145  0
C  C51  1  0.14025723  0.27981530  0.33558563  1  0  0.736014  0  3.837391  0  0  0.686098  0  4.14167  0  0  0.720684  0  4.134089  0  0  0.205447  0.662437  0  4.145857  0
C  C52  1  0.46130319  0.64215590  0.82113469  1  0  0.005918  0  3.779726  0  0  -0.027795  0  4.046706  0  0  -0.025011  0  4.066518  0  0  -0.006637  -0.029765  0  4.033038  0
C  C53  1  0.63946664  0.85777080  0.17892630  1  0  0.006783  0  3.77874  0  0  -0.026149  0  4.045789  0  0  -0.023307  0  4.065563  0  0  -0.005863  -0.028142  0  4.03214  0
C  C54  1  0.53869528  0.35784848  0.17886433  1  0  0.005912  0  3.779845  0  0  -0.027807  0  4.046823  0  0  -0.025021  0  4.066631  0  0  -0.00665  -0.029776  0  4.033155  0
C  C55  1  0.36053315  0.14222918  0.82107142  1  0  0.006754  0  3.778724  0  0  -0.02617  0  4.045784  0  0  -0.023329  0  4.065559  0  0  -0.005887  -0.028164  0  4.032139  0
C  C56  1  0.33939450  0.66816322  0.87535248  1  0  -0.080177  0  3.709556  0  0  -0.12228  0  3.968026  0  0  -0.121504  0  3.987197  0  0  -0.009613  -0.122148  0  3.954342  0
C  C57  1  0.46325278  0.83160180  0.12482579  1  0  -0.083006  0  3.71095  0  0  -0.125031  0  3.96946  0  0  -0.124331  0  3.988575  0  0  -0.010167  -0.124861  0  3.95577  0
C  C58  1  0.66060539  0.33184335  0.12464813  1  0  -0.080122  0  3.709658  0  0  -0.122236  0  3.968119  0  0  -0.121447  0  3.987303  0  0  -0.009587  -0.122103  0  3.954429  0
C  C59  1  0.53674561  0.16839708  0.87517173  1  0  -0.082905  0  3.711026  0  0  -0.124979  0  3.969535  0  0  -0.124277  0  3.988648  0  0  -0.010173  -0.124813  0  3.95585  0
C  C60  1  0.22762746  0.49229289  0.76772965  1  0  0.170274  0  3.634319  0  0  0.111247  0  3.89802  0  0  0.124114  0  3.912627  0  0  0.14659  0.102692  0  3.888411  0
C  C61  1  0.45937816  0.00768181  0.23230469  1  0  0.167836  0  3.632094  0  0  0.109563  0  3.896304  0  0  0.122406  0  3.910977  0  0  0.146114  0.101019  0  3.886664  0
C  C62  1  0.77237785  0.50770489  0.23227282  1  0  0.170281  0  3.634343  0  0  0.111245  0  3.898011  0  0  0.124105  0  3.912626  0  0  0.146597  0.102688  0  3.888407  0
C  C63  1  0.54061883  0.99231488  0.76769327  1  0  0.167955  0  3.632065  0  0  0.109672  0  3.896268  0  0  0.122513  0  3.910942  0  0  0.146131  0.101126  0  3.886627  0
C  C64  1  0.03129651  0.55862498  0.87877987  1  0  -0.00763  0  3.618112  0  0  -0.069036  0  3.878392  0  0  -0.065052  0  3.889021  0  0  -0.053534  -0.07164  0  3.871403  0
C  C65  1  0.15190100  0.94124209  0.12131917  1  0  -0.009011  0  3.62088  0  0  -0.070582  0  3.880677  0  0  -0.06672  0  3.891365  0  0  -0.053913  -0.07315  0  3.873732  0
C  C66  1  0.96870468  0.44137499  0.12122007  1  0  -0.007561  0  3.618064  0  0  -0.06895  0  3.878285  0  0  -0.064967  0  3.888913  0  0  -0.053512  -0.071559  0  3.871294  0
C  C67  1  0.84809466  0.05875899  0.87867804  1  0  -0.00921  0  3.621221  0  0  -0.07073  0  3.880922  0  0  -0.066864  0  3.891599  0  0  -0.053974  -0.073301  0  3.873978  0
C  C68  1  0.08315749  0.50250837  0.97904111  1  0  -0.121038  0  3.700228  0  0  -0.164014  0  3.967078  0  0  -0.165596  0  3.98175  0  0  -0.161527  -0.162641  0  3.956581  0
C  C69  1  0.10404959  0.99752642  0.02112032  1  0  -0.120963  0  3.702979  0  0  -0.16253  0  3.968158  0  0  -0.164036  0  3.982782  0  0  -0.161513  -0.161184  0  3.957675  0
C  C70  1  0.91683674  0.49748832  0.02095718  1  0  -0.121093  0  3.70021  0  0  -0.164037  0  3.967052  0  0  -0.16562  0  3.981723  0  0  -0.161508  -0.162654  0  3.956546  0
C  C71  1  0.89594607  0.00247466  0.97887758  1  0  -0.120845  0  3.702911  0  0  -0.162425  0  3.96808  0  0  -0.163932  0  3.982701  0  0  -0.161483  -0.16108  0  3.957601  0
N  N72  1  0.38985972  0.53281990  0.75431887  1  0  -0.395368  0  3.267291  0  0  -0.31978  0  3.553386  0  0  -0.342208  0  3.571101  0  0  -0.361158  -0.304606  0  3.540549  0
N  N73  1  0.63502008  0.96719975  0.24569287  1  0  -0.394715  0  3.264192  0  0  -0.319269  0  3.549825  0  0  -0.341689  0  3.56756  0  0  -0.361345  -0.304107  0  3.536977  0
N  N74  1  0.61014150  0.46718117  0.24568315  1  0  -0.395442  0  3.267388  0  0  -0.319856  0  3.553491  0  0  -0.342285  0  3.571211  0  0  -0.361149  -0.304681  0  3.540657  0
N  N75  1  0.36497970  0.03279913  0.75430550  1  0  -0.394803  0  3.26417  0  0  -0.319369  0  3.549833  0  0  -0.341789  0  3.567566  0  0  -0.361371  -0.304208  0  3.536986  0
N  N76  1  0.19267401  0.57214159  0.84110564  1  0  -0.057808  0  3.574486  0  0  0.037482  0  3.790764  0  0  0.022919  0  3.818096  0  0  -0.243738  0.047075  0  3.772313  0
N  N77  1  0.35092022  0.92766141  0.15906000  1  0  -0.054998  0  3.574724  0  0  0.040091  0  3.790666  0  0  0.025564  0  3.818046  0  0  -0.243739  0.049671  0  3.772195  0
N  N78  1  0.80732719  0.42785949  0.15889502  1  0  -0.057917  0  3.574576  0  0  0.037366  0  3.790845  0  0  0.022804  0  3.818174  0  0  -0.243763  0.046962  0  3.772395  0
N  N79  1  0.64907818  0.07233747  0.84093820  1  0  -0.054916  0  3.574882  0  0  0.040174  0  3.790823  0  0  0.025641  0  3.818208  0  0  -0.24366  0.049754  0  3.77235  0
O  O80  1  0.40370109  0.62609972  0.50168427  1  0  -0.704923  0  2.118185  0  0  -0.616012  0  2.382683  0  0  -0.649575  0  2.37049  0  0  -0.332268  -0.591934  0  2.391084  0
O  O81  1  0.90223271  0.87383167  0.49832578  1  0  -0.704874  0  2.118291  0  0  -0.616307  0  2.38294  0  0  -0.649888  0  2.370734  0  0  -0.332367  -0.592243  0  2.391366  0
O  O82  1  0.59629733  0.37389805  0.49831731  1  0  -0.705003  0  2.118176  0  0  -0.616029  0  2.382674  0  0  -0.649587  0  2.37048  0  0  -0.332248  -0.591951  0  2.391076  0
O  O83  1  0.09777124  0.12616721  0.50167654  1  0  -0.704823  0  2.118306  0  0  -0.616239  0  2.383028  0  0  -0.649823  0  2.370824  0  0  -0.332349  -0.592175  0  2.391451  0
O  O84  1  0.32606340  0.81297484  0.58577439  1  0  -0.643319  0  1.990728  0  0  -0.58594  0  2.250654  0  0  -0.612573  0  2.238979  0  0  -0.320961  -0.566504  0  2.258145  0
O  O85  1  0.74034048  0.68684466  0.41428864  1  0  -0.643259  0  1.990678  0  0  -0.586019  0  2.250371  0  0  -0.612654  0  2.238716  0  0  -0.320632  -0.566591  0  2.257831  0
O  O86  1  0.67393500  0.18702294  0.41422583  1  0  -0.643343  0  1.990679  0  0  -0.585931  0  2.250637  0  0  -0.612564  0  2.238964  0  0  -0.320961  -0.566498  0  2.258132  0
O  O87  1  0.25965660  0.31315421  0.58571621  1  0  -0.643287  0  1.990681  0  0  -0.585978  0  2.250403  0  0  -0.612612  0  2.238744  0  0  -0.320601  -0.566551  0  2.257867  0
O  O88  1  0.03322188  0.83066526  0.30671729  1  0  -0.656762  0  1.992156  0  0  -0.592063  0  2.250395  0  0  -0.620301  0  2.239062  0  0  -0.327544  -0.571565  0  2.257363  0
O  O89  1  0.72682309  0.66963504  0.69329598  1  0  -0.658517  0  1.990473  0  0  -0.593246  0  2.249143  0  0  -0.621415  0  2.237544  0  0  -0.327885  -0.572765  0  2.256238  0
O  O90  1  0.96677930  0.16933472  0.69328266  1  0  -0.656756  0  1.992193  0  0  -0.592109  0  2.250392  0  0  -0.620345  0  2.239055  0  0  -0.327555  -0.571613  0  2.257362  0
O  O91  1  0.27317809  0.33036274  0.30670596  1  0  -0.658497  0  1.990484  0  0  -0.593205  0  2.24917  0  0  -0.621373  0  2.23757  0  0  -0.327874  -0.572718  0  2.256253  0
O  O92  1  0.25130171  0.67035462  0.29454742  1  0  -0.665779  0  1.973654  0  0  -0.607628  0  2.233494  0  0  -0.635103  0  2.221299  0  0  -0.339359  -0.587842  0  2.241014  0
O  O93  1  0.95800258  0.82931445  0.70561860  1  0  -0.666796  0  1.971459  0  0  -0.608589  0  2.232113  0  0  -0.636058  0  2.219909  0  0  -0.340401  -0.588802  0  2.239626  0
O  O94  1  0.74869949  0.32964425  0.70545523  1  0  -0.665808  0  1.973785  0  0  -0.607693  0  2.233564  0  0  -0.635166  0  2.221367  0  0  -0.339417  -0.587905  0  2.241082  0
O  O95  1  0.04199449  0.17068663  0.29438220  1  0  -0.666843  0  1.971435  0  0  -0.608619  0  2.232114  0  0  -0.636087  0  2.219909  0  0  -0.340442  -0.588833  0  2.239627  0
