# generated using pymatgen
data_AlHC4Cl2O5
_symmetry_space_group_name_H-M   'P 1'
_cell_length_a   6.67685466
_cell_length_b   8.93534606
_cell_length_c   8.93457292
_cell_angle_alpha   61.74154736
_cell_angle_beta   73.70184159
_cell_angle_gamma   73.69253751
_symmetry_Int_Tables_number   1
_chemical_formula_structural   AlHC4Cl2O5
_chemical_formula_sum   'Al2 H2 C8 Cl4 O10'
_cell_volume   443.69048116
_cell_formula_units_Z   2
loop_
 _symmetry_equiv_pos_site_id
 _symmetry_equiv_pos_as_xyz
  1  'x, y, z'
loop_
 _atom_site_type_symbol
 _atom_site_label
 _atom_site_symmetry_multiplicity
 _atom_site_fract_x
 _atom_site_fract_y
 _atom_site_fract_z
 _atom_site_occupancy
 _atom_site_pbe_bader_charge
 _atom_site_pbe_bader_spin_density
 _atom_site_pbe_cm5_charge
 _atom_site_pbe_ddec_charge
 _atom_site_pbe_ddec_spin_density
 _atom_site_pbe_ddec_sum_bond_order
 _atom_site_pbe_magmom
Al  Al0  1  0.49997060  0.50005769  0.49998662  1  2.505603  0  0.39864  1.659835  0  2.552824  0
Al  Al1  1  0.99992282  0.50008365  0.49998123  1  2.505684  0  0.398687  1.660543  0  2.55257  0
H  H2  1  0.75022489  0.30673349  0.69271889  1  0.613798  0  0.363039  0.448518  0  0.821428  0
H  H3  1  0.25015209  0.69271143  0.30677895  1  0.614031  0  0.363081  0.448402  0  0.821657  0
C  C4  1  0.15639168  0.46014091  0.79549556  1  1.658412  0  0.264201  0.645573  0  4.119955  0
C  C5  1  0.34363363  0.20458100  0.53993138  1  1.657347  0  0.263955  0.645763  0  4.120851  0
C  C6  1  0.84354766  0.53995087  0.20450888  1  1.658773  0  0.264196  0.646192  0  4.120159  0
C  C7  1  0.65638472  0.79549433  0.46016449  1  1.659066  0  0.26406  0.645656  0  4.121377  0
C  C8  1  0.59184513  0.97283016  0.45610789  1  0.155283  0  0.00903  -0.044445  0  3.953235  0
C  C9  1  0.40810053  0.02715172  0.54393484  1  0.09191  0  0.009009  -0.044548  0  3.952799  0
C  C10  1  0.09181678  0.45609606  0.97294474  1  0.094784  0  0.009068  -0.044312  0  3.953493  0
C  C11  1  0.90801779  0.54397337  0.02716559  1  0.154343  0  0.008809  -0.044992  0  3.954613  0
Cl  Cl12  1  0.77706602  0.10347617  0.32823769  1  -0.14453  0  0.029024  0.003828  0  1.623254  0
Cl  Cl13  1  0.22289111  0.89659518  0.67178269  1  -0.14416  0  0.029212  0.004117  0  1.624634  0
Cl  Cl14  1  0.27699273  0.32827798  0.10345352  1  -0.144833  0  0.02946  0.004457  0  1.626129  0
Cl  Cl15  1  0.72297223  0.67180682  0.89653276  1  -0.14454  0  0.029297  0.004283  0  1.626249  0
O  O16  1  0.34925326  0.46888017  0.72745845  1  -1.245529  0  -0.230835  -0.588111  0  2.389349  0
O  O17  1  0.15079520  0.27254338  0.53118239  1  -1.244834  0  -0.230492  -0.587913  0  2.390502  0
O  O18  1  0.98459061  0.54858708  0.26860484  1  -1.246233  0  -0.229814  -0.577825  0  2.366812  0
O  O19  1  0.51534772  0.73146632  0.45147404  1  -1.245919  0  -0.229784  -0.577335  0  2.36631  0
O  O20  1  0.65069963  0.53123102  0.27253304  1  -1.246137  0  -0.230831  -0.588554  0  2.389591  0
O  O21  1  0.84922536  0.72742072  0.46886141  1  -1.245882  0  -0.230629  -0.58814  0  2.390217  0
O  O22  1  0.01541347  0.45139824  0.73142484  1  -1.246297  0  -0.229951  -0.577558  0  2.366538  0
O  O23  1  0.48467106  0.26862753  0.54865648  1  -1.245782  0  -0.229855  -0.577884  0  2.366947  0
O  O24  1  0.75007869  0.41264205  0.58737192  1  -1.412233  0  -0.445315  -0.98781  0  2.184944  0
O  O25  1  0.24994060  0.58735994  0.41267843  1  -1.412123  0  -0.445262  -0.987741  0  2.185677  0
