# generated using pymatgen
data_Zn4H16C37I4(NO4)4
_symmetry_space_group_name_H-M   'P 1'
_cell_length_a   13.13640855
_cell_length_b   19.16089683
_cell_length_c   19.29988536
_cell_angle_alpha   85.41530201
_cell_angle_beta   84.56634144
_cell_angle_gamma   85.19672937
_symmetry_Int_Tables_number   1
_chemical_formula_structural   Zn4H16C37I4(NO4)4
_chemical_formula_sum   'Zn4 H16 C37 I4 N4 O16'
_cell_volume   4806.36097979
_cell_formula_units_Z   1
loop_
 _symmetry_equiv_pos_site_id
 _symmetry_equiv_pos_as_xyz
  1  'x, y, z'
loop_
 _atom_site_type_symbol
 _atom_site_label
 _atom_site_symmetry_multiplicity
 _atom_site_fract_x
 _atom_site_fract_y
 _atom_site_fract_z
 _atom_site_occupancy
 _atom_site_pbe_bader_charge
 _atom_site_pbe_bader_spin_density
 _atom_site_pbe_cm5_charge
 _atom_site_pbe_ddec_charge
 _atom_site_pbe_ddec_spin_density
 _atom_site_pbe_ddec_sum_bond_order
 _atom_site_pbe_magmom
Zn  Zn0  1  0.41220381  0.56502012  0.44287197  1  1.308192  0  0.672835  0.966774  0  2.356806  0
Zn  Zn1  1  0.41495316  0.44497713  0.56929606  1  1.31206  0  0.672639  0.965704  0  2.360711  0
Zn  Zn2  1  0.59156018  0.54788517  0.54872386  1  1.313378  0  0.678431  0.964324  0  2.392902  0
Zn  Zn3  1  0.58318603  0.43690535  0.43454842  1  1.315162  0  0.671293  0.964944  0  2.362955  0
H  H4  1  0.90367795  0.53721962  0.54600194  1  0.177601  0  0.118914  0.130304  0  1.006951  0
H  H5  1  0.59539902  0.22416011  0.42256672  1  0.107331  0  0.111431  0.11827  0  0.986281  0
H  H6  1  0.09277035  0.49829748  0.44198407  1  0.086697  0  0.113739  0.107156  0  0.971854  0
H  H7  1  0.92484303  0.46028225  0.40928230  1  0.056587  0  0.113509  0.129823  0  0.980097  0
H  H8  1  0.36571730  0.46777781  0.78140598  1  0.109337  0  0.111046  0.129713  0  0.986997  0
H  H9  1  0.35580226  0.78293059  0.47214120  1  0.121148  0  0.111515  0.131578  0  0.987171  0
H  H10  1  0.36649293  0.60014298  0.10020314  1  0.068986  0  0.113974  0.119345  0  0.981185  0
H  H11  1  0.36371134  0.09967173  0.60137809  1  0.108546  0  0.113981  0.120211  0  0.980587  0
H  H12  1  0.37308359  0.59712110  0.23087089  1  0.110944  0  0.111897  0.119284  0  0.986107  0
H  H13  1  0.36595514  0.23167694  0.59666913  1  0.093489  0  0.112165  0.119451  0  0.984768  0
H  H14  1  0.13751791  0.55978796  0.64551591  1  0.073676  0  0.102644  0.040564  0  0.961623  0
H  H15  1  0.71652520  0.46152070  0.69783606  1  0.053939  0  0.102148  0.042846  0  0.973579  0
H  H16  1  0.59199525  0.42447074  0.09075100  1  0.098839  0  0.108854  0.113254  0  1.011774  0
H  H17  1  0.70637762  0.69781521  0.45358615  1  0.070845  0  0.101167  0.039293  0  0.9704  0
H  H18  1  0.59189128  0.09278760  0.42651997  1  0.10805  0  0.109918  0.114731  0  1.007525  0
H  H19  1  0.59757320  0.42075751  0.22108907  1  0.096081  0  0.110584  0.117583  0  0.986486  0
C  C20  1  0.52055970  0.48430340  0.68684963  1  1.559229  0  0.231076  0.604565  0  4.173641  0
C  C21  1  0.54313464  0.12388754  0.46328214  1  -0.054145  0  -0.078813  -0.136159  0  3.935837  0
C  C22  1  0.54422508  0.46141854  0.12223258  1  -0.00998  0  -0.078437  -0.135475  0  3.939585  0
C  C23  1  0.47828508  0.51246023  0.08904662  1  0.318796  0  0.08937  0.170363  0  4.027102  0
C  C24  1  0.47728391  0.08963907  0.51433396  1  0.319226  0  0.090673  0.172382  0  4.026781  0
C  C25  1  0.41621899  0.56123650  0.12786513  1  -0.017586  0  -0.07281  -0.128911  0  3.937492  0
C  C26  1  0.41336669  0.12812724  0.56243627  1  -0.048182  0  -0.072358  -0.130661  0  3.936954  0
C  C27  1  0.50777662  0.68573304  0.48863558  1  1.528385  0  0.228455  0.601607  0  4.170694  0
C  C28  1  0.42002723  0.55948252  0.19973934  1  -0.029424  0  -0.077413  -0.081901  0  3.963191  0
C  C29  1  0.41483450  0.20079731  0.55978362  1  0.026123  0  -0.076407  -0.080198  0  3.96119  0
C  C30  1  0.43252674  0.47627336  0.87819891  1  -0.247295  0  -0.037456  0.016559  0  3.859829  0
C  C31  1  0.42799289  0.87928203  0.47827189  1  -0.170229  0  -0.037751  0.014911  0  3.862496  0
C  C32  1  0.43548505  0.47340927  0.80605973  1  0.11242  0  -0.087597  -0.123417  0  3.973968  0
C  C33  1  0.42707480  0.80678266  0.47645490  1  0.03238  0  -0.08659  -0.122165  0  3.977183  0
C  C34  1  0.52365841  0.48274190  0.90929644  1  0.401737  0  0.082913  0.110425  0  4.04767  0
C  C35  1  0.52096508  0.90910870  0.48417405  1  0.403495  0  0.084227  0.11204  0  4.047715  0
C  C36  1  0.52733710  0.47961983  0.76416476  1  -0.041545  0  -0.006561  -0.045224  0  3.934443  0
C  C37  1  0.51703952  0.76334539  0.48204908  1  -0.001633  0  -0.008117  -0.047983  0  3.938358  0
C  C38  1  0.62045595  0.48646353  0.79379911  1  0.047542  0  -0.015556  -0.019505  0  3.949917  0
C  C39  1  0.61218222  0.79178863  0.48694473  1  -0.015551  0  -0.014835  -0.017306  0  3.942194  0
C  C40  1  0.48999510  0.50634678  0.31027622  1  1.546999  0  0.227448  0.60126  0  4.169168  0
C  C41  1  0.48504919  0.31297101  0.50676252  1  1.548467  0  0.228728  0.602761  0  4.163468  0
C  C42  1  0.61645785  0.48728972  0.86661751  1  -0.180625  0  -0.029162  -0.012939  0  3.806522  0
C  C43  1  0.54729266  0.45965613  0.19394829  1  -0.018745  0  -0.075916  -0.074669  0  3.958502  0
C  C44  1  0.61206799  0.86488280  0.48780141  1  -0.168359  0  -0.028958  -0.014304  0  3.807917  0
C  C45  1  0.77648880  0.48453529  0.46871589  1  1.551411  0  0.221325  0.639905  0  4.185167  0
C  C46  1  0.22681969  0.52330283  0.52623492  1  1.579823  0  0.225471  0.60692  0  4.191745  0
C  C47  1  0.11308044  0.53233564  0.54054299  1  -0.057359  0  -0.012924  -0.118701  0  3.881529  0
C  C48  1  0.05354079  0.51519829  0.49115462  1  -0.013211  0  -0.046652  -0.025259  0  3.903511  0
C  C49  1  0.54481600  0.19623834  0.46121839  1  0.006351  0  -0.075825  -0.074925  0  3.958623  0
C  C50  1  0.88919320  0.48534124  0.45534934  1  -0.022501  0  -0.078477  -0.214701  0  3.847433  0
C  C51  1  0.94384314  0.51441617  0.50010998  1  -0.014409  0  -0.062439  -0.016242  0  3.962115  0
C  C52  1  0.48549528  0.50864473  0.23309897  1  0.014541  0  -0.01188  -0.032922  0  3.955882  0
C  C53  1  0.48088929  0.23514249  0.50933588  1  -0.047654  0  -0.01107  -0.031292  0  3.952897  0
C  C54  1  0.07529083  0.55537632  0.61105692  1  0.938289  0  0.103077  0.286066  0  3.948025  0
C  C55  1  0.71888715  0.48549305  0.74819245  1  0.97583  0  0.094933  0.278992  0  3.951051  0
C  C56  1  0.70883948  0.74452881  0.48390445  1  0.972883  0  0.094694  0.286488  0  3.958519  0
I  I57  1  0.74486403  0.49776439  0.92170045  1  0.21249  0  0.111556  0.025425  0  1.449315  0
I  I58  1  0.74442783  0.91744633  0.49683868  1  0.207583  0  0.104613  0.019278  0  1.432942  0
I  I59  1  0.28962796  0.46754451  0.93605560  1  0.145125  0  0.073073  -0.018977  0  1.327366  0
I  I60  1  0.28796118  0.93951417  0.46849796  1  0.145196  0  0.073169  -0.019488  0  1.333076  0
N  N61  1  0.47115971  0.52036663  0.01601603  1  -0.435147  0  -0.141396  -0.121848  0  3.285257  0
N  N62  1  0.47057248  0.01602488  0.52215759  1  -0.456084  0  -0.141837  -0.121915  0  3.293577  0
N  N63  1  0.53059552  0.47765932  0.98196310  1  -0.496327  0  -0.145176  -0.104216  0  3.370256  0
N  N64  1  0.53059733  0.98201450  0.47972959  1  -0.463459  0  -0.144158  -0.102866  0  3.364061  0
O  O65  1  0.49984851  0.49876851  0.49837977  1  -1.226548  0  -0.572446  -1.032472  0  2.535864  0
O  O66  1  0.41942947  0.34659981  0.54754789  1  -1.167792  0  -0.315357  -0.545724  0  2.32626  0
O  O67  1  0.57070829  0.64953257  0.52632123  1  -1.148908  0  -0.302219  -0.534435  0  2.365084  0
O  O68  1  0.57537343  0.52816514  0.65039193  1  -1.158064  0  -0.305273  -0.537304  0  2.347969  0
O  O69  1  0.55427982  0.33949333  0.46419767  1  -1.174616  0  -0.31337  -0.546463  0  2.342468  0
O  O70  1  0.54561052  0.45590023  0.33811827  1  -1.179195  0  -0.314016  -0.546654  0  2.337581  0
O  O71  1  0.73368252  0.51924709  0.51879146  1  -1.179793  0  -0.3159  -0.550126  0  2.347566  0
O  O72  1  0.27453644  0.49134010  0.57569370  1  -1.161827  0  -0.313143  -0.550136  0  2.32073  0
O  O73  1  0.26651681  0.54760687  0.46733129  1  -1.163768  0  -0.313387  -0.541467  0  2.305426  0
O  O74  1  0.73123115  0.44889103  0.42909976  1  -1.153507  0  -0.318705  -0.547649  0  2.275722  0
O  O75  1  0.98547313  0.57028203  0.63100943  1  -1.039508  0  -0.239721  -0.319129  0  2.115144  0
O  O76  1  0.79845040  0.50638149  0.76377905  1  -1.048317  0  -0.250924  -0.324326  0  2.178275  0
O  O77  1  0.45809599  0.44588715  0.66433537  1  -1.171762  0  -0.311209  -0.536289  0  2.322661  0
O  O78  1  0.78724968  0.75568588  0.50908468  1  -1.068939  0  -0.258905  -0.335493  0  2.157158  0
O  O79  1  0.43684734  0.66270951  0.45805084  1  -1.160056  0  -0.311292  -0.537642  0  2.318226  0
O  O80  1  0.43770768  0.55514344  0.34238475  1  -1.173166  0  -0.315043  -0.54562  0  2.336127  0
