# generated using pymatgen
data_NiH14C9(N3O4)2
_symmetry_space_group_name_H-M   'P 1'
_cell_length_a   7.76192157
_cell_length_b   8.64621171
_cell_length_c   11.34908432
_cell_angle_alpha   104.91695180
_cell_angle_beta   103.45018330
_cell_angle_gamma   107.30965694
_symmetry_Int_Tables_number   1
_chemical_formula_structural   NiH14C9(N3O4)2
_chemical_formula_sum   'Ni2 H28 C18 N12 O16'
_cell_volume   662.01225606
_cell_formula_units_Z   2
loop_
 _symmetry_equiv_pos_site_id
 _symmetry_equiv_pos_as_xyz
  1  'x, y, z'
loop_
 _atom_site_type_symbol
 _atom_site_label
 _atom_site_symmetry_multiplicity
 _atom_site_fract_x
 _atom_site_fract_y
 _atom_site_fract_z
 _atom_site_occupancy
 _atom_site_hle17_ddec_charge
 _atom_site_hle17_ddec_spin_density
 _atom_site_hle17_ddec_sum_bond_order
 _atom_site_hle17_magmom
 _atom_site_hse06_10hf_ddec_charge
 _atom_site_hse06_10hf_ddec_spin_density
 _atom_site_hse06_10hf_ddec_sum_bond_order
 _atom_site_hse06_10hf_magmom
 _atom_site_hse06_ddec_charge
 _atom_site_hse06_ddec_spin_density
 _atom_site_hse06_ddec_sum_bond_order
 _atom_site_hse06_magmom
 _atom_site_pbe_cm5_charge
 _atom_site_pbe_ddec_charge
 _atom_site_pbe_ddec_spin_density
 _atom_site_pbe_ddec_sum_bond_order
 _atom_site_pbe_magmom
Ni  Ni0  1  0.77626456  0.47077746  0.46382552  1  1.033706  1.786519  1.772267  1.543  1.053281  1.845282  2.146792  1.671  1.133998  1.902724  2.08524  1.751  0.628171  0.980283  1.786088  2.207039  1.595
Ni  Ni1  1  0.22373621  0.52922432  0.53617387  1  1.03376  -1.786516  1.772265  -1.543  1.05331  -1.845282  2.146813  -1.671  1.134025  -1.902719  2.085253  -1.751  0.628188  0.980335  -1.786086  2.207025  -1.595
H  H2  1  0.90592427  0.90746136  0.38068912  1  0.121416  0.000201  0.945888  0.0  0.13246  0.000153  1.007157  0.0  0.13499  0.000139  1.006288  0.0  0.118337  0.130102  8.3e-05  1.008514  0.0
H  H3  1  0.09407463  0.09253914  0.61930972  1  0.121436  -0.00019  0.945848  0.0  0.132442  -0.000153  1.007145  0.0  0.134975  -0.000139  1.006272  0.0  0.118311  0.130074  -8.3e-05  1.008516  0.0
H  H4  1  0.09098997  0.90756921  0.31500465  1  0.121889  -0.00035  0.912205  -0.001  0.135667  -0.000302  0.969317  0.0  0.138421  -0.000222  0.967123  0.0  0.126484  0.13338  -0.000449  0.971622  -0.001
H  H5  1  0.90900838  0.09242999  0.68499385  1  0.121922  0.000359  0.912194  0.001  0.135669  0.000302  0.969316  0.0  0.138423  0.000222  0.967125  0.0  0.126483  0.133382  0.000449  0.971617  0.001
H  H6  1  0.35352808  0.96988982  0.11398068  1  0.096917  -1.2e-05  0.932794  0.0  0.110584  4e-06  0.993994  0.0  0.112528  2e-06  0.992625  0.0  0.114287  0.109186  1.3e-05  0.995206  0.0
H  H7  1  0.64647312  0.03010678  0.88601954  1  0.096941  6e-06  0.932776  0.0  0.110599  -4e-06  0.993995  0.0  0.112544  -2e-06  0.992624  0.0  0.114294  0.109201  -1.3e-05  0.995208  0.0
H  H8  1  0.17705249  0.05829956  0.09670135  1  0.102015  -7.4e-05  0.929483  0.0  0.114859  -0.000102  0.992253  0.0  0.116723  -7.2e-05  0.990922  0.0  0.116445  0.113792  -0.000201  0.993098  0.0
H  H9  1  0.82294927  0.94169834  0.90329922  1  0.102028  7.5e-05  0.929445  0.0  0.114886  0.000102  0.992221  0.0  0.116746  7.2e-05  0.990895  0.0  0.116463  0.113819  0.000201  0.993067  0.0
H  H10  1  0.52110798  0.12383502  0.63062911  1  0.132729  0.000239  0.906219  0.0  0.147899  0.000199  0.959184  0.0  0.151084  0.000155  0.957073  0.0  0.128536  0.145318  0.000231  0.961364  0.0
H  H11  1  0.47889224  0.87616547  0.36937083  1  0.132744  -0.000245  0.906206  0.0  0.147914  -0.000199  0.959174  0.0  0.151099  -0.000155  0.957062  0.0  0.128537  0.145332  -0.000231  0.961351  0.0
H  H12  1  0.73790917  0.30395865  0.67226402  1  0.099797  -0.00062  0.971064  0.0  0.109026  -0.000521  1.042007  0.0  0.11057  -0.000398  1.041716  0.0  0.118716  0.107849  -0.000648  1.042475  0.0
H  H13  1  0.26208973  0.69604185  0.32773571  1  0.099823  0.000615  0.97105  0.0  0.109055  0.000521  1.041979  0.0  0.110599  0.000398  1.041688  0.0  0.118737  0.107878  0.000647  1.042452  0.0
H  H14  1  0.73726319  0.60016386  0.24988503  1  0.310746  -0.000136  0.909094  0.0  0.289183  -0.000149  0.974496  0.0  0.297574  -0.000146  0.967999  0.0  0.318116  0.283469  -0.000133  0.978692  0.0
H  H15  1  0.26273626  0.39983794  0.75011502  1  0.310807  0.000135  0.908999  0.0  0.289186  0.000149  0.974485  0.0  0.297579  0.000146  0.967987  0.0  0.318117  0.283473  0.000133  0.978684  0.0
H  H16  1  0.12572411  0.81302734  0.84930479  1  0.316479  -0.00018  0.878971  0.0  0.29661  -0.000172  0.943309  0.0  0.305521  -0.000124  0.935562  0.0  0.319384  0.290116  -0.00024  0.949045  0.0
H  H17  1  0.87427764  0.18697055  0.15069578  1  0.316497  0.000179  0.878943  0.0  0.296591  0.000172  0.94332  0.0  0.305503  0.000124  0.93557  0.0  0.319367  0.290098  0.00024  0.949058  0.0
H  H18  1  0.49756225  0.23492736  0.83356794  1  0.303573  8e-06  0.937918  0.0  0.279141  4e-06  1.006213  0.0  0.288974  4e-06  0.998499  0.0  0.302858  0.272196  0.0  1.011784  0.0
H  H19  1  0.50243609  0.76507184  0.16643144  1  0.303571  -7e-06  0.937937  0.0  0.279132  -4e-06  1.00623  0.0  0.288964  -4e-06  0.998517  0.0  0.30285  0.272184  0.0  1.011794  0.0
H  H20  1  0.62798876  0.40294341  0.04152027  1  0.334173  1.4e-05  0.924922  0.0  0.30546  7e-06  0.996318  0.0  0.317215  4e-06  0.986545  0.0  0.306185  0.297389  9e-06  1.002864  0.0
H  H21  1  0.37201014  0.59705708  0.95847945  1  0.334213  -1e-05  0.924876  0.0  0.305499  -6e-06  0.996261  0.0  0.317254  -4e-06  0.986488  0.0  0.306198  0.297424  -9e-06  1.00281  0.0
H  H22  1  0.61867416  0.26078664  0.22034194  1  0.42222  0.000159  0.881489  0.0  0.391628  0.000407  0.945579  0.0  0.403679  0.000258  0.928339  0.0  0.291707  0.38279  0.000533  0.958159  0.001
H  H23  1  0.38132551  0.73921256  0.77965765  1  0.422233  -0.000159  0.881464  0.0  0.391639  -0.000407  0.945558  0.0  0.403691  -0.000257  0.928316  0.0  0.291718  0.3828  -0.000533  0.958139  -0.001
H  H24  1  0.72227160  0.18266373  0.32152442  1  0.424812  -0.000133  0.858433  -0.001  0.393291  0.000221  0.937404  0.0  0.405506  7.2e-05  0.919545  0.0  0.29719  0.38447  0.000374  0.950177  0.0
H  H25  1  0.27772917  0.81733806  0.67847673  1  0.424906  0.000132  0.858366  0.001  0.39334  -0.000221  0.937347  0.0  0.405562  -7.2e-05  0.919484  0.0  0.297224  0.384518  -0.000374  0.950121  0.0
H  H26  1  0.83095331  0.61102564  0.71402021  1  0.39712  0.000192  0.906127  0.0  0.363194  0.000498  0.98879  0.0  0.374808  0.000335  0.972271  0.0  0.285456  0.354701  0.000649  1.000798  0.001
H  H27  1  0.16904824  0.38897484  0.28597905  1  0.397156  -0.000193  0.906107  0.0  0.363224  -0.000498  0.988754  0.0  0.374838  -0.000335  0.972233  0.0  0.285459  0.354733  -0.000648  1.000759  -0.001
H  H28  1  0.70166037  0.67517400  0.61930564  1  0.412792  -0.000146  0.883106  -0.001  0.388114  0.000256  0.946263  0.0  0.399701  0.00012  0.929687  0.0  0.291392  0.379529  0.000431  0.958548  0.0
H  H29  1  0.29834117  0.32482648  0.38069451  1  0.412753  0.000146  0.883155  0.001  0.388076  -0.000256  0.946319  0.0  0.399663  -0.00012  0.929742  0.0  0.291384  0.37949  -0.000431  0.958605  0.0
C  C30  1  0.86139399  0.64697936  0.11540075  1  0.63789  9.2e-05  3.826652  0.0  0.570802  7.3e-05  4.124826  0.0  0.601696  4.9e-05  4.127472  0.0  0.365573  0.550003  0.00011  4.12237  0.0
C  C31  1  0.13860435  0.35301985  0.88459951  1  0.637928  -9.6e-05  3.82652  0.0  0.570849  -7.2e-05  4.124664  0.0  0.601745  -5e-05  4.127307  0.0  0.365622  0.550047  -0.00011  4.122219  0.0
C  C32  1  0.98712274  0.71985250  0.96592683  1  0.611555  9.3e-05  3.852849  0.0  0.553325  9.3e-05  4.148347  0.0  0.58285  5.9e-05  4.152761  0.0  0.348742  0.533658  0.000137  4.144881  0.0
C  C33  1  0.01287769  0.28014541  0.03407352  1  0.611525  -0.000111  3.852951  0.0  0.553272  -9.2e-05  4.148454  0.0  0.582798  -5.9e-05  4.152869  0.0  0.348741  0.533608  -0.000137  4.14499  0.0
C  C34  1  0.72740660  0.46646405  0.89506350  1  0.641497  -3.2e-05  3.803811  0.0  0.570165  2e-06  4.105076  0.0  0.601085  7e-06  4.107593  0.0  0.362594  0.549303  -3e-06  4.103131  0.0
C  C35  1  0.27259174  0.53353515  0.10493588  1  0.641644  2.1e-05  3.803623  0.0  0.570161  -2e-06  4.105048  0.0  0.60108  -8e-06  4.107565  0.0  0.362604  0.549298  3e-06  4.103097  0.0
C  C36  1  0.98334131  0.82777989  0.34518011  1  -0.112623  -0.005594  3.636212  -0.007  -0.175067  -0.003066  3.891227  -0.004  -0.176112  -0.002067  3.897491  -0.003  -0.059614  -0.173815  -0.003632  3.887648  -0.005
C  C37  1  0.01665627  0.17222060  0.65481763  1  -0.112729  0.005557  3.636331  0.007  -0.175085  0.003065  3.891273  0.004  -0.176134  0.002066  3.897545  0.003  -0.059568  -0.17382  0.003631  3.887699  0.005
C  C38  1  0.08713789  0.78578131  0.45751094  1  0.671381  0.0004  3.814998  0.002  0.627569  0.001599  4.13201  0.003  0.663431  0.001158  4.124825  0.002  0.220821  0.601451  0.002403  4.135475  0.004
C  C39  1  0.91286101  0.21421920  0.54248966  1  0.671406  -0.000391  3.81504  -0.002  0.627579  -0.001598  4.132068  -0.003  0.663442  -0.001156  4.124882  -0.002  0.220821  0.601464  -0.002403  4.135526  -0.004
C  C40  1  0.25293474  0.99511517  0.04264836  1  -0.104064  -5.9e-05  3.684508  0.0  -0.166385  -8.1e-05  3.950139  0.0  -0.165317  -5.2e-05  3.95618  0.0  -0.063508  -0.167403  -8.6e-05  3.946173  0.0
C  C41  1  0.74706757  0.00488402  0.95735255  1  -0.104155  6.5e-05  3.684461  0.0  -0.166535  8.1e-05  3.950177  0.0  -0.165469  5.3e-05  3.956216  0.0  -0.063567  -0.167556  8.6e-05  3.946212  0.0
C  C42  1  0.36896548  0.12140827  0.99237236  1  0.67  3.6e-05  3.867882  0.0  0.612775  6.4e-05  4.188151  0.0  0.644376  4.1e-05  4.182499  0.0  0.208464  0.59139  8.1e-05  4.191488  0.0
C  C43  1  0.63103550  0.87859093  0.00762921  1  0.670076  -2.9e-05  3.867758  0.0  0.612869  -6.4e-05  4.188021  0.0  0.644474  -4.1e-05  4.182368  0.0  0.208521  0.591484  -8.1e-05  4.191361  0.0
C  C44  1  0.59112299  0.26554783  0.67408481  1  -0.111518  -0.005779  3.660146  -0.007  -0.174158  -0.003318  3.914862  -0.004  -0.17476  -0.002402  3.920568  -0.003  -0.058783  -0.173559  -0.004206  3.911679  -0.005
C  C45  1  0.40887668  0.73445136  0.32591390  1  -0.111573  0.005804  3.660183  0.008  -0.174242  0.003318  3.914913  0.004  -0.174844  0.0024  3.920616  0.003  -0.058786  -0.173643  0.004206  3.911728  0.005
C  C46  1  0.48344699  0.33717490  0.58563123  1  0.691395  0.004593  3.799398  0.007  0.649937  0.00442  4.105331  0.006  0.686905  0.003414  4.096399  0.005  0.226366  0.62328  0.005496  4.109922  0.007
C  C47  1  0.51655136  0.66282430  0.41436728  1  0.691539  -0.004604  3.799256  -0.007  0.650098  -0.00442  4.105175  -0.006  0.687067  -0.003413  4.096243  -0.005  0.226427  0.623442  -0.005496  4.109767  -0.007
N  N48  1  0.99585343  0.75828030  0.09057211  1  -0.590416  -0.000101  2.980602  0.0  -0.553609  -6.4e-05  3.270398  0.0  -0.576868  -4.4e-05  3.275758  0.0  -0.353382  -0.537641  -0.000106  3.266211  0.0
N  N49  1  0.00414492  0.24171890  0.90942727  1  -0.590409  0.000115  2.980647  0.0  -0.553611  6.4e-05  3.270444  0.0  -0.576869  4.3e-05  3.275801  0.0  -0.353386  -0.53764  0.000106  3.266261  0.0
N  N50  1  0.85556212  0.57701084  0.86445582  1  -0.608452  0.000231  2.997088  0.0  -0.55289  0.000236  3.268976  0.0  -0.577042  0.000146  3.272939  0.0  -0.344941  -0.537131  0.000365  3.266755  0.0
N  N51  1  0.14443886  0.42298835  0.13554399  1  -0.60848  -0.000208  2.997057  0.0  -0.55287  -0.000236  3.268993  0.0  -0.577021  -0.000147  3.272957  0.0  -0.344946  -0.537113  -0.000365  3.266774  0.0
N  N52  1  0.72708563  0.49803254  0.01966775  1  -0.529526  -3e-05  3.263513  0.0  -0.466868  4e-06  3.519052  0.0  -0.490756  5e-06  3.520815  0.0  -0.382446  -0.450721  1e-06  3.517424  0.0
N  N53  1  0.27291459  0.50196795  0.98033307  1  -0.529605  1.6e-05  3.263389  0.0  -0.466884  -4e-06  3.518936  0.0  -0.49077  -4e-06  3.520696  0.0  -0.382453  -0.450736  -1e-06  3.517314  0.0
N  N54  1  0.85254646  0.67662625  0.23434286  1  -0.385131  -0.000202  3.316953  0.0  -0.325558  -0.000283  3.572656  0.0  -0.344452  -0.000233  3.579578  0.0  -0.409566  -0.312397  -0.000284  3.567201  0.0
N  N55  1  0.14745243  0.32337426  0.76565774  1  -0.385165  0.000207  3.316875  0.0  -0.325581  0.000283  3.572591  0.0  -0.344477  0.000233  3.579516  0.0  -0.40962  -0.31242  0.000284  3.567138  0.0
N  N56  1  0.11783243  0.83577277  0.94057109  1  -0.392956  -0.00013  3.298618  0.0  -0.332156  -9.9e-05  3.54957  0.0  -0.352131  -6.2e-05  3.5566  0.0  -0.407546  -0.318632  -9.3e-05  3.544117  0.0
N  N57  1  0.88216877  0.16422384  0.05942914  1  -0.392952  0.000132  3.298658  0.0  -0.332053  9.8e-05  3.549568  0.0  -0.352029  6.3e-05  3.556603  0.0  -0.4075  -0.318528  9.3e-05  3.544114  0.0
N  N58  1  0.59438352  0.31915525  0.80589775  1  -0.401185  3.6e-05  3.312084  0.0  -0.341045  -9.9e-05  3.57175  0.0  -0.360659  -7.1e-05  3.578012  0.0  -0.411453  -0.327916  -0.000158  3.567461  0.0
N  N59  1  0.40561538  0.68084524  0.19410109  1  -0.401268  -3.8e-05  3.312059  0.0  -0.341039  9.9e-05  3.571729  0.0  -0.360652  7e-05  3.577991  0.0  -0.411473  -0.32791  0.000158  3.567433  0.0
O  O60  1  0.03908395  0.62260214  0.44404331  1  -0.651512  -0.018854  2.171988  -0.032  -0.636211  -0.010237  2.482291  -0.019  -0.681607  -0.007548  2.473351  -0.015  -0.320925  -0.597491  -0.011962  2.486713  -0.021
O  O61  1  0.96091494  0.37739836  0.55595641  1  -0.651505  0.018853  2.171955  0.032  -0.636199  0.010238  2.482258  0.019  -0.681598  0.007548  2.473317  0.015  -0.320929  -0.597478  0.011961  2.486677  0.021
O  O62  1  0.21403179  0.90788222  0.55324785  1  -0.574384  0.011992  1.950166  0.018  -0.529384  0.006848  2.170314  0.011  -0.555031  0.004725  2.161981  0.008  -0.29208  -0.510355  0.009089  2.175748  0.014
O  O63  1  0.78596766  0.09211956  0.44675133  1  -0.574352  -0.011995  1.950163  -0.018  -0.529367  -0.006847  2.170329  -0.011  -0.555007  -0.004724  2.161985  -0.008  -0.292074  -0.510353  -0.009089  2.175783  -0.014
O  O64  1  0.48949232  0.26442029  0.08129751  1  -0.645479  0.000311  2.00868  0.001  -0.581107  0.000135  2.235134  0.0  -0.607525  5.9e-05  2.226821  0.0  -0.326177  -0.562882  0.000192  2.240523  0.0
O  O65  1  0.51050734  0.73557893  0.91870473  1  -0.6455  -0.000314  2.00864  -0.001  -0.581131  -0.000136  2.235105  0.0  -0.60754  -5.9e-05  2.226766  0.0  -0.326188  -0.5629  -0.000192  2.240491  0.0
O  O66  1  0.34420918  0.08230985  0.87338428  1  -0.600201  -0.00059  1.953889  -0.001  -0.540621  -0.00053  2.171448  -0.001  -0.563809  -0.00036  2.164279  0.0  -0.309936  -0.524642  -0.000644  2.176163  -0.001
O  O67  1  0.65579312  0.91768934  0.12661751  1  -0.600227  0.000587  1.953866  0.001  -0.540663  0.00053  2.171441  0.001  -0.563854  0.00036  2.164269  0.0  -0.309958  -0.524682  0.000644  2.176152  0.001
O  O68  1  0.50343748  0.31433901  0.47466826  1  -0.647611  0.027346  2.04874  0.043  -0.613011  0.018365  2.298177  0.028  -0.645564  0.013973  2.286447  0.021  -0.314237  -0.587027  0.022775  2.305889  0.034
O  O69  1  0.49656218  0.68566019  0.52533134  1  -0.647724  -0.027347  2.048631  -0.043  -0.61313  -0.018367  2.298076  -0.028  -0.645683  -0.013975  2.286341  -0.021  -0.314316  -0.587153  -0.022778  2.305792  -0.034
O  O70  1  0.37841654  0.41118370  0.62601069  1  -0.603624  -0.033432  2.1173  -0.055  -0.565854  -0.021224  2.379006  -0.035  -0.602133  -0.017132  2.369413  -0.029  -0.29671  -0.537152  -0.024036  2.385039  -0.04
O  O71  1  0.62158180  0.58881551  0.37398869  1  -0.603607  0.033434  2.117343  0.055  -0.565889  0.021224  2.37908  0.035  -0.602169  0.017132  2.369489  0.029  -0.296702  -0.537181  0.024036  2.38511  0.04
O  O72  1  0.73260625  0.28565204  0.29570412  1  -0.802948  0.04399  1.985455  0.069  -0.778117  0.029503  2.214218  0.047  -0.806763  0.023347  2.176909  0.038  -0.571386  -0.75467  0.034531  2.240763  0.053
O  O73  1  0.26739530  0.71434843  0.70429427  1  -0.80307  -0.043987  1.985429  -0.069  -0.778184  -0.029503  2.21425  -0.047  -0.806846  -0.023349  2.176903  -0.038  -0.571435  -0.754738  -0.034532  2.240778  -0.053
O  O74  1  0.82222216  0.65261389  0.63875677  1  -0.792523  0.041397  1.949565  0.065  -0.76293  0.028391  2.162068  0.044  -0.791112  0.022416  2.127761  0.036  -0.573149  -0.740229  0.033021  2.187656  0.05
O  O75  1  0.17778071  0.34738658  0.36124183  1  -0.792535  -0.041397  1.949596  -0.065  -0.762924  -0.02839  2.162068  -0.044  -0.791108  -0.022418  2.127757  -0.036  -0.57315  -0.740225  -0.03302  2.187655  -0.05
