# generated using pymatgen
data_AgH13C10(SO)2
_symmetry_space_group_name_H-M   'P 1'
_cell_length_a   6.76982776
_cell_length_b   7.55936166
_cell_length_c   12.24181249
_cell_angle_alpha   78.52000488
_cell_angle_beta   87.56484162
_cell_angle_gamma   74.58973962
_symmetry_Int_Tables_number   1
_chemical_formula_structural   AgH13C10(SO)2
_chemical_formula_sum   'Ag2 H26 C20 S4 O4'
_cell_volume   591.83994454
_cell_formula_units_Z   2
loop_
 _symmetry_equiv_pos_site_id
 _symmetry_equiv_pos_as_xyz
  1  'x, y, z'
loop_
 _atom_site_type_symbol
 _atom_site_label
 _atom_site_symmetry_multiplicity
 _atom_site_fract_x
 _atom_site_fract_y
 _atom_site_fract_z
 _atom_site_occupancy
 _atom_site_hle17_bader_spin_density
 _atom_site_hle17_ddec_charge
 _atom_site_hle17_ddec_spin_density
 _atom_site_hle17_ddec_sum_bond_order
 _atom_site_hle17_magmom
 _atom_site_hse06_10hf_bader_spin_density
 _atom_site_hse06_10hf_ddec_charge
 _atom_site_hse06_10hf_ddec_spin_density
 _atom_site_hse06_10hf_ddec_sum_bond_order
 _atom_site_hse06_10hf_magmom
 _atom_site_hse06_bader_spin_density
 _atom_site_hse06_ddec_charge
 _atom_site_hse06_ddec_spin_density
 _atom_site_hse06_ddec_sum_bond_order
 _atom_site_hse06_magmom
 _atom_site_pbe_bader_spin_density
 _atom_site_pbe_cm5_charge
 _atom_site_pbe_ddec_charge
 _atom_site_pbe_ddec_spin_density
 _atom_site_pbe_ddec_sum_bond_order
 _atom_site_pbe_magmom
Ag  Ag0  1  0.42541933  0.33855251  0.53851450  1  0  0.391871  0  1.670992  0  0  0.283959  0  2.14392  0  0  0.312013  0  2.094003  0  0  0.361548  0.263571  0  2.180178  0
Ag  Ag1  1  0.57458210  0.66143064  0.46148795  1  0  0.391841  0  1.671025  0  0  0.28393  0  2.143974  0  0  0.311978  0  2.094053  0  0  0.361519  0.263539  0  2.180226  0
H  H2  1  0.93218596  0.30347349  0.51173895  1  0  0.132494  0  0.963327  0  0  0.145742  0  1.024654  0  0  0.147648  0  1.023803  0  0  0.104405  0.144531  0  1.025118  0
H  H3  1  0.06781815  0.69652084  0.48826698  1  0  0.132487  0  0.963208  0  0  0.145741  0  1.024538  0  0  0.147647  0  1.023689  0  0  0.104404  0.144528  0  1.025  0
H  H4  1  0.92067567  0.42468394  0.62475104  1  0  0.139077  0  0.921599  0  0  0.155356  0  0.975792  0  0  0.157426  0  0.974309  0  0  0.109782  0.154057  0  0.976798  0
H  H5  1  0.07932927  0.57530758  0.37525766  1  0  0.139179  0  0.921556  0  0  0.155422  0  0.97577  0  0  0.157493  0  0.974287  0  0  0.109838  0.154122  0  0.976774  0
H  H6  1  0.35351000  0.28325022  0.17173584  1  0  0.093206  0  0.956161  0  0  0.105246  0  1.015353  0  0  0.108184  0  1.013629  0  0  0.100488  0.103101  0  1.016672  0
H  H7  1  0.64648547  0.71674835  0.82825917  1  0  0.093188  0  0.956155  0  0  0.105209  0  1.015362  0  0  0.108146  0  1.013641  0  0  0.100481  0.103053  0  1.016694  0
H  H8  1  0.95306840  0.36764921  0.18520872  1  0  0.092591  0  0.959428  0  0  0.104911  0  1.018777  0  0  0.108335  0  1.016124  0  0  0.101005  0.102416  0  1.020805  0
H  H9  1  0.04691588  0.63236752  0.81478518  1  0  0.092722  0  0.959392  0  0  0.104975  0  1.0188  0  0  0.108396  0  1.016154  0  0  0.101032  0.102478  0  1.020825  0
H  H10  1  0.81469358  0.98887005  0.53454623  1  0  0.115135  0  0.987138  0  0  0.134047  0  1.052044  0  0  0.135163  0  1.052734  0  0  0.084153  0.133343  0  1.051417  0
H  H11  1  0.18532358  0.01112009  0.46546316  1  0  0.115239  0  0.987136  0  0  0.134193  0  1.051967  0  0  0.135311  0  1.052656  0  0  0.084249  0.133489  0  1.051338  0
H  H12  1  0.69138105  0.89390133  0.65496343  1  0  0.143737  0  0.972117  0  0  0.159814  0  1.036063  0  0  0.162449  0  1.034513  0  0  0.094751  0.157635  0  1.037888  0
H  H13  1  0.30862697  0.10608462  0.34504015  1  0  0.143714  0  0.972259  0  0  0.159849  0  1.036134  0  0  0.162481  0  1.034587  0  0  0.094747  0.157671  0  1.037958  0
H  H14  1  0.95918731  0.88019477  0.66153152  1  0  0.127358  0  0.986729  0  0  0.139505  0  1.056088  0  0  0.141156  0  1.056899  0  0  0.087004  0.138287  0  1.055591  0
H  H15  1  0.04081520  0.11980514  0.33847622  1  0  0.127452  0  0.986616  0  0  0.139615  0  1.055983  0  0  0.141268  0  1.056788  0  0  0.087052  0.138398  0  1.055487  0
H  H16  1  0.02358781  0.30118503  0.99357934  1  0  0.082004  0  0.963422  0  0  0.095459  0  1.021496  0  0  0.097691  0  1.02159  0  0  0.095744  0.093859  0  1.021525  0
H  H17  1  0.97640276  0.69884573  0.00641271  1  0  0.082016  0  0.963371  0  0  0.095425  0  1.021491  0  0  0.097705  0  1.021529  0  0  0.095716  0.093828  0  1.021516  0
H  H18  1  0.75633199  0.22245253  0.89127070  1  0  0.069613  0  1.001208  0  0  0.071644  0  1.07953  0  0  0.074744  0  1.078031  0  0  0.085119  0.069514  0  1.080421  0
H  H19  1  0.24366482  0.77755163  0.10872523  1  0  0.06955  0  1.001238  0  0  0.071613  0  1.079523  0  0  0.074729  0  1.078015  0  0  0.085087  0.069483  0  1.080415  0
H  H20  1  0.42144978  0.21444296  0.98056286  1  0  0.080092  0  0.962932  0  0  0.093332  0  1.022346  0  0  0.09558  0  1.022229  0  0  0.095782  0.091767  0  1.022476  0
H  H21  1  0.57854944  0.78556820  0.01943380  1  0  0.080081  0  0.962939  0  0  0.093347  0  1.022311  0  0  0.095597  0  1.022194  0  0  0.095775  0.091782  0  1.022443  0
H  H22  1  0.18149704  0.32666878  0.78417041  1  0  0.133714  0  0.966956  0  0  0.150114  0  1.030992  0  0  0.151733  0  1.030962  0  0  0.09607  0.14903  0  1.030953  0
H  H23  1  0.81850534  0.67332135  0.21583444  1  0  0.133674  0  0.966922  0  0  0.150097  0  1.030932  0  0  0.151715  0  1.030903  0  0  0.096047  0.149012  0  1.030894  0
H  H24  1  0.37201073  0.10683704  0.81259063  1  0  0.124496  0  0.962666  0  0  0.145267  0  1.022376  0  0  0.14607  0  1.023389  0  0  0.095406  0.144462  0  1.022323  0
H  H25  1  0.62799715  0.89315450  0.18741472  1  0  0.124501  0  0.962583  0  0  0.145236  0  1.022309  0  0  0.14604  0  1.023321  0  0  0.095412  0.144432  0  1.022256  0
H  H26  1  0.10971640  0.10956804  0.83644169  1  0  0.12337  0  0.963743  0  0  0.141447  0  1.026593  0  0  0.142211  0  1.028326  0  0  0.092505  0.140793  0  1.02567  0
H  H27  1  0.89029497  0.89041653  0.16356034  1  0  0.123382  0  0.963786  0  0  0.14145  0  1.026638  0  0  0.142211  0  1.028375  0  0  0.092539  0.140796  0  1.025716  0
C  C28  1  0.65001655  0.32734478  0.19076296  1  0  -0.069942  0  3.765271  0  0  -0.043508  0  3.995096  0  0  -0.052262  0  4.019672  0  0  -0.023332  -0.037863  0  3.978498  0
C  C29  1  0.34999545  0.67265800  0.80923522  1  0  -0.069732  0  3.765032  0  0  -0.04327  0  3.99477  0  0  -0.052021  0  4.019342  0  0  -0.023207  -0.037628  0  3.978171  0
C  C30  1  0.94593926  0.28665197  0.60255612  1  0  -0.226323  0  3.608468  0  0  -0.260294  0  3.875457  0  0  -0.258871  0  3.883249  0  0  -0.146496  -0.261874  0  3.87123  0
C  C31  1  0.05406418  0.71333957  0.39744853  1  0  -0.226436  0  3.608307  0  0  -0.260399  0  3.875365  0  0  -0.258978  0  3.883154  0  0  -0.146542  -0.261968  0  3.87112  0
C  C32  1  0.61064333  0.36554428  0.30696446  1  0  0.61401  0  3.957328  0  0  0.559701  0  4.255423  0  0  0.594592  0  4.250092  0  0  0.186458  0.536062  0  4.257839  0
C  C33  1  0.38934067  0.63446830  0.69302341  1  0  0.614179  0  3.95741  0  0  0.559883  0  4.255489  0  0  0.59477  0  4.250156  0  0  0.18641  0.536246  0  4.257905  0
C  C34  1  0.50034986  0.28508103  0.13218000  1  0  -0.072225  0  3.741296  0  0  -0.093805  0  3.983442  0  0  -0.093468  0  4.004258  0  0  -0.086109  -0.093735  0  3.969206  0
C  C35  1  0.49963791  0.71492875  0.86780893  1  0  -0.072286  0  3.741532  0  0  -0.093863  0  3.983711  0  0  -0.093525  0  4.004524  0  0  -0.086181  -0.09378  0  3.969478  0
C  C36  1  0.83815026  0.33312142  0.13953901  1  0  -0.082278  0  3.75494  0  0  -0.105755  0  4.001254  0  0  -0.105647  0  4.021915  0  0  -0.088261  -0.105644  0  3.987261  0
C  C37  1  0.16183067  0.66689670  0.86045562  1  0  -0.08256  0  3.754765  0  0  -0.105979  0  4.001073  0  0  -0.105877  0  4.021749  0  0  -0.088256  -0.105863  0  3.987078  0
C  C38  1  0.81055020  0.96584360  0.62581853  1  0  -0.35347  0  3.638589  0  0  -0.424665  0  3.88893  0  0  -0.426729  0  3.896049  0  0  -0.24459  -0.423214  0  3.884923  0
C  C39  1  0.18945943  0.03415212  0.37418954  1  0  -0.353696  0  3.638853  0  0  -0.424984  0  3.889163  0  0  -0.427045  0  3.89627  0  0  -0.244729  -0.423535  0  3.885159  0
C  C40  1  0.87699019  0.29504816  0.03261403  1  0  -0.086468  0  3.779953  0  0  -0.095728  0  4.024011  0  0  -0.099591  0  4.046851  0  0  -0.097668  -0.093114  0  4.00838  0
C  C41  1  0.12301189  0.70495317  0.96738947  1  0  -0.086451  0  3.780587  0  0  -0.095666  0  4.02463  0  0  -0.099566  0  4.047466  0  0  -0.097761  -0.093055  0  4.008999  0
C  C42  1  0.72759279  0.25130976  0.97523651  1  0  -0.058711  0  3.767015  0  0  -0.071027  0  4.012672  0  0  -0.071554  0  4.033639  0  0  -0.092126  -0.070372  0  3.998126  0
C  C43  1  0.27238761  0.74869999  0.02475505  1  0  -0.058662  0  3.767204  0  0  -0.071003  0  4.012853  0  0  -0.071553  0  4.03383  0  0  -0.092024  -0.070346  0  3.998308  0
C  C44  1  0.53915577  0.24680979  0.02536394  1  0  -0.077423  0  3.778154  0  0  -0.087089  0  4.022266  0  0  -0.090782  0  4.045165  0  0  -0.093492  -0.084601  0  4.006521  0
C  C45  1  0.46085612  0.75318318  0.97463624  1  0  -0.077403  0  3.777521  0  0  -0.08708  0  4.021646  0  0  -0.090773  0  4.044544  0  0  -0.093472  -0.084592  0  4.005899  0
C  C46  1  0.21458426  0.17681621  0.78369071  1  0  -0.341  0  3.636703  0  0  -0.418448  0  3.889275  0  0  -0.419876  0  3.898302  0  0  -0.235824  -0.417764  0  3.884272  0
C  C47  1  0.78542294  0.82317254  0.21631174  1  0  -0.340983  0  3.636501  0  0  -0.418386  0  3.889074  0  0  -0.419814  0  3.898102  0  0  -0.235806  -0.417705  0  3.884073  0
S  S48  1  0.74290894  0.18882962  0.66851807  1  0  0.072041  0  2.624078  0  0  0.109522  0  3.016429  0  0  0.103644  0  3.010733  0  0  -0.009228  0.113823  0  3.023207  0
S  S49  1  0.25709569  0.81117311  0.33148601  1  0  0.072097  0  2.624097  0  0  0.109582  0  3.016485  0  0  0.103706  0  3.010791  0  0  -0.009232  0.113881  0  3.023259  0
S  S50  1  0.20082982  0.14416966  0.64276894  1  0  0.092377  0  2.705545  0  0  0.127645  0  3.121813  0  0  0.120838  0  3.117033  0  0  -0.003245  0.13302  0  3.127933  0
S  S51  1  0.79917807  0.85582187  0.35723723  1  0  0.092388  0  2.705486  0  0  0.127673  0  3.12172  0  0  0.120868  0  3.116937  0  0  -0.003275  0.133044  0  3.127836  0
O  O52  1  0.43859647  0.35073715  0.35014350  1  0  -0.623323  0  2.06799  0  0  -0.551307  0  2.32998  0  0  -0.58177  0  2.320055  0  0  -0.337249  -0.529641  0  2.335531  0
O  O53  1  0.56139200  0.64927537  0.64985489  1  0  -0.623466  0  2.068115  0  0  -0.551449  0  2.330098  0  0  -0.581914  0  2.320168  0  0  -0.337309  -0.529781  0  2.335644  0
O  O54  1  0.74818911  0.41108981  0.35417478  1  0  -0.635997  0  2.020068  0  0  -0.571103  0  2.270328  0  0  -0.598945  0  2.260997  0  0  -0.332588  -0.551467  0  2.275814  0
O  O55  1  0.25181199  0.58891995  0.64582119  1  0  -0.636039  0  2.020334  0  0  -0.571142  0  2.270543  0  0  -0.598975  0  2.26121  0  0  -0.332525  -0.551511  0  2.27603  0
