# generated using pymatgen
data_CaP2H28C34(NO4)2
_symmetry_space_group_name_H-M   'P 1'
_cell_length_a   5.63672154
_cell_length_b   12.08897058
_cell_length_c   12.42403543
_cell_angle_alpha   109.57371276
_cell_angle_beta   103.08605513
_cell_angle_gamma   89.98744611
_symmetry_Int_Tables_number   1
_chemical_formula_structural   CaP2H28C34(NO4)2
_chemical_formula_sum   'Ca1 P2 H28 C34 N2 O8'
_cell_volume   774.31882729
_cell_formula_units_Z   1
loop_
 _symmetry_equiv_pos_site_id
 _symmetry_equiv_pos_as_xyz
  1  'x, y, z'
loop_
 _atom_site_type_symbol
 _atom_site_label
 _atom_site_symmetry_multiplicity
 _atom_site_fract_x
 _atom_site_fract_y
 _atom_site_fract_z
 _atom_site_occupancy
 _atom_site_hle17_bader_spin_density
 _atom_site_hle17_ddec_charge
 _atom_site_hle17_ddec_spin_density
 _atom_site_hle17_ddec_sum_bond_order
 _atom_site_hle17_magmom
 _atom_site_hse06_10hf_bader_spin_density
 _atom_site_hse06_10hf_ddec_charge
 _atom_site_hse06_10hf_ddec_spin_density
 _atom_site_hse06_10hf_ddec_sum_bond_order
 _atom_site_hse06_10hf_magmom
 _atom_site_hse06_bader_spin_density
 _atom_site_hse06_ddec_charge
 _atom_site_hse06_ddec_spin_density
 _atom_site_hse06_ddec_sum_bond_order
 _atom_site_hse06_magmom
 _atom_site_pbe_bader_spin_density
 _atom_site_pbe_cm5_charge
 _atom_site_pbe_ddec_charge
 _atom_site_pbe_ddec_spin_density
 _atom_site_pbe_ddec_sum_bond_order
 _atom_site_pbe_magmom
Ca  Ca0  1  0.66367988  0.99993132  0.00004775  1  0  1.55871  0  1.187212  0  0  1.415749  0  1.560831  0  0  1.455472  0  1.519335  0  0  0.957058  1.385994  0  1.590226  0
P  P1  1  0.28256650  0.10642252  0.20252629  1  0  1.675219  0  4.868028  0  0  1.489368  0  5.397931  0  0  1.550115  0  5.341291  0  0  0.469282  1.446881  0  5.436421  0
P  P2  1  0.08070859  0.89345861  0.79750630  1  0  1.675448  0  4.8656  0  0  1.489666  0  5.395924  0  0  1.550339  0  5.33946  0  0  0.469277  1.447242  0  5.434222  0
H  H3  1  0.66510177  0.00926678  0.43534251  1  0  0.111661  0  0.966037  0  0  0.12088  0  1.029329  0  0  0.123095  0  1.030205  0  0  0.103695  0.119256  0  1.028878  0
H  H4  1  0.22984075  0.99156102  0.56516581  1  0  0.111173  0  0.965931  0  0  0.120988  0  1.028528  0  0  0.123174  0  1.02936  0  0  0.10379  0.119324  0  1.028174  0
H  H5  1  0.65557075  0.81315222  0.46036970  1  0  0.09415  0  0.955091  0  0  0.103936  0  1.016785  0  0  0.106748  0  1.015407  0  0  0.100434  0.101837  0  1.017926  0
H  H6  1  0.19368684  0.18765175  0.54017518  1  0  0.094501  0  0.956379  0  0  0.104129  0  1.018086  0  0  0.10701  0  1.016604  0  0  0.100503  0.102036  0  1.019231  0
H  H7  1  0.27310087  0.67856471  0.37472316  1  0  0.08386  0  0.973018  0  0  0.095473  0  1.035891  0  0  0.097987  0  1.035351  0  0  0.095514  0.093679  0  1.036342  0
H  H8  1  0.89561112  0.32163995  0.62573322  1  0  0.082796  0  0.97455  0  0  0.094611  0  1.037181  0  0  0.097038  0  1.036705  0  0  0.095034  0.092874  0  1.037564  0
H  H9  1  0.89865739  0.74355796  0.26803912  1  0  0.079306  0  0.964914  0  0  0.089817  0  1.027173  0  0  0.09219  0  1.026953  0  0  0.094688  0.088083  0  1.027424  0
H  H10  1  0.62851133  0.25614694  0.73242493  1  0  0.079308  0  0.963544  0  0  0.089949  0  1.025793  0  0  0.092331  0  1.025662  0  0  0.094726  0.088141  0  1.026069  0
H  H11  1  0.90773258  0.94226724  0.24915117  1  0  0.125258  0  0.948262  0  0  0.13412  0  1.010154  0  0  0.137842  0  1.008225  0  0  0.116899  0.131439  0  1.011632  0
H  H12  1  0.65793382  0.05741193  0.75121060  1  0  0.12671  0  0.947002  0  0  0.135676  0  1.008842  0  0  0.139326  0  1.006987  0  0  0.117815  0.133041  0  1.010272  0
H  H13  1  0.77367060  0.19005622  0.33653324  1  0  0.124434  0  0.947625  0  0  0.133945  0  1.00787  0  0  0.137754  0  1.0055  0  0  0.112465  0.131166  0  1.009759  0
H  H14  1  0.43727614  0.80990027  0.66322937  1  0  0.124396  0  0.948016  0  0  0.133746  0  1.008257  0  0  0.137619  0  1.005768  0  0  0.11225  0.130911  0  1.010213  0
H  H15  1  0.13940524  0.33272608  0.43143361  1  0  0.089569  0  0.954366  0  0  0.099441  0  1.016099  0  0  0.101978  0  1.014916  0  0  0.099806  0.097592  0  1.017056  0
H  H16  1  0.70832977  0.66734199  0.56808399  1  0  0.089109  0  0.954793  0  0  0.09928  0  1.016269  0  0  0.101815  0  1.015088  0  0  0.09928  0.097434  0  1.017232  0
H  H17  1  0.12108709  0.53934730  0.43757571  1  0  0.082314  0  0.988186  0  0  0.091695  0  1.054941  0  0  0.093381  0  1.056356  0  0  0.092617  0.090473  0  1.054077  0
H  H18  1  0.68407601  0.46062539  0.56160138  1  0  0.082691  0  0.98858  0  0  0.091534  0  1.055999  0  0  0.093286  0  1.057293  0  0  0.092605  0.090272  0  1.055208  0
H  H19  1  0.73025097  0.60355898  0.34218256  1  0  0.0777  0  0.965389  0  0  0.090671  0  1.02478  0  0  0.09307  0  1.023661  0  0  0.095415  0.088945  0  1.025622  0
H  H20  1  0.38883709  0.39618353  0.65701664  1  0  0.077842  0  0.96463  0  0  0.090873  0  1.023906  0  0  0.093257  0  1.022806  0  0  0.095467  0.089144  0  1.024744  0
H  H21  1  0.36000675  0.46058420  0.24971974  1  0  0.10064  0  0.949992  0  0  0.112869  0  1.011169  0  0  0.116227  0  1.009497  0  0  0.099568  0.110439  0  1.012499  0
H  H22  1  0.11091652  0.53908738  0.74980085  1  0  0.10079  0  0.950875  0  0  0.113441  0  1.011555  0  0  0.116687  0  1.010013  0  0  0.099976  0.111059  0  1.012816  0
H  H23  1  0.33003103  0.82387589  0.09431513  1  0  0.080738  0  0.946112  0  0  0.087212  0  1.012817  0  0  0.089424  0  1.011461  0  0  0.122364  0.085508  0  1.013915  0
H  H24  1  0.23599414  0.17612798  0.90611355  1  0  0.080126  0  0.945632  0  0  0.086439  0  1.012649  0  0  0.088563  0  1.011447  0  0  0.122821  0.084816  0  1.013669  0
H  H25  1  0.28715314  0.61758933  0.09268230  1  0  0.101103  0  0.959635  0  0  0.110376  0  1.023883  0  0  0.113281  0  1.023884  0  0  0.102824  0.108316  0  1.023992  0
H  H26  1  0.19453584  0.38229450  0.90746821  1  0  0.101404  0  0.959488  0  0  0.110185  0  1.023961  0  0  0.113032  0  1.02397  0  0  0.103372  0.108142  0  1.024121  0
H  H27  1  0.86241057  0.53870831  0.90654659  1  0  0.097812  0  0.95467  0  0  0.109358  0  1.015509  0  0  0.112469  0  1.014622  0  0  0.103745  0.107148  0  1.016264  0
H  H28  1  0.95580187  0.46113284  0.09309227  1  0  0.09865  0  0.952867  0  0  0.109682  0  1.014501  0  0  0.112802  0  1.013602  0  0  0.104001  0.107466  0  1.015252  0
H  H29  1  0.87304767  0.74683923  0.91113824  1  0  0.087376  0  0.968888  0  0  0.090836  0  1.038594  0  0  0.094085  0  1.035609  0  0  0.123587  0.088465  0  1.040706  0
H  H30  1  0.96198865  0.25313934  0.08888530  1  0  0.087531  0  0.968469  0  0  0.091577  0  1.037565  0  0  0.094861  0  1.034604  0  0  0.123888  0.08911  0  1.039778  0
C  C31  1  0.28866719  0.98506996  0.34000980  1  0  0.300124  0  3.78439  0  0  0.296426  0  4.036535  0  0  0.3048  0  4.053051  0  0  0.089369  0.29053  0  4.025446  0
C  C32  1  0.94838309  0.01513123  0.66035047  1  0  0.300175  0  3.784929  0  0  0.296608  0  4.036934  0  0  0.304996  0  4.053381  0  0  0.089143  0.290682  0  4.025891  0
C  C33  1  0.49925651  0.94983237  0.39908328  1  0  -0.169542  0  3.726652  0  0  -0.191423  0  3.974165  0  0  -0.195513  0  3.994813  0  0  -0.096593  -0.1886  0  3.960252  0
C  C34  1  0.09968051  0.05072905  0.60136731  1  0  -0.167973  0  3.725568  0  0  -0.19025  0  3.972647  0  0  -0.194254  0  3.993366  0  0  -0.095866  -0.187443  0  3.958745  0
C  C35  1  0.49225391  0.83943485  0.41177783  1  0  -0.060383  0  3.779051  0  0  -0.072412  0  4.030649  0  0  -0.073561  0  4.052018  0  0  -0.093001  -0.071467  0  4.016093  0
C  C36  1  0.07914397  0.16110693  0.58870894  1  0  -0.061152  0  3.78095  0  0  -0.073019  0  4.032757  0  0  -0.074204  0  4.054029  0  0  -0.093209  -0.072091  0  4.018235  0
C  C37  1  0.27750196  0.76436979  0.36400029  1  0  -0.102156  0  3.795418  0  0  -0.118208  0  4.044246  0  0  -0.121061  0  4.066121  0  0  -0.104966  -0.116219  0  4.029267  0
C  C38  1  0.91146242  0.23586219  0.63649048  1  0  -0.101244  0  3.798229  0  0  -0.117442  0  4.046793  0  0  -0.120202  0  4.068735  0  0  -0.104241  -0.115508  0  4.031772  0
C  C39  1  0.06804405  0.80085087  0.30458029  1  0  -0.059061  0  3.799447  0  0  -0.068922  0  4.046067  0  0  -0.069849  0  4.067829  0  0  -0.09542  -0.068129  0  4.031164  0
C  C40  1  0.76180970  0.19908883  0.69586237  1  0  -0.057933  0  3.797739  0  0  -0.067883  0  4.044404  0  0  -0.068881  0  4.066153  0  0  -0.095702  -0.06699  0  4.02953  0
C  C41  1  0.07133237  0.91189052  0.29294294  1  0  -0.188613  0  3.735699  0  0  -0.20972  0  3.984322  0  0  -0.214104  0  4.003882  0  0  -0.094805  -0.206696  0  3.971156  0
C  C42  1  0.77755523  0.08799561  0.70744760  1  0  -0.192069  0  3.733648  0  0  -0.213627  0  3.982775  0  0  -0.21794  0  4.002364  0  0  -0.096499  -0.210661  0  3.969584  0
C  C43  1  0.54548649  0.31863402  0.28912295  1  0  0.325214  0  3.775213  0  0  0.314885  0  4.031585  0  0  0.325597  0  4.047984  0  0  0.092743  0.307444  0  4.020525  0
C  C44  1  0.25679279  0.68119679  0.71054279  1  0  0.323407  0  3.776121  0  0  0.313001  0  4.032601  0  0  0.323697  0  4.049042  0  0  0.092242  0.305593  0  4.021478  0
C  C45  1  0.76336965  0.28091465  0.33967913  1  0  -0.193764  0  3.72203  0  0  -0.215294  0  3.974842  0  0  -0.220096  0  3.993103  0  0  -0.096976  -0.212096  0  3.962702  0
C  C46  1  0.42404858  0.71901279  0.66001259  1  0  -0.193634  0  3.723037  0  0  -0.214931  0  3.975835  0  0  -0.21974  0  3.99403  0  0  -0.096879  -0.211697  0  3.963705  0
C  C47  1  0.96878420  0.36155040  0.39224812  1  0  -0.034252  0  3.771969  0  0  -0.048745  0  4.026672  0  0  -0.048023  0  4.046451  0  0  -0.089196  -0.049124  0  4.013252  0
C  C48  1  0.57695629  0.63843470  0.60726233  1  0  -0.033976  0  3.772808  0  0  -0.048726  0  4.027395  0  0  -0.048016  0  4.047219  0  0  -0.088792  -0.049112  0  4.013951  0
C  C49  1  0.95937162  0.47757919  0.39409305  1  0  -0.104828  0  3.788025  0  0  -0.121279  0  4.038366  0  0  -0.124766  0  4.060927  0  0  -0.105679  -0.118936  0  4.02305  0
C  C50  1  0.56580726  0.52233834  0.60523840  1  0  -0.104913  0  3.788504  0  0  -0.121084  0  4.039251  0  0  -0.124605  0  4.061809  0  0  -0.106051  -0.118717  0  4.023936  0
C  C51  1  0.74089038  0.51331311  0.34168763  1  0  -0.064671  0  3.822284  0  0  -0.074095  0  4.068364  0  0  -0.074536  0  4.089833  0  0  -0.097433  -0.073596  0  4.053598  0
C  C52  1  0.39980248  0.48650145  0.65762201  1  0  -0.065632  0  3.820062  0  0  -0.075054  0  4.066181  0  0  -0.07547  0  4.087617  0  0  -0.098139  -0.074563  0  4.051437  0
C  C53  1  0.53333089  0.43428883  0.28962796  1  0  -0.186357  0  3.75517  0  0  -0.208727  0  4.009175  0  0  -0.214007  0  4.030007  0  0  -0.106312  -0.205099  0  3.995059  0
C  C54  1  0.24423597  0.56548321  0.70989241  1  0  -0.18542  0  3.754369  0  0  -0.208258  0  4.008557  0  0  -0.213409  0  4.029372  0  0  -0.105789  -0.204689  0  3.994442  0
C  C55  1  0.44233019  0.75722446  0.05207025  1  0  0.148875  0  3.702685  0  0  0.120894  0  3.956929  0  0  0.128136  0  3.974176  0  0  0.061212  0.116244  0  3.945183  0
C  C56  1  0.39043419  0.24274781  0.94819323  1  0  0.150052  0  3.702308  0  0  0.121867  0  3.957288  0  0  0.129141  0  3.974417  0  0  0.060121  0.117159  0  3.945574  0
C  C57  1  0.41916598  0.64194923  0.05087293  1  0  -0.172324  0  3.714112  0  0  -0.188981  0  3.958657  0  0  -0.19725  0  3.980408  0  0  -0.085567  -0.183575  0  3.943946  0
C  C58  1  0.36837238  0.35797452  0.94924641  1  0  -0.173304  0  3.713331  0  0  -0.189061  0  3.958276  0  0  -0.197215  0  3.979967  0  0  -0.08521  -0.183748  0  3.94362  0
C  C59  1  0.57457376  0.56093517  0.99996225  1  0  0.090551  0  3.787503  0  0  0.103692  0  4.01488  0  0  0.107407  0  4.036774  0  0  0.010143  0.101441  0  3.999783  0
C  C60  1  0.57457927  0.43895264  0.99994852  1  0  0.092194  0  3.78663  0  0  0.104767  0  4.014375  0  0  0.108501  0  4.036224  0  0  0.009781  0.102503  0  3.999307  0
C  C61  1  0.74239679  0.59948323  0.94985617  1  0  -0.165415  0  3.736181  0  0  -0.183751  0  3.983105  0  0  -0.191811  0  4.005289  0  0  -0.082922  -0.178524  0  3.968147  0
C  C62  1  0.79253497  0.40039160  0.04998902  1  0  -0.166904  0  3.735298  0  0  -0.18473  0  3.982486  0  0  -0.192816  0  4.004713  0  0  -0.083123  -0.179462  0  3.967462  0
C  C63  1  0.74948360  0.71508487  0.95239711  1  0  0.135895  0  3.718495  0  0  0.108638  0  3.973216  0  0  0.114987  0  3.991456  0  0  0.057029  0.10462  0  3.960719  0
C  C64  1  0.79715313  0.28484710  0.04762024  1  0  0.136913  0  3.718932  0  0  0.109212  0  3.973281  0  0  0.115476  0  3.99157  0  0  0.057261  0.10528  0  3.960756  0
N  N65  1  0.60431462  0.79378951  0.00394111  1  0  -0.371423  0  3.138856  0  0  -0.312804  0  3.402326  0  0  -0.328399  0  3.419045  0  0  -0.357156  -0.302025  0  3.390727  0
N  N66  1  0.60054057  0.20619148  0.99628534  1  0  -0.37252  0  3.139439  0  0  -0.313955  0  3.403781  0  0  -0.329515  0  3.420459  0  0  -0.357478  -0.303182  0  3.392179  0
O  O67  1  0.29821078  0.09808479  0.33262751  1  0  -0.538644  0  2.225382  0  0  -0.459329  0  2.464884  0  0  -0.478896  0  2.455158  0  0  -0.194031  -0.445479  0  2.471301  0
O  O68  1  0.96607157  0.90207771  0.66757586  1  0  -0.539104  0  2.227633  0  0  -0.45956  0  2.466857  0  0  -0.479113  0  2.457111  0  0  -0.193088  -0.44567  0  2.473229  0
O  O69  1  0.02553786  0.07742157  0.13047000  1  0  -0.91966  0  1.947329  0  0  -0.841538  0  2.224672  0  0  -0.869294  0  2.201601  0  0  -0.425298  -0.821495  0  2.239976  0
O  O70  1  0.89612973  0.92257178  0.86985167  1  0  -0.918301  0  1.945558  0  0  -0.84059  0  2.223124  0  0  -0.868375  0  2.200158  0  0  -0.424992  -0.820531  0  2.238356  0
O  O71  1  0.32901557  0.24730143  0.23655497  1  0  -0.533034  0  2.339651  0  0  -0.446825  0  2.585401  0  0  -0.469355  0  2.577643  0  0  -0.173502  -0.430849  0  2.590188  0
O  O72  1  0.09283015  0.75254262  0.76322033  1  0  -0.53204  0  2.338361  0  0  -0.445737  0  2.583969  0  0  -0.468318  0  2.576356  0  0  -0.17338  -0.429803  0  2.588765  0
O  O73  1  0.48360489  0.04106236  0.15507706  1  0  -0.927365  0  1.936905  0  0  -0.85032  0  2.212853  0  0  -0.877767  0  2.190302  0  0  -0.422813  -0.83051  0  2.227817  0
O  O74  1  0.32930050  0.95861110  0.84477792  1  0  -0.928113  0  1.936564  0  0  -0.851228  0  2.212626  0  0  -0.878635  0  2.190009  0  0  -0.423703  -0.831443  0  2.227638  0
