# generated using pymatgen
data_NiH29C19N5O4
_symmetry_space_group_name_H-M   'P 1'
_cell_length_a   14.93159191
_cell_length_b   14.93090834
_cell_length_c   15.92317843
_cell_angle_alpha   96.12023965
_cell_angle_beta   116.02948038
_cell_angle_gamma   114.75624111
_symmetry_Int_Tables_number   1
_chemical_formula_structural   NiH29C19N5O4
_chemical_formula_sum   'Ni4 H116 C76 N20 O16'
_cell_volume   2707.08937505
_cell_formula_units_Z   4
loop_
 _symmetry_equiv_pos_site_id
 _symmetry_equiv_pos_as_xyz
  1  'x, y, z'
loop_
 _atom_site_type_symbol
 _atom_site_label
 _atom_site_symmetry_multiplicity
 _atom_site_fract_x
 _atom_site_fract_y
 _atom_site_fract_z
 _atom_site_occupancy
 _atom_site_pbe_bader_charge
 _atom_site_pbe_bader_spin_density
 _atom_site_pbe_cm5_charge
 _atom_site_pbe_ddec_charge
 _atom_site_pbe_ddec_spin_density
 _atom_site_pbe_ddec_sum_bond_order
 _atom_site_pbe_magmom
Ni  Ni0  1  0.07186323  0.82290154  0.71521002  1  1.042175  1.492507  0.640949  0.609816  1.727541  2.535303  1.479
Ni  Ni1  1  0.60785693  0.35683625  0.78490048  1  1.04546  1.492558  0.640994  0.609259  1.725238  2.534665  1.479
Ni  Ni2  1  0.92813704  0.17709930  0.28478957  1  1.042164  1.492506  0.640951  0.609836  1.727539  2.535306  1.479
Ni  Ni3  1  0.39214248  0.64316333  0.21509906  1  1.045467  1.492557  0.640986  0.609275  1.725236  2.534603  1.479
H  H4  1  0.19612213  0.77082891  0.68697995  1  0.501105  -0.000445  0.283081  0.247837  -0.000385  1.017337  -0.001
H  H5  1  0.58401966  0.50936341  0.81306590  1  0.492803  -0.000428  0.282724  0.247595  -0.000386  1.017563  -0.001
H  H6  1  0.80387885  0.22917147  0.31302115  1  0.501113  -0.000445  0.283045  0.247775  -0.000385  1.01736  -0.001
H  H7  1  0.41598113  0.49063787  0.18693579  1  0.492806  -0.000428  0.28274  0.247616  -0.000386  1.01755  -0.001
H  H8  1  0.93724047  0.86537165  0.73684093  1  0.501215  -0.000301  0.284272  0.24788  -0.000261  1.022485  -0.001
H  H9  1  0.62872475  0.20056504  0.76338260  1  0.49315  -0.000294  0.284448  0.248744  -0.000261  1.021948  -0.001
H  H10  1  0.06276051  0.13462873  0.26316017  1  0.501162  -0.000301  0.284276  0.247869  -0.000261  1.022515  -0.001
H  H11  1  0.37127466  0.79943454  0.23661694  1  0.493118  -0.000294  0.284473  0.248779  -0.000261  1.02191  -0.001
H  H12  1  0.93498411  0.67404637  0.55214425  1  0.40308  -0.000478  0.307053  0.253264  -0.000526  0.918046  0.0
H  H13  1  0.62189001  0.38305332  0.94782042  1  0.404646  -0.000479  0.307537  0.25282  -0.000525  0.917826  0.0
H  H14  1  0.06501575  0.32595473  0.44785651  1  0.403052  -0.000478  0.307034  0.253199  -0.000526  0.918087  0.0
H  H15  1  0.37810877  0.61694564  0.05217849  1  0.404699  -0.000479  0.307529  0.252807  -0.000525  0.91783  0.0
H  H16  1  0.21763359  0.96973833  0.88226492  1  0.398111  -0.000676  0.303843  0.249206  -0.00069  0.935626  0.0
H  H17  1  0.58778076  0.33556250  0.61799122  1  0.39293  -0.000687  0.30426  0.249383  -0.000696  0.934966  0.0
H  H18  1  0.78236657  0.03026232  0.11773614  1  0.398075  -0.000676  0.303818  0.249182  -0.00069  0.935609  0.0
H  H19  1  0.41221970  0.66443745  0.38200778  1  0.392952  -0.000688  0.304229  0.2493  -0.000696  0.935051  0.0
H  H20  1  0.74803952  0.70578462  0.63211871  1  -0.003011  0.005185  0.091222  0.056888  0.002435  0.995064  0.002
H  H21  1  0.57362430  0.11604180  0.86791018  1  0.005446  0.005193  0.091558  0.058066  0.002435  0.994985  0.002
H  H22  1  0.25196146  0.29421577  0.36788239  1  -0.003008  0.005185  0.091217  0.056877  0.002435  0.995059  0.002
H  H23  1  0.42637481  0.88395823  0.13208906  1  0.005437  0.005193  0.091547  0.058056  0.002435  0.994986  0.002
H  H24  1  0.82119548  0.63555691  0.63835449  1  0.043452  0.000267  0.104957  0.081761  -4.9e-05  0.986247  0.0
H  H25  1  0.49711541  0.18294541  0.86154149  1  0.037423  0.000268  0.105311  0.083374  -4.9e-05  0.986139  0.0
H  H26  1  0.17880480  0.36444392  0.36164510  1  0.043444  0.000267  0.104955  0.081795  -4.9e-05  0.986257  0.0
H  H27  1  0.50288464  0.81705479  0.13845867  1  0.037421  0.000268  0.105317  0.083383  -4.9e-05  0.986114  0.0
H  H28  1  0.75930390  0.67829343  0.48011520  1  0.02827  0.003778  0.096826  0.069347  0.001758  0.991277  0.002
H  H29  1  0.69805229  0.27941596  0.01994034  1  0.023521  0.00378  0.097511  0.070026  0.001758  0.989478  0.002
H  H30  1  0.24069618  0.32170829  0.51988499  1  0.028326  0.003778  0.09682  0.069328  0.001758  0.991288  0.002
H  H31  1  0.30194764  0.72058380  0.98005893  1  0.02349  0.003779  0.097509  0.070013  0.001758  0.989493  0.002
H  H32  1  0.84545898  0.81518452  0.55519825  1  0.065234  0.000347  0.113338  0.098485  2e-05  0.979132  0.0
H  H33  1  0.76003355  0.29044518  0.94504184  1  0.072054  0.000347  0.113541  0.0985  2e-05  0.978601  0.0
H  H34  1  0.15454047  0.18481658  0.44480131  1  0.065294  0.000347  0.113328  0.098466  2e-05  0.979091  0.0
H  H35  1  0.23996512  0.70955333  0.05495617  1  0.072105  0.000347  0.113519  0.098463  2e-05  0.978585  0.0
H  H36  1  0.27488064  0.88002927  0.60232646  1  0.004046  0.008126  0.091296  0.055652  0.003718  0.987197  0.004
H  H37  1  0.77801599  0.67284107  0.89787354  1  0.012716  0.008097  0.091384  0.055412  0.003714  0.986607  0.004
H  H38  1  0.72512004  0.11997156  0.39767434  1  0.004048  0.008126  0.091296  0.055646  0.003718  0.987207  0.004
H  H39  1  0.22198581  0.32715905  0.10212759  1  0.012712  0.008098  0.091388  0.055413  0.003715  0.986596  0.004
H  H40  1  0.21253008  0.95314169  0.62099017  1  0.055501  0.000905  0.104025  0.079961  0.000275  0.990528  0.001
H  H41  1  0.83240638  0.59175927  0.87925009  1  0.056686  0.000904  0.103958  0.079315  0.000275  0.990814  0.001
H  H42  1  0.78746974  0.04685789  0.37901056  1  0.055495  0.000905  0.104022  0.07997  0.000275  0.990524  0.001
H  H43  1  0.16759501  0.40824086  0.12074984  1  0.05637  0.000904  0.103958  0.079317  0.000275  0.990835  0.001
H  H44  1  0.87517588  0.76029992  0.83234444  1  0.038182  0.006592  0.102187  0.044503  0.003115  1.025885  0.004
H  H45  1  0.42811823  0.04292056  0.66757255  1  0.007957  0.006652  0.102125  0.044301  0.003114  1.026228  0.004
H  H46  1  0.12482465  0.23969895  0.16765544  1  0.038149  0.006592  0.102176  0.044475  0.003115  1.025865  0.004
H  H47  1  0.57188242  0.95707849  0.33242586  1  0.007795  0.006652  0.102122  0.044282  0.003114  1.026301  0.004
H  H48  1  0.94105251  0.69149678  0.81219366  1  0.073971  0.000811  0.11683  0.073384  0.000248  1.008441  0.001
H  H49  1  0.37935017  0.12885773  0.68765703  1  0.074599  0.000806  0.116221  0.072776  0.000246  1.009001  0.001
H  H50  1  0.05894679  0.30850235  0.18780498  1  0.073987  0.000811  0.116844  0.073405  0.000248  1.00842  0.001
H  H51  1  0.62064891  0.87114077  0.31234218  1  0.074559  0.000806  0.116234  0.072777  0.000246  1.008995  0.001
H  H52  1  0.07265692  0.71529040  0.50108320  1  0.034026  -2.2e-05  0.09882  0.101155  -5.4e-05  0.968313  0.0
H  H53  1  0.71444340  0.57195858  0.99905369  1  0.027057  -2.2e-05  0.098255  0.100568  -5.3e-05  0.96863  0.0
H  H54  1  0.92734253  0.28471070  0.49891636  1  0.034007  -2.2e-05  0.098808  0.101153  -5.4e-05  0.9683  0.0
H  H55  1  0.28555769  0.42804199  0.00094594  1  0.027027  -2.2e-05  0.098226  0.100523  -5.3e-05  0.968664  0.0
H  H56  1  0.09569402  0.81481336  0.44940020  1  0.040402  -0.000173  0.098191  0.102115  -0.000154  0.994711  0.0
H  H57  1  0.86569881  0.64658611  0.05076786  1  0.05241  -0.000173  0.098311  0.102455  -0.000155  0.993568  0.0
H  H58  1  0.90430544  0.18518773  0.55059935  1  0.040415  -0.000173  0.098209  0.102121  -0.000154  0.994733  0.0
H  H59  1  0.13430299  0.35341402  0.94923328  1  0.052428  -0.000173  0.098312  0.102459  -0.000154  0.993573  0.0
H  H60  1  0.15449053  0.48537748  0.71217038  1  0.108062  -4.7e-05  0.102187  0.109139  -9.1e-05  1.023224  0.0
H  H61  1  0.27321027  0.44238251  0.78779589  1  0.092163  -4.8e-05  0.102221  0.109243  -9.1e-05  1.023335  0.0
H  H62  1  0.84550955  0.51462040  0.28783301  1  0.107664  -4.7e-05  0.102157  0.109084  -9.1e-05  1.023249  0.0
H  H63  1  0.72678665  0.55761635  0.21220351  1  0.09237  -4.8e-05  0.102235  0.109248  -9.1e-05  1.023292  0.0
H  H64  1  0.92686674  0.25018252  0.77715540  1  0.115059  -4.8e-05  0.102732  0.107704  -9.1e-05  1.023244  0.0
H  H65  1  0.97298783  0.14962498  0.72264285  1  0.079634  -5.3e-05  0.10266  0.107578  -9.1e-05  1.023286  0.0
H  H66  1  0.07312537  0.74981373  0.22284079  1  0.115087  -4.9e-05  0.102784  0.107749  -9.1e-05  1.023232  0.0
H  H67  1  0.02701162  0.85037201  0.27735754  1  0.079684  -5.3e-05  0.102659  0.107557  -9.1e-05  1.023257  0.0
H  H68  1  0.90016973  0.52054313  0.74507348  1  0.100674  0.000563  0.095358  0.097181  0.000379  1.050183  0.0
H  H69  1  0.27571923  0.15525213  0.75516627  1  0.10014  0.000564  0.095694  0.09761  0.00038  1.049179  0.0
H  H70  1  0.09983326  0.47945932  0.25492804  1  0.1007  0.000563  0.095347  0.097137  0.000379  1.050185  0.0
H  H71  1  0.72428030  0.84474763  0.24483180  1  0.100094  0.000564  0.095702  0.097632  0.00038  1.049163  0.0
H  H72  1  0.33112673  0.00097289  0.79710121  1  0.029157  0.000352  0.105454  0.080469  1.6e-05  0.994371  0.0
H  H73  1  0.70419277  0.53427168  0.70314555  1  0.038628  0.00035  0.105618  0.080227  1.6e-05  0.99416  0.0
H  H74  1  0.66887612  0.99902734  0.20289703  1  0.029123  0.000352  0.105461  0.080473  1.6e-05  0.994335  0.0
H  H75  1  0.29580877  0.46573040  0.29685530  1  0.038634  0.00035  0.105637  0.080271  1.6e-05  0.994136  0.0
H  H76  1  0.39297480  0.92141496  0.79725923  1  0.008157  0.005082  0.094335  0.063304  0.00237  0.977263  0.002
H  H77  1  0.62444613  0.59595560  0.70290127  1  0.014353  0.005087  0.094103  0.062757  0.002371  0.977975  0.002
H  H78  1  0.60702514  0.07858480  0.20274004  1  0.008174  0.005083  0.094322  0.063261  0.00237  0.977273  0.002
H  H79  1  0.37555310  0.40404487  0.29709886  1  0.01437  0.005087  0.094101  0.062735  0.002371  0.978055  0.002
H  H80  1  0.28600746  0.81290369  0.86904036  1  0.055041  0.000448  0.110174  0.090319  6.3e-05  0.989752  0.0
H  H81  1  0.44406423  0.41715482  0.63094843  1  0.055044  0.000447  0.11048  0.090586  6.3e-05  0.989708  0.0
H  H82  1  0.71399389  0.18709928  0.13096109  1  0.054979  0.000449  0.110173  0.090303  6.3e-05  0.989776  0.0
H  H83  1  0.55593716  0.58284530  0.36905151  1  0.05502  0.000447  0.110468  0.090554  6.3e-05  0.98972  0.0
H  H84  1  0.38376301  0.94785507  0.94980167  1  0.018667  0.004105  0.092144  0.061168  0.001931  0.988417  0.002
H  H85  1  0.49835662  0.43409912  0.55031203  1  0.01861  0.004102  0.091732  0.060104  0.001935  0.988974  0.002
H  H86  1  0.61623734  0.05214879  0.05019797  1  0.019493  0.00409  0.092159  0.061169  0.001931  0.988466  0.002
H  H87  1  0.50164458  0.56590189  0.44968850  1  0.018404  0.004106  0.091734  0.060116  0.001935  0.988952  0.002
H  H88  1  0.22824652  0.88686303  0.00957463  1  0.028034  0.006034  0.103829  0.054785  0.002872  0.980183  0.003
H  H89  1  0.37748061  0.21882491  0.49053061  1  0.027119  0.006074  0.104459  0.055392  0.002871  0.97829  0.003
H  H90  1  0.77175364  0.11313736  0.99042407  1  0.028019  0.006035  0.103822  0.054784  0.002872  0.980134  0.003
H  H91  1  0.62252003  0.78117414  0.50946780  1  0.027138  0.006074  0.104476  0.055413  0.002871  0.978283  0.003
H  H92  1  0.13831099  0.76339958  0.90735913  1  0.068644  0.0008  0.120488  0.081755  0.000201  0.992763  0.001
H  H93  1  0.35624587  0.23106433  0.59270972  1  0.082517  0.000805  0.120705  0.08172  0.000204  0.992201  0.001
H  H94  1  0.86169207  0.23660153  0.09264090  1  0.06863  0.0008  0.120487  0.081763  0.000201  0.992743  0.001
H  H95  1  0.64375459  0.76893562  0.40728929  1  0.082511  0.000805  0.120703  0.081715  0.000204  0.992245  0.001
H  H96  1  0.90662825  0.75165051  0.42010779  1  0.063501  0.005738  0.091643  0.063688  0.002666  1.035617  0.004
H  H97  1  0.83162053  0.48677357  0.07999617  1  0.044087  0.00584  0.091872  0.063542  0.002664  1.035255  0.004
H  H98  1  0.09337068  0.24835040  0.57989204  1  0.063512  0.005738  0.09163  0.063683  0.002666  1.035541  0.004
H  H99  1  0.16837795  0.51322609  0.92000479  1  0.044111  0.00584  0.091868  0.063551  0.002664  1.035287  0.004
H  H100  1  0.99763821  0.87593942  0.51933632  1  0.044844  0.001252  0.107198  0.088706  0.000387  0.967813  0.001
H  H101  1  0.85668744  0.47849030  0.98082119  1  0.035731  0.00126  0.107547  0.088798  0.000387  0.967772  0.001
H  H102  1  0.00236061  0.12406105  0.48066261  1  0.044856  0.001251  0.107174  0.088594  0.000387  0.967886  0.001
H  H103  1  0.14331275  0.52150777  0.01918072  1  0.035613  0.001261  0.107523  0.088802  0.000387  0.967778  0.001
H  H104  1  0.07272573  0.98981669  0.89807614  1  0.041484  -0.0001  0.093148  0.063779  -0.00016  1.004098  0.0
H  H105  1  0.59207026  0.17485804  0.60205036  1  0.008228  -0.0001  0.093014  0.063949  -0.00016  1.004723  0.0
H  H106  1  0.92727711  0.01018380  0.10192447  1  0.041491  -0.0001  0.093159  0.06378  -0.00016  1.004113  0.0
H  H107  1  0.40792900  0.82513958  0.39794825  1  0.008223  -0.0001  0.09302  0.063976  -0.00016  1.004694  0.0
H  H108  1  0.16247785  0.99558470  0.01995998  1  0.051733  0.00044  0.101715  0.072419  0.000208  0.972559  0.0
H  H109  1  0.47590840  0.14269857  0.48015969  1  0.033796  0.000441  0.10104  0.070901  0.000208  0.973301  0.0
H  H110  1  0.83752111  0.00441363  0.98004070  1  0.051727  0.00044  0.101706  0.072399  0.000208  0.972569  0.0
H  H111  1  0.52409247  0.85730137  0.51984051  1  0.033804  0.000441  0.101018  0.070879  0.000208  0.973311  0.0
H  H112  1  0.89733434  0.89892187  0.91079249  1  -0.004989  0.000455  0.088724  0.079303  0.000224  0.993402  0.0
H  H113  1  0.48838228  0.98676430  0.58930647  1  -0.00412  0.000454  0.089105  0.079851  0.000223  0.993008  0.0
H  H114  1  0.10266542  0.10107852  0.08920501  1  -0.004979  0.000455  0.088745  0.079326  0.000224  0.993416  0.0
H  H115  1  0.51161501  0.01323277  0.41069175  1  -0.004141  0.000454  0.08911  0.079848  0.000223  0.993012  0.0
H  H116  1  0.98726529  0.90321807  0.03148156  1  0.040355  0.000158  0.095109  0.094628  6.5e-05  0.972902  0.0
H  H117  1  0.37180136  0.95597464  0.46869164  1  0.014678  0.000157  0.094474  0.093313  6.5e-05  0.971467  0.0
H  H118  1  0.01273406  0.09678258  0.96851710  1  0.040311  0.000158  0.095086  0.094586  6.5e-05  0.972916  0.0
H  H119  1  0.62819567  0.04402440  0.53130630  1  0.01477  0.000157  0.094496  0.093356  6.5e-05  0.971456  0.0
C  C120  1  0.82781934  0.71204467  0.63943903  1  0.317394  0.000268  -0.067933  -0.039271  -0.000298  3.92185  -0.001
C  C121  1  0.57258814  0.18851594  0.86058098  1  0.313109  0.000278  -0.069505  -0.044961  -0.000288  3.926376  -0.001
C  C122  1  0.17218041  0.28795598  0.36056083  1  0.317401  0.000268  -0.06795  -0.039346  -0.000298  3.921919  -0.001
C  C123  1  0.42741076  0.81148346  0.13941882  1  0.313184  0.000278  -0.069497  -0.044967  -0.000288  3.926365  -0.001
C  C124  1  0.83763768  0.73821707  0.55257491  1  0.270762  0.000462  -0.06845  -0.058868  -0.00027  3.911527  -0.001
C  C125  1  0.68561476  0.28525894  0.94751804  1  0.263428  0.000441  -0.068348  -0.057544  -0.000274  3.910067  -0.001
C  C126  1  0.16236211  0.26178509  0.44742497  1  0.270745  0.000461  -0.068386  -0.058753  -0.00027  3.911375  -0.001
C  C127  1  0.31438477  0.71474083  0.05248003  1  0.263326  0.000441  -0.06832  -0.057499  -0.000274  3.90997  -0.001
C  C128  1  0.03213227  0.51257554  0.72680639  1  -0.008569  0.007376  -0.028016  -0.038937  0.004464  4.009437  0.006
C  C129  1  0.28585796  0.30539945  0.77322731  1  -0.037126  0.007403  -0.027628  -0.040597  0.004456  4.011052  0.006
C  C130  1  0.96786993  0.48742485  0.27319831  1  -0.008684  0.007377  -0.028073  -0.039063  0.004465  4.009623  0.006
C  C131  1  0.71414057  0.69460147  0.22677132  1  -0.037014  0.007402  -0.027662  -0.040653  0.004456  4.011099  0.006
C  C132  1  0.20203700  0.87449540  0.60887393  1  0.300159  -0.000363  -0.067602  -0.010847  -0.000797  3.912141  -0.002
C  C133  1  0.76586104  0.59341925  0.89130340  1  0.287324  -0.000327  -0.066299  -0.007775  -0.000798  3.907697  -0.002
C  C134  1  0.79796241  0.12550418  0.39112561  1  0.30017  -0.000363  -0.06755  -0.01079  -0.000797  3.911983  -0.002
C  C135  1  0.23414058  0.40658176  0.10869833  1  0.28767  -0.000327  -0.06627  -0.007744  -0.000798  3.907672  -0.002
C  C136  1  0.07775429  0.61653382  0.71116080  1  1.558149  -0.000732  0.194128  0.552275  -0.001261  4.241288  -0.001
C  C137  1  0.40546037  0.36672136  0.78887517  1  1.572059  -0.000722  0.195197  0.553846  -0.001254  4.241132  -0.001
C  C138  1  0.92224728  0.38346594  0.28884327  1  1.558352  -0.000733  0.194113  0.55228  -0.001261  4.241465  -0.001
C  C139  1  0.59453949  0.63327974  0.21112559  1  1.571785  -0.000722  0.195249  0.55383  -0.001254  4.241043  -0.001
C  C140  1  0.80259850  0.33612557  0.77681133  1  1.558485  -0.000888  0.194578  0.550466  -0.001476  4.236905  -0.001
C  C141  1  0.05945480  0.02581633  0.72338731  1  1.561114  -0.000921  0.195091  0.550537  -0.001482  4.239042  -0.001
C  C142  1  0.19739857  0.66387498  0.22318663  1  1.558952  -0.000887  0.194648  0.550598  -0.001476  4.236748  -0.001
C  C143  1  0.94054695  0.97418254  0.27661617  1  1.561265  -0.000922  0.195136  0.550645  -0.001482  4.239043  -0.001
C  C144  1  0.94721921  0.76823767  0.82374023  1  0.614768  1.6e-05  0.023707  0.059048  -0.000569  3.94338  -0.002
C  C145  1  0.44464060  0.12356823  0.67623219  1  0.639051  -4.6e-05  0.023188  0.057811  -0.00057  3.940855  -0.002
C  C146  1  0.05278247  0.23176201  0.17626001  1  0.614781  1.6e-05  0.023719  0.059098  -0.000569  3.943269  -0.002
C  C147  1  0.55535934  0.87643154  0.32376708  1  0.639298  -4.7e-05  0.023187  0.057818  -0.00057  3.940854  -0.002
C  C148  1  0.08694559  0.79541782  0.51108324  1  -0.015686  0.001564  -0.158423  -0.190316  0.000522  3.921785  0.001
C  C149  1  0.78452535  0.57614430  0.98905663  1  -0.0283  0.001565  -0.157765  -0.190133  0.00052  3.92023  0.001
C  C150  1  0.91305498  0.20458257  0.48891666  1  -0.015679  0.001564  -0.158414  -0.190325  0.000522  3.921746  0.001
C  C151  1  0.21547541  0.42385520  0.01094267  1  -0.028288  0.001565  -0.157745  -0.190098  0.00052  3.920214  0.001
C  C152  1  0.08483962  0.45425240  0.72698177  1  -0.080685  -0.000231  -0.083605  -0.142734  -0.000637  3.939798  0.0
C  C153  1  0.22726822  0.35790117  0.77293700  1  -0.028524  -0.000251  -0.085175  -0.144602  -0.000636  3.940152  0.0
C  C154  1  0.91515804  0.54574753  0.27301916  1  -0.080347  -0.000232  -0.08352  -0.142566  -0.000637  3.939696  0.0
C  C155  1  0.77272772  0.64209599  0.22706145  1  -0.028512  -0.000252  -0.085155  -0.144583  -0.000637  3.939966  0.0
C  C156  1  0.95756971  0.32301676  0.76188846  1  -0.126777  -0.000701  -0.081348  -0.139554  -0.001107  3.9312  0.0
C  C157  1  0.06113332  0.19563640  0.73798369  1  -0.03339  -0.000709  -0.081962  -0.140532  -0.001107  3.933713  0.0
C  C158  1  0.04242482  0.67698155  0.23810934  1  -0.126919  -0.000701  -0.081353  -0.139548  -0.001107  3.931162  0.0
C  C159  1  0.93886427  0.80436049  0.26201719  1  -0.033364  -0.000709  -0.081976  -0.140541  -0.001107  3.933626  0.0
C  C160  1  0.94124418  0.47533677  0.74421709  1  -0.054765  -0.000864  -0.088445  -0.120488  -0.001102  3.958597  -0.001
C  C161  1  0.23127525  0.19712364  0.75591267  1  -0.00727  -0.000874  -0.087799  -0.118343  -0.001106  3.958342  -0.001
C  C162  1  0.05875359  0.52466360  0.25578473  1  -0.054792  -0.000863  -0.088438  -0.120433  -0.001102  3.958771  -0.001
C  C163  1  0.76872301  0.80287513  0.24408651  1  -0.007261  -0.000874  -0.087751  -0.118266  -0.001106  3.958275  -0.001
C  C164  1  0.90272385  0.37978074  0.76054681  1  -0.029625  0.006923  -0.025745  -0.033987  0.004172  3.994643  0.005
C  C165  1  0.11933533  0.14218272  0.73951926  1  -0.087694  0.00694  -0.025848  -0.035037  0.004174  3.996712  0.005
C  C166  1  0.09727314  0.62021704  0.23945347  1  -0.02942  0.006924  -0.025749  -0.033937  0.004172  3.994377  0.005
C  C167  1  0.88066438  0.85781667  0.26048294  1  -0.087685  0.00694  -0.025929  -0.035179  0.004174  3.996594  0.005
C  C168  1  0.05051614  0.36005121  0.74671844  1  0.007803  0.001734  -0.011702  0.054835  0.001018  4.022021  0.001
C  C169  1  0.11326006  0.30373770  0.75311086  1  -0.057493  0.001746  -0.010283  0.057471  0.001018  4.022984  0.001
C  C170  1  0.94948379  0.63994881  0.25328319  1  0.007777  0.001734  -0.011712  0.054742  0.001018  4.022223  0.001
C  C171  1  0.88673872  0.69626151  0.24689041  1  -0.057909  0.001746  -0.010266  0.057568  0.001018  4.022893  0.001
C  C172  1  0.31624877  0.92124101  0.79148819  1  0.321236  0.000505  -0.069075  -0.046506  -0.0001  3.927185  -0.001
C  C173  1  0.63002925  0.52499454  0.70868111  1  0.304526  0.000509  -0.06908  -0.045062  -9.6e-05  3.926978  -0.001
C  C174  1  0.68375262  0.07875912  0.20851175  1  0.321326  0.000505  -0.069074  -0.046458  -0.0001  3.927124  -0.001
C  C175  1  0.36997039  0.47500567  0.29131785  1  0.304511  0.000509  -0.069097  -0.045118  -9.5e-05  3.927153  -0.001
C  C176  1  0.30270120  0.89329357  0.87646616  1  0.26944  0.000229  -0.067769  -0.048716  -0.000402  3.917653  -0.001
C  C177  1  0.51709092  0.42643318  0.62363254  1  0.280334  0.000228  -0.068769  -0.050264  -0.000392  3.919548  -0.001
C  C178  1  0.69729807  0.10670815  0.12353163  1  0.269372  0.000229  -0.067802  -0.048712  -0.000402  3.91773  -0.001
C  C179  1  0.48290902  0.57356658  0.37636673  1  0.28039  0.000228  -0.068739  -0.050221  -0.000392  3.91955  -0.001
C  C180  1  0.15845305  0.84495728  0.92933405  1  0.638097  -0.000604  0.026439  0.049415  -0.001217  3.959877  -0.002
C  C181  1  0.41585332  0.22928144  0.57075681  1  0.635395  -0.00064  0.026483  0.050358  -0.001221  3.957899  -0.002
C  C182  1  0.84154774  0.15504373  0.07066527  1  0.638095  -0.000604  0.026477  0.04947  -0.001217  3.959679  -0.002
C  C183  1  0.58414744  0.77071806  0.42924249  1  0.627717  -0.000646  0.026464  0.050301  -0.001221  3.957885  -0.002
C  C184  1  0.97926041  0.79470252  0.49892386  1  0.264801  -0.000221  -0.070925  -0.025471  -0.000931  3.900653  -0.002
C  C185  1  0.79586939  0.48056260  0.00119609  1  0.303511  -0.000302  -0.071979  -0.026877  -0.000935  3.901471  -0.002
C  C186  1  0.02073957  0.20529875  0.50107543  1  0.264798  -0.000221  -0.070902  -0.025357  -0.000931  3.900555  -0.002
C  C187  1  0.20413096  0.51943716  0.99880437  1  0.303617  -0.000302  -0.071964  -0.026907  -0.000935  3.901538  -0.002
C  C188  1  0.07418322  0.94797169  0.95173070  1  0.272751  -7.2e-05  -0.066403  -0.04783  -0.000159  3.936121  0.0
C  C189  1  0.49652365  0.12263916  0.54837299  1  0.317056  -7e-05  -0.065907  -0.047619  -0.000159  3.935238  0.0
C  C190  1  0.92581671  0.05202808  0.04826857  1  0.272759  -7.2e-05  -0.066387  -0.047788  -0.000159  3.936092  0.0
C  C191  1  0.50347629  0.87736061  0.45162628  1  0.317093  -7e-05  -0.065932  -0.047702  -0.000159  3.935302  0.0
C  C192  1  0.98636993  0.94458711  0.97806476  1  0.002229  0.000333  -0.163193  -0.163773  0.000273  3.957932  0.0
C  C193  1  0.46665253  0.00843109  0.52201268  1  0.006052  0.000333  -0.162564  -0.161992  0.000273  3.955543  0.0
C  C194  1  0.01362930  0.05541310  0.02193300  1  -0.02186  0.000334  -0.163211  -0.163773  0.000273  3.957951  0.0
C  C195  1  0.53334666  0.99156760  0.47798507  1  0.032444  0.000332  -0.162582  -0.162024  0.000273  3.955599  0.0
N  N196  1  0.20791559  0.84621245  0.69576087  1  -1.098796  0.076699  -0.497235  -0.322674  0.044598  3.535416  0.067
N  N197  1  0.65065679  0.51238049  0.80435297  1  -1.090466  0.076627  -0.497689  -0.323578  0.044577  3.532771  0.067
N  N198  1  0.79208401  0.15378624  0.30423807  1  -1.098792  0.076698  -0.497223  -0.322638  0.044597  3.535417  0.067
N  N199  1  0.34934360  0.48762079  0.19564752  1  -1.090523  0.076628  -0.49771  -0.323594  0.044577  3.532829  0.067
N  N200  1  0.93427764  0.79381225  0.73350727  1  -1.100952  0.078297  -0.502436  -0.350968  0.04536  3.521956  0.068
N  N201  1  0.56042500  0.20091013  0.76659307  1  -1.079721  0.078309  -0.501591  -0.349549  0.045395  3.520319  0.068
N  N202  1  0.06572126  0.20618715  0.26649253  1  -1.100968  0.078297  -0.502438  -0.350961  0.045359  3.52201  0.068
N  N203  1  0.43957445  0.79909097  0.23340648  1  -1.079715  0.078307  -0.501617  -0.349568  0.045394  3.520304  0.068
N  N204  1  0.94493267  0.74734249  0.56432760  1  -1.033714  0.078644  -0.488917  -0.297449  0.045853  3.538508  0.069
N  N205  1  0.68305129  0.38081214  0.93573175  1  -1.043454  0.078607  -0.489615  -0.296034  0.045861  3.538775  0.069
N  N206  1  0.05506585  0.25265843  0.43567103  1  -1.033784  0.078642  -0.488931  -0.297408  0.045852  3.538414  0.069
N  N207  1  0.31694865  0.61918762  0.06426752  1  -1.043512  0.078606  -0.48961  -0.296019  0.045861  3.53876  0.069
N  N208  1  0.20045207  0.89392012  0.86718933  1  -1.018648  0.071181  -0.491006  -0.333758  0.041513  3.530623  0.062
N  N209  1  0.52697604  0.33345944  0.63295745  1  -1.028505  0.07114  -0.491655  -0.333756  0.041502  3.528664  0.062
N  N210  1  0.79954947  0.10608196  0.13281152  1  -1.018574  0.07118  -0.490999  -0.333816  0.041513  3.530541  0.062
N  N211  1  0.47302386  0.66653881  0.36704180  1  -1.020852  0.071147  -0.491633  -0.333644  0.041502  3.528683  0.062
N  N212  1  0.05626753  0.84384442  0.91560405  1  -1.098468  0.001001  -0.343284  -0.176867  4.2e-05  3.571162  0.001
N  N213  1  0.42851068  0.14084324  0.58446140  1  -1.093885  0.001005  -0.342789  -0.176038  3.9e-05  3.57046  0.001
N  N214  1  0.94373333  0.15615552  0.08439616  1  -1.098452  0.001001  -0.3433  -0.176878  4.2e-05  3.571136  0.001
N  N215  1  0.57149052  0.85915777  0.41553913  1  -1.093962  0.001005  -0.342759  -0.175958  3.9e-05  3.570336  0.001
O  O216  1  0.76018021  0.39476192  0.78063366  1  -1.165122  0.068284  -0.326935  -0.567524  0.038761  2.323302  0.064
O  O217  1  0.11421104  0.97952854  0.71955547  1  -1.166936  0.068348  -0.327258  -0.56773  0.038761  2.326716  0.064
O  O218  1  0.23981950  0.60523748  0.21936854  1  -1.165445  0.068286  -0.327008  -0.567654  0.038763  2.323198  0.064
O  O219  1  0.88578983  0.02047140  0.28044473  1  -1.167079  0.068348  -0.3273  -0.567818  0.03876  2.326697  0.064
O  O220  1  0.03067137  0.66947175  0.71909265  1  -1.172832  0.071577  -0.325788  -0.568499  0.040694  2.36888  0.067
O  O221  1  0.45046499  0.31171007  0.78093609  1  -1.173624  0.071594  -0.326144  -0.569001  0.040696  2.367599  0.067
O  O222  1  0.96932946  0.33052642  0.28090517  1  -1.172848  0.071585  -0.325874  -0.568608  0.040699  2.368868  0.067
O  O223  1  0.54953268  0.68828959  0.21906248  1  -1.173525  0.071594  -0.326154  -0.568986  0.040695  2.367579  0.067
O  O224  1  0.76734756  0.24581416  0.78407055  1  -1.188238  -0.000893  -0.34045  -0.55913  -0.001757  2.12987  -0.001
O  O225  1  0.96189855  0.98335847  0.71618047  1  -1.186178  -0.000896  -0.341323  -0.55978  -0.001762  2.128835  -0.001
O  O226  1  0.23264318  0.75417988  0.21591875  1  -1.188363  -0.000893  -0.340473  -0.559196  -0.001757  2.129982  -0.001
O  O227  1  0.03810231  0.01664199  0.28382446  1  -1.186111  -0.000896  -0.341312  -0.55978  -0.001762  2.128946  -0.001
O  O228  1  0.15841435  0.64483243  0.69381114  1  -1.184598  -0.001195  -0.344894  -0.560934  -0.002066  2.107623  -0.001
O  O229  1  0.45111612  0.46474744  0.80621267  1  -1.194132  -0.001197  -0.346256  -0.561936  -0.002063  2.107379  -0.001
O  O230  1  0.84159609  0.35517173  0.30620020  1  -1.184647  -0.001195  -0.344772  -0.560817  -0.002066  2.107848  -0.001
O  O231  1  0.54888329  0.53525266  0.19379158  1  -1.193961  -0.001197  -0.346314  -0.561948  -0.002063  2.107322  -0.001
