# generated using pymatgen
data_CdH5C5N6ClO
_symmetry_space_group_name_H-M   'P 1'
_cell_length_a   7.56372568
_cell_length_b   9.08173272
_cell_length_c   13.92642538
_cell_angle_alpha   89.99924850
_cell_angle_beta   90.00021125
_cell_angle_gamma   95.12370215
_symmetry_Int_Tables_number   1
_chemical_formula_structural   CdH5C5N6ClO
_chemical_formula_sum   'Cd4 H20 C20 N24 Cl4 O4'
_cell_volume   952.80782433
_cell_formula_units_Z   4
loop_
 _symmetry_equiv_pos_site_id
 _symmetry_equiv_pos_as_xyz
  1  'x, y, z'
loop_
 _atom_site_type_symbol
 _atom_site_label
 _atom_site_symmetry_multiplicity
 _atom_site_fract_x
 _atom_site_fract_y
 _atom_site_fract_z
 _atom_site_occupancy
 _atom_site_hle17_bader_spin_density
 _atom_site_hle17_ddec_charge
 _atom_site_hle17_ddec_spin_density
 _atom_site_hle17_ddec_sum_bond_order
 _atom_site_hle17_magmom
 _atom_site_hse06_10hf_bader_spin_density
 _atom_site_hse06_10hf_ddec_charge
 _atom_site_hse06_10hf_ddec_spin_density
 _atom_site_hse06_10hf_ddec_sum_bond_order
 _atom_site_hse06_10hf_magmom
 _atom_site_hse06_bader_spin_density
 _atom_site_hse06_ddec_charge
 _atom_site_hse06_ddec_spin_density
 _atom_site_hse06_ddec_sum_bond_order
 _atom_site_hse06_magmom
 _atom_site_pbe_bader_spin_density
 _atom_site_pbe_cm5_charge
 _atom_site_pbe_ddec_charge
 _atom_site_pbe_ddec_spin_density
 _atom_site_pbe_ddec_sum_bond_order
 _atom_site_pbe_magmom
Cd  Cd0  1  0.28900861  0.56915912  0.04410037  1  0  1.003757  0  1.895912  0  0  0.818054  0  2.367408  0  0  0.866204  0  2.32261  0  0  0.687391  0.783966  0  2.398022  0
Cd  Cd1  1  0.21099800  0.93083608  0.54410287  1  0  1.003713  0  1.895935  0  0  0.818029  0  2.367426  0  0  0.866175  0  2.322632  0  0  0.687398  0.783944  0  2.398039  0
Cd  Cd2  1  0.71099612  0.43084093  0.95590250  1  0  1.003711  0  1.895953  0  0  0.817997  0  2.367473  0  0  0.866146  0  2.322676  0  0  0.68738  0.783912  0  2.398076  0
Cd  Cd3  1  0.78900157  0.06916510  0.45589498  1  0  1.00367  0  1.895965  0  0  0.818021  0  2.367417  0  0  0.866165  0  2.322627  0  0  0.687383  0.783936  0  2.398037  0
H  H4  1  0.16718963  0.85949193  0.03162058  1  0  0.38045  0  0.942213  0  0  0.339245  0  1.023534  0  0  0.350228  0  1.008014  0  0  0.274627  0.331532  0  1.034392  0
H  H5  1  0.33281091  0.64049690  0.53162579  1  0  0.380492  0  0.942187  0  0  0.339269  0  1.023503  0  0  0.350251  0  1.007983  0  0  0.274633  0.331554  0  1.034369  0
H  H6  1  0.83281065  0.14050371  0.96837799  1  0  0.380452  0  0.942239  0  0  0.339232  0  1.023556  0  0  0.350214  0  1.008037  0  0  0.274618  0.331513  0  1.034423  0
H  H7  1  0.66718853  0.35950317  0.46837852  1  0  0.380419  0  0.942283  0  0  0.339192  0  1.023602  0  0  0.350173  0  1.008083  0  0  0.274603  0.331477  0  1.034464  0
H  H8  1  0.26386703  0.85129702  0.13560935  1  0  0.385581  0  0.935265  0  0  0.343751  0  1.018126  0  0  0.355022  0  1.002  0  0  0.274998  0.335806  0  1.029457  0
H  H9  1  0.23612375  0.64869308  0.63560999  1  0  0.385536  0  0.935306  0  0  0.343705  0  1.018171  0  0  0.354976  0  1.002045  0  0  0.274975  0.335767  0  1.02949  0
H  H10  1  0.73613229  0.14870194  0.86438994  1  0  0.385603  0  0.935222  0  0  0.34378  0  1.018073  0  0  0.35505  0  1.001949  0  0  0.275012  0.335839  0  1.029395  0
H  H11  1  0.76387582  0.35130809  0.36439361  1  0  0.385523  0  0.93533  0  0  0.343689  0  1.018199  0  0  0.35496  0  1.002074  0  0  0.274963  0.335748  0  1.029523  0
H  H12  1  0.60902086  0.62912588  0.21802592  1  0  0.09401  0  0.934787  0  0  0.098492  0  1.000861  0  0  0.101212  0  0.999303  0  0  0.119429  0.096463  0  1.002153  0
H  H13  1  0.89100085  0.87089139  0.71801853  1  0  0.093943  0  0.934948  0  0  0.098468  0  1.000986  0  0  0.101164  0  0.999435  0  0  0.119408  0.096452  0  1.002276  0
H  H14  1  0.39098028  0.37087750  0.78197624  1  0  0.093934  0  0.93486  0  0  0.098439  0  1.000916  0  0  0.101144  0  0.999375  0  0  0.119419  0.096412  0  1.002205  0
H  H15  1  0.10899620  0.12911090  0.28198147  1  0  0.094006  0  0.934889  0  0  0.098517  0  1.00094  0  0  0.101216  0  0.999385  0  0  0.119431  0.096486  0  1.002241  0
H  H16  1  0.62504191  0.63999289  0.40052426  1  0  0.097794  0  0.933782  0  0  0.10258  0  1.001738  0  0  0.10569  0  0.999391  0  0  0.114106  0.100264  0  1.003607  0
H  H17  1  0.87496832  0.86001746  0.90051622  1  0  0.09777  0  0.934002  0  0  0.102647  0  1.00183  0  0  0.105762  0  0.999491  0  0  0.114124  0.100327  0  1.003698  0
H  H18  1  0.37495332  0.36000498  0.59947646  1  0  0.097843  0  0.933703  0  0  0.102571  0  1.001702  0  0  0.105681  0  0.999357  0  0  0.114112  0.100256  0  1.003572  0
H  H19  1  0.12503208  0.13997929  0.09948307  1  0  0.097723  0  0.934041  0  0  0.102611  0  1.001859  0  0  0.105728  0  0.999518  0  0  0.114135  0.100294  0  1.003733  0
H  H20  1  0.09040079  0.48942924  0.41558420  1  0  0.099392  0  0.927978  0  0  0.106294  0  0.993282  0  0  0.109547  0  0.990618  0  0  0.118136  0.10381  0  0.995512  0
H  H21  1  0.40962686  0.01055967  0.91558566  1  0  0.099334  0  0.927938  0  0  0.106229  0  0.993229  0  0  0.10948  0  0.990566  0  0  0.118074  0.103714  0  0.995489  0
H  H22  1  0.90959853  0.51056972  0.58441867  1  0  0.099388  0  0.928038  0  0  0.106299  0  0.993327  0  0  0.109549  0  0.990667  0  0  0.118157  0.103829  0  0.995538  0
H  H23  1  0.59037978  0.98943374  0.08441075  1  0  0.099369  0  0.928012  0  0  0.106267  0  0.993298  0  0  0.109519  0  0.990634  0  0  0.118071  0.10375  0  0.995558  0
C  C24  1  0.03479966  0.46857802  0.22010837  1  0  0.231739  0  3.822525  0  0  0.20681  0  4.08684  0  0  0.214923  0  4.105328  0  0  0.21585  0.201562  0  4.074209  0
C  C25  1  0.46522850  0.03142695  0.72009971  1  0  0.231719  0  3.822653  0  0  0.206521  0  4.087323  0  0  0.214638  0  4.10581  0  0  0.215845  0.201289  0  4.074664  0
C  C26  1  0.96520388  0.53142315  0.77989379  1  0  0.23186  0  3.822475  0  0  0.206857  0  4.08693  0  0  0.214974  0  4.105417  0  0  0.215857  0.201609  0  4.074286  0
C  C27  1  0.53476855  0.96857533  0.27989311  1  0  0.2318  0  3.822659  0  0  0.206475  0  4.087443  0  0  0.214589  0  4.105934  0  0  0.21584  0.201249  0  4.074781  0
C  C28  1  0.19855120  0.51301931  0.27136127  1  0  0.139472  0  3.757519  0  0  0.140104  0  3.9992  0  0  0.143697  0  4.018112  0  0  0.136238  0.137332  0  3.986653  0
C  C29  1  0.30147481  0.98698237  0.77135918  1  0  0.139412  0  3.757481  0  0  0.140099  0  3.999164  0  0  0.143691  0  4.018074  0  0  0.136149  0.137333  0  3.986591  0
C  C30  1  0.80144824  0.48698076  0.72864232  1  0  0.139392  0  3.757494  0  0  0.139973  0  3.999299  0  0  0.143562  0  4.018214  0  0  0.136203  0.137209  0  3.986742  0
C  C31  1  0.69852583  0.01301659  0.22863652  1  0  0.139284  0  3.757523  0  0  0.140104  0  3.999135  0  0  0.143696  0  4.018051  0  0  0.13616  0.137329  0  3.98657  0
C  C32  1  0.49439862  0.59625573  0.26292475  1  0  0.102471  0  3.673237  0  0  0.067922  0  3.940645  0  0  0.071617  0  3.95695  0  0  0.060787  0.065279  0  3.929846  0
C  C33  1  0.00562475  0.90375829  0.76291700  1  0  0.102541  0  3.67321  0  0  0.067939  0  3.940609  0  0  0.07167  0  3.956934  0  0  0.060924  0.06528  0  3.929799  0
C  C34  1  0.50560095  0.40374544  0.73707812  1  0  0.102618  0  3.673242  0  0  0.068043  0  3.940619  0  0  0.07175  0  3.95693  0  0  0.060861  0.065395  0  3.929819  0
C  C35  1  0.99436953  0.09624290  0.23708013  1  0  0.102582  0  3.673242  0  0  0.06802  0  3.940623  0  0  0.07175  0  3.956949  0  0  0.061004  0.065382  0  3.929821  0
C  C36  1  0.50265756  0.60146783  0.36309258  1  0  0.094362  0  3.636247  0  0  0.06193  0  3.899535  0  0  0.065066  0  3.91454  0  0  0.059757  0.059739  0  3.889606  0
C  C37  1  0.99735623  0.89854104  0.86309093  1  0  0.094468  0  3.635954  0  0  0.061997  0  3.8992  0  0  0.06511  0  3.914227  0  0  0.059842  0.05982  0  3.889254  0
C  C38  1  0.49734333  0.39853334  0.63690670  1  0  0.094319  0  3.636299  0  0  0.061993  0  3.899517  0  0  0.065126  0  3.914518  0  0  0.059791  0.059796  0  3.889591  0
C  C39  1  0.00265139  0.10146122  0.13690764  1  0  0.094556  0  3.635903  0  0  0.062044  0  3.899166  0  0  0.065167  0  3.914173  0  0  0.05982  0.059857  0  3.889224  0
C  C40  1  0.20754872  0.51907090  0.37175385  1  0  0.073106  0  3.646801  0  0  0.033649  0  3.90449  0  0  0.035624  0  3.920027  0  0  0.065069  0.032219  0  3.894399  0
C  C41  1  0.29246666  0.98092439  0.87175322  1  0  0.07306  0  3.647365  0  0  0.033678  0  3.904959  0  0  0.035656  0  3.9205  0  0  0.065181  0.032267  0  3.89487  0
C  C42  1  0.79244651  0.48092697  0.62824687  1  0  0.073141  0  3.64686  0  0  0.033724  0  3.904567  0  0  0.035697  0  3.920105  0  0  0.065092  0.032275  0  3.894474  0
C  C43  1  0.70752952  0.01907016  0.12824175  1  0  0.073143  0  3.647371  0  0  0.033697  0  3.904968  0  0  0.035674  0  3.920507  0  0  0.065222  0.032297  0  3.894865  0
N  N44  1  0.02369077  0.46984763  0.12389702  1  0  -0.284919  0  3.117002  0  0  -0.237354  0  3.394522  0  0  -0.25195  0  3.411989  0  0  -0.223716  -0.227396  0  3.382476  0
N  N45  1  0.47633095  0.03015264  0.62389342  1  0  -0.284856  0  3.11682  0  0  -0.237196  0  3.394437  0  0  -0.25179  0  3.411904  0  0  -0.22371  -0.227245  0  3.3824  0
N  N46  1  0.97631132  0.53015243  0.87610442  1  0  -0.284916  0  3.116917  0  0  -0.237311  0  3.394449  0  0  -0.251907  0  3.411914  0  0  -0.223722  -0.227348  0  3.382394  0
N  N47  1  0.52367019  0.96985074  0.37610227  1  0  -0.284834  0  3.116829  0  0  -0.237163  0  3.394482  0  0  -0.251757  0  3.411951  0  0  -0.223692  -0.227216  0  3.382446  0
N  N48  1  0.85506257  0.42283544  0.10449038  1  0  -0.107678  0  3.188726  0  0  -0.056154  0  3.485952  0  0  -0.06593  0  3.504351  0  0  -0.108549  -0.049274  0  3.47319  0
N  N49  1  0.64495723  0.07716425  0.60448569  1  0  -0.10763  0  3.188401  0  0  -0.056217  0  3.485738  0  0  -0.065996  0  3.504138  0  0  -0.108634  -0.049344  0  3.472993  0
N  N50  1  0.14494097  0.57716572  0.89551106  1  0  -0.107696  0  3.18869  0  0  -0.056187  0  3.485922  0  0  -0.065962  0  3.504319  0  0  -0.108556  -0.049311  0  3.473163  0
N  N51  1  0.35504366  0.92283692  0.39551216  1  0  -0.107642  0  3.188461  0  0  -0.056184  0  3.485742  0  0  -0.065962  0  3.504142  0  0  -0.108614  -0.049306  0  3.472993  0
N  N52  1  0.76610062  0.39327574  0.18508755  1  0  -0.070988  0  2.943175  0  0  -0.075376  0  3.237555  0  0  -0.074  0  3.252651  0  0  -0.093393  -0.075907  0  3.22712  0
N  N53  1  0.73392038  0.10673008  0.68508279  1  0  -0.070994  0  2.942923  0  0  -0.075348  0  3.237291  0  0  -0.073969  0  3.252382  0  0  -0.093314  -0.075873  0  3.226854  0
N  N54  1  0.23390039  0.60672653  0.81491317  1  0  -0.070975  0  2.943151  0  0  -0.075359  0  3.237524  0  0  -0.073981  0  3.252617  0  0  -0.093389  -0.075888  0  3.227089  0
N  N55  1  0.26607774  0.89326999  0.31491577  1  0  -0.071014  0  2.943086  0  0  -0.075381  0  3.237424  0  0  -0.074004  0  3.252516  0  0  -0.093336  -0.075909  0  3.226989  0
N  N56  1  0.87658663  0.42157250  0.25918050  1  0  -0.301759  0  3.029077  0  0  -0.255936  0  3.298021  0  0  -0.269035  0  3.312529  0  0  -0.200942  -0.246985  0  3.288038  0
N  N57  1  0.62343255  0.07843628  0.75917503  1  0  -0.301747  0  3.029121  0  0  -0.255807  0  3.298091  0  0  -0.268907  0  3.312595  0  0  -0.200912  -0.246855  0  3.288099  0
N  N58  1  0.12341162  0.57842868  0.74082166  1  0  -0.301828  0  3.029163  0  0  -0.255975  0  3.298134  0  0  -0.269073  0  3.312637  0  0  -0.200936  -0.247027  0  3.288152  0
N  N59  1  0.37656041  0.92156491  0.24082210  1  0  -0.301811  0  3.029246  0  0  -0.255823  0  3.298231  0  0  -0.268923  0  3.312738  0  0  -0.200937  -0.246876  0  3.288241  0
N  N60  1  0.34312320  0.55273593  0.21757502  1  0  -0.29025  0  3.182775  0  0  -0.227645  0  3.438382  0  0  -0.241759  0  3.455625  0  0  -0.295968  -0.21773  0  3.426628  0
N  N61  1  0.15689225  0.94726906  0.71757439  1  0  -0.290189  0  3.182998  0  0  -0.227582  0  3.438623  0  0  -0.241683  0  3.455824  0  0  -0.295981  -0.217679  0  3.426892  0
N  N62  1  0.65687216  0.44726304  0.78242570  1  0  -0.290242  0  3.182925  0  0  -0.227625  0  3.438563  0  0  -0.241737  0  3.455804  0  0  -0.296001  -0.217706  0  3.426796  0
N  N63  1  0.84310467  0.05273212  0.28242202  1  0  -0.29022  0  3.183067  0  0  -0.227682  0  3.438687  0  0  -0.241785  0  3.45589  0  0  -0.296079  -0.217779  0  3.426957  0
N  N64  1  0.35851112  0.56390092  0.41684508  1  0  -0.247673  0  3.149047  0  0  -0.189889  0  3.401292  0  0  -0.199437  0  3.416542  0  0  -0.282811  -0.183259  0  3.391036  0
N  N65  1  0.14151854  0.93610116  0.91683877  1  0  -0.247709  0  3.149382  0  0  -0.18999  0  3.401675  0  0  -0.199542  0  3.416938  0  0  -0.282996  -0.183359  0  3.3914  0
N  N66  1  0.64148820  0.43609804  0.58315852  1  0  -0.247741  0  3.149482  0  0  -0.190009  0  3.401732  0  0  -0.19955  0  3.416977  0  0  -0.282883  -0.183378  0  3.391481  0
N  N67  1  0.85848859  0.06389667  0.08315693  1  0  -0.247816  0  3.149268  0  0  -0.190064  0  3.40156  0  0  -0.199615  0  3.416826  0  0  -0.283005  -0.183424  0  3.391278  0
Cl  Cl68  1  0.60270636  0.69149683  0.99977543  1  0  -0.579161  0  0.918242  0  0  -0.520086  0  1.192558  0  0  -0.53849  0  1.169235  0  0  -0.318452  -0.506737  0  1.208462  0
Cl  Cl69  1  0.89729889  0.80851045  0.49977687  1  0  -0.579148  0  0.918266  0  0  -0.520063  0  1.192576  0  0  -0.538471  0  1.169246  0  0  -0.318435  -0.50671  0  1.208489  0
Cl  Cl70  1  0.39730114  0.30850433  0.00022601  1  0  -0.579147  0  0.91825  0  0  -0.520067  0  1.192561  0  0  -0.538473  0  1.169237  0  0  -0.31844  -0.506716  0  1.208467  0
Cl  Cl71  1  0.10270092  0.19149293  0.50022242  1  0  -0.579157  0  0.918264  0  0  -0.52007  0  1.192577  0  0  -0.538478  0  1.169247  0  0  -0.31844  -0.506719  0  1.208492  0
O  O72  1  0.18669173  0.79443038  0.08790955  1  0  -0.81968  0  1.958131  0  0  -0.756383  0  2.169549  0  0  -0.77822  0  2.136305  0  0  -0.60257  -0.740678  0  2.192354  0
O  O73  1  0.31330402  0.70555956  0.58791130  1  0  -0.819696  0  1.958037  0  0  -0.756368  0  2.169537  0  0  -0.778207  0  2.136301  0  0  -0.60255  -0.740662  0  2.192331  0
O  O74  1  0.81331000  0.20556637  0.91209189  1  0  -0.819697  0  1.958021  0  0  -0.756369  0  2.169479  0  0  -0.778203  0  2.136235  0  0  -0.602584  -0.740691  0  2.192341  0
O  O75  1  0.68669568  0.29444272  0.41209014  1  0  -0.819643  0  1.958072  0  0  -0.756297  0  2.16956  0  0  -0.778137  0  2.136328  0  0  -0.602529  -0.740584  0  2.192357  0
