# generated using pymatgen
data_MnH10(C7N4)2
_symmetry_space_group_name_H-M   'P 1'
_cell_length_a   7.61370244
_cell_length_b   8.66333083
_cell_length_c   12.60045862
_cell_angle_alpha   90.00500026
_cell_angle_beta   90.00142413
_cell_angle_gamma   115.59306005
_symmetry_Int_Tables_number   1
_chemical_formula_structural   MnH10(C7N4)2
_chemical_formula_sum   'Mn2 H20 C28 N16'
_cell_volume   749.58043555
_cell_formula_units_Z   2
loop_
 _symmetry_equiv_pos_site_id
 _symmetry_equiv_pos_as_xyz
  1  'x, y, z'
loop_
 _atom_site_type_symbol
 _atom_site_label
 _atom_site_symmetry_multiplicity
 _atom_site_fract_x
 _atom_site_fract_y
 _atom_site_fract_z
 _atom_site_occupancy
 _atom_site_pbe_cm5_charge
 _atom_site_pbe_ddec_charge
 _atom_site_pbe_ddec_spin_density
 _atom_site_pbe_ddec_sum_bond_order
 _atom_site_pbe_magmom
Mn  Mn0  1  0.00000576  0.00000640  0.00000159  1  0.65686  0.893366  -4.621621  2.607818  -4.416
Mn  Mn1  1  0.49998905  0.49999182  0.49999872  1  0.656993  0.893288  -4.621351  2.608627  -4.416
H  H2  1  0.95282503  0.68802959  0.13757263  1  0.111489  0.076907  -0.000961  1.039564  -0.001
H  H3  1  0.45279528  0.18799343  0.36241498  1  0.111475  0.076867  -0.000962  1.039491  -0.001
H  H4  1  0.04717335  0.31198477  0.86243038  1  0.111509  0.076896  -0.00096  1.03965  -0.001
H  H5  1  0.54719195  0.81199279  0.63758406  1  0.111474  0.076847  -0.000962  1.039489  -0.001
H  H6  1  0.77588938  0.36900807  0.14286183  1  0.102128  0.103404  -0.000423  1.036842  0.0
H  H7  1  0.27584092  0.86897063  0.35711387  1  0.102213  0.103735  -0.000423  1.036779  0.0
H  H8  1  0.22411094  0.63100757  0.85714039  1  0.102153  0.103415  -0.000423  1.036837  0.0
H  H9  1  0.72415351  0.13101688  0.64288358  1  0.102213  0.103762  -0.000423  1.036839  0.0
H  H10  1  0.56909288  0.21551201  0.98645872  1  0.101838  0.088657  8.5e-05  1.035512  0.0
H  H11  1  0.06907657  0.71551539  0.51351912  1  0.101774  0.088536  8.4e-05  1.035767  0.0
H  H12  1  0.43091808  0.78449854  0.01354270  1  0.101879  0.088668  8.5e-05  1.035558  0.0
H  H13  1  0.93092068  0.28446446  0.48647912  1  0.101742  0.088564  8.4e-05  1.035875  0.0
H  H14  1  0.55973893  0.38939527  0.82816623  1  0.107211  0.115202  -0.000285  1.003187  0.0
H  H15  1  0.05975271  0.88940166  0.67182859  1  0.107241  0.115236  -0.000285  1.003127  0.0
H  H16  1  0.44027598  0.61061530  0.17183281  1  0.107185  0.115176  -0.000285  1.003134  0.0
H  H17  1  0.94023859  0.11057945  0.32816965  1  0.107228  0.115274  -0.000285  1.003212  0.0
H  H18  1  0.74958525  0.70657142  0.83525902  1  0.115395  0.083836  -0.000693  1.005248  0.0
H  H19  1  0.24961470  0.20657161  0.66473402  1  0.115529  0.083937  -0.000691  1.005441  0.0
H  H20  1  0.25042959  0.29344170  0.16474002  1  0.115432  0.083884  -0.000693  1.005145  0.0
H  H21  1  0.75036740  0.79340948  0.33526264  1  0.11551  0.083976  -0.000691  1.005262  0.0
C  C22  1  0.64331655  0.99489536  0.84919526  1  0.314414  0.438938  -0.027323  4.259537  -0.027
C  C23  1  0.14334440  0.49490998  0.65079429  1  0.314163  0.43849  -0.027396  4.258618  -0.027
C  C24  1  0.35669041  0.00511775  0.15080537  1  0.314468  0.439079  -0.02732  4.259647  -0.027
C  C25  1  0.85666425  0.50508778  0.34920396  1  0.314143  0.438572  -0.027366  4.258832  -0.027
C  C26  1  0.34053356  0.99499649  0.84477814  1  0.312939  0.439241  -0.029825  4.265249  -0.029
C  C27  1  0.84052967  0.49502214  0.65521329  1  0.312992  0.43915  -0.029881  4.264232  -0.029
C  C28  1  0.65946407  0.00502171  0.15522487  1  0.312901  0.43914  -0.029813  4.265532  -0.029
C  C29  1  0.15945957  0.50496280  0.34478099  1  0.312941  0.439228  -0.02987  4.264326  -0.029
C  C30  1  0.86334696  0.61624430  0.07098658  1  0.047718  0.091632  -0.004995  3.943678  -0.004
C  C31  1  0.36331352  0.11621173  0.42901218  1  0.047679  0.091591  -0.004989  3.944763  -0.004
C  C32  1  0.13665668  0.38377008  0.92901405  1  0.047678  0.091581  -0.004995  3.943824  -0.004
C  C33  1  0.63667565  0.88377576  0.57098686  1  0.047687  0.091708  -0.004989  3.944498  -0.004
C  C34  1  0.76458017  0.43866652  0.07337757  1  -0.086184  -0.128017  0.000541  3.973694  0.0
C  C35  1  0.26455618  0.93863622  0.42659598  1  -0.086197  -0.128506  0.000541  3.973417  0.0
C  C36  1  0.23542930  0.56135171  0.92662465  1  -0.086196  -0.127962  0.000541  3.973827  0.0
C  C37  1  0.73543624  0.06135256  0.57340305  1  -0.086223  -0.128593  0.000542  3.973364  0.0
C  C38  1  0.65195592  0.35405935  0.98599115  1  -0.068473  -0.024362  -0.00366  3.963407  -0.003
C  C39  1  0.15193980  0.85405499  0.51401024  1  -0.068555  -0.024395  -0.003659  3.963698  -0.003
C  C40  1  0.34804840  0.64595375  0.01401027  1  -0.068513  -0.024486  -0.00366  3.963453  -0.003
C  C41  1  0.84805407  0.14592868  0.48598801  1  -0.068451  -0.024257  -0.003659  3.963696  -0.003
C  C42  1  0.64548665  0.44952496  0.89836619  1  -0.084307  -0.125019  0.000322  3.966996  0.0
C  C43  1  0.14549260  0.94951537  0.60161541  1  -0.084233  -0.124792  0.00032  3.967697  0.0
C  C44  1  0.35452563  0.55048560  0.10163365  1  -0.08421  -0.124883  0.000322  3.966913  0.0
C  C45  1  0.85450127  0.05046830  0.39838125  1  -0.084249  -0.124956  0.00032  3.967676  0.0
C  C46  1  0.75061981  0.62686390  0.90202578  1  0.049665  0.092454  -0.004771  3.945125  -0.004
C  C47  1  0.25062145  0.12685788  0.59797707  1  0.049508  0.092362  -0.004774  3.944577  -0.004
C  C48  1  0.24939241  0.37314922  0.09797246  1  0.049507  0.092369  -0.004771  3.945242  -0.004
C  C49  1  0.74936653  0.87312450  0.40202038  1  0.049539  0.092426  -0.004775  3.944236  -0.004
N  N50  1  0.79628234  0.01312686  0.88209025  1  -0.365761  -0.531091  -0.033458  3.137491  -0.009
N  N51  1  0.29634455  0.51315254  0.61790178  1  -0.365624  -0.530805  -0.03344  3.137495  -0.009
N  N52  1  0.20372918  0.98688753  0.11791435  1  -0.365799  -0.531207  -0.033461  3.137693  -0.009
N  N53  1  0.70366440  0.48683244  0.38209409  1  -0.365598  -0.530871  -0.033448  3.137374  -0.009
N  N54  1  0.48109803  0.96929028  0.80354232  1  -0.303395  -0.383274  -0.015334  3.560606  -0.012
N  N55  1  0.98111410  0.46929829  0.69649113  1  -0.303408  -0.38329  -0.015354  3.558683  -0.012
N  N56  1  0.51891412  0.03072540  0.19645672  1  -0.303414  -0.383271  -0.015331  3.560983  -0.012
N  N57  1  0.01888090  0.53069306  0.30351822  1  -0.303405  -0.383358  -0.015349  3.559121  -0.012
N  N58  1  0.20393520  0.01421863  0.87404341  1  -0.3677  -0.534472  -0.033041  3.111839  -0.009
N  N59  1  0.70391732  0.51424201  0.62594714  1  -0.367638  -0.534134  -0.033028  3.112007  -0.009
N  N60  1  0.79606506  0.98579958  0.12595880  1  -0.367645  -0.534407  -0.033041  3.111671  -0.009
N  N61  1  0.29606522  0.48574803  0.37404872  1  -0.367589  -0.534197  -0.033031  3.112076  -0.009
N  N62  1  0.85609800  0.70958901  0.98710347  1  -0.31542  -0.250704  -0.035385  3.511554  -0.021
N  N63  1  0.35610436  0.20956753  0.51287999  1  -0.31541  -0.250594  -0.035394  3.511619  -0.021
N  N64  1  0.14390695  0.29042537  0.01289875  1  -0.315386  -0.250709  -0.035385  3.511735  -0.021
N  N65  1  0.64388037  0.79041357  0.48711984  1  -0.315432  -0.250781  -0.035393  3.511448  -0.021
