# generated using pymatgen
data_Cu3H10C12S2IO2
_symmetry_space_group_name_H-M   'P 1'
_cell_length_a   4.06508684
_cell_length_b   5.76136408
_cell_length_c   28.96376617
_cell_angle_alpha   89.99913028
_cell_angle_beta   90.00005730
_cell_angle_gamma   90.00055641
_symmetry_Int_Tables_number   1
_chemical_formula_structural   Cu3H10C12S2IO2
_chemical_formula_sum   'Cu6 H20 C24 S4 I2 O4'
_cell_volume   678.34430129
_cell_formula_units_Z   2
loop_
 _symmetry_equiv_pos_site_id
 _symmetry_equiv_pos_as_xyz
  1  'x, y, z'
loop_
 _atom_site_type_symbol
 _atom_site_label
 _atom_site_symmetry_multiplicity
 _atom_site_fract_x
 _atom_site_fract_y
 _atom_site_fract_z
 _atom_site_occupancy
 _atom_site_hle17_bader_spin_density
 _atom_site_hle17_ddec_charge
 _atom_site_hle17_ddec_spin_density
 _atom_site_hle17_ddec_sum_bond_order
 _atom_site_hle17_magmom
 _atom_site_hse06_10hf_bader_charge
 _atom_site_hse06_10hf_bader_spin_density
 _atom_site_hse06_10hf_ddec_charge
 _atom_site_hse06_10hf_ddec_spin_density
 _atom_site_hse06_10hf_ddec_sum_bond_order
 _atom_site_hse06_10hf_magmom
 _atom_site_hse06_bader_spin_density
 _atom_site_hse06_ddec_charge
 _atom_site_hse06_ddec_spin_density
 _atom_site_hse06_ddec_sum_bond_order
 _atom_site_hse06_magmom
 _atom_site_pbe_bader_spin_density
 _atom_site_pbe_cm5_charge
 _atom_site_pbe_ddec_charge
 _atom_site_pbe_ddec_spin_density
 _atom_site_pbe_ddec_sum_bond_order
 _atom_site_pbe_magmom
Cu  Cu0  1  0.05978902  0.28627835  0.95501695  1  0  0.278439  0  2.20376  0  0.38928  0  0.21259  0  2.686918  0  0  0.225151  0  2.626839  0  0  0.26698  0.204424  0  2.728406  0
Cu  Cu1  1  0.55976471  0.71369121  0.54498195  1  0  0.278574  0  2.203644  0  0.389364  0  0.212733  0  2.686748  0  0  0.225294  0  2.626674  0  0  0.267102  0.204585  0  2.728267  0
Cu  Cu2  1  0.44015076  0.71374444  0.45502886  1  0  0.278643  0  2.203809  0  0.388484  0  0.212768  0  2.687  0  0  0.22533  0  2.626931  0  0  0.267055  0.204655  0  2.728446  0
Cu  Cu3  1  0.94018086  0.28626601  0.04496893  1  0  0.278608  0  2.203842  0  0.38812  0  0.21277  0  2.687002  0  0  0.225336  0  2.626901  0  0  0.267051  0.204635  0  2.728487  0
Cu  Cu4  1  0.50001684  0.00400505  0.99999154  1  0  0.221871  0  2.313031  0  0.390564  0  0.188583  0  2.754564  0  0  0.192492  0  2.702866  0  0  0.253941  0.186285  0  2.790559  0
Cu  Cu5  1  0.99995350  0.99598900  0.50001468  1  0  0.221732  0  2.313188  0  0.390955  0  0.188365  0  2.754775  0  0  0.192288  0  2.703038  0  0  0.253845  0.186079  0  2.790798  0
H  H6  1  0.29898415  0.71750184  0.90994102  1  0  0.084719  0  0.999477  0  0.097388  0  0.093212  0  1.072041  0  0  0.096076  0  1.070214  0  0  0.077879  0.091014  0  1.073605  0
H  H7  1  0.79901692  0.28249748  0.59005584  1  0  0.08483  0  0.99945  0  0.097468  0  0.093244  0  1.072071  0  0  0.096109  0  1.070244  0  0  0.077865  0.091044  0  1.073646  0
H  H8  1  0.20100211  0.28252956  0.40995007  1  0  0.08476  0  0.999221  0  0.100676  0  0.0932  0  1.071815  0  0  0.096067  0  1.069983  0  0  0.077863  0.090997  0  1.073389  0
H  H9  1  0.70104944  0.71748585  0.09005148  1  0  0.084778  0  0.999264  0  0.100531  0  0.093132  0  1.071917  0  0  0.095995  0  1.070092  0  0  0.077834  0.090935  0  1.07349  0
H  H10  1  0.88757650  0.25253344  0.84697483  1  0  0.092044  0  0.957504  0  0.065613  0  0.103197  0  1.021359  0  0  0.106247  0  1.019261  0  0  0.095438  0.100941  0  1.023043  0
H  H11  1  0.38756962  0.74747876  0.65302895  1  0  0.092049  0  0.957262  0  0.065132  0  0.103131  0  1.021219  0  0  0.106172  0  1.019126  0  0  0.095436  0.10088  0  1.022907  0
H  H12  1  0.61245200  0.74745133  0.34699418  1  0  0.092241  0  0.957121  0  0.065581  0  0.103335  0  1.021064  0  0  0.106345  0  1.019043  0  0  0.09552  0.101094  0  1.022713  0
H  H13  1  0.11247419  0.25254252  0.15300908  1  0  0.092303  0  0.957016  0  0.065673  0  0.103295  0  1.021055  0  0  0.106304  0  1.019042  0  0  0.095467  0.101054  0  1.022705  0
H  H14  1  0.32859829  0.48613933  0.83786615  1  0  0.107048  0  0.959913  0  0.069565  0  0.118062  0  1.022101  0  0  0.121209  0  1.020621  0  0  0.100311  0.115792  0  1.023319  0
H  H15  1  0.82862415  0.51387065  0.66212865  1  0  0.106925  0  0.95981  0  0.069497  0  0.117927  0  1.022051  0  0  0.121075  0  1.020569  0  0  0.100222  0.115661  0  1.023273  0
H  H16  1  0.17136050  0.51386453  0.33786758  1  0  0.106924  0  0.959911  0  0.069714  0  0.11792  0  1.022139  0  0  0.121076  0  1.020647  0  0  0.100232  0.115649  0  1.023364  0
H  H17  1  0.67138359  0.48612113  0.16212947  1  0  0.106891  0  0.959908  0  0.069385  0  0.117916  0  1.022123  0  0  0.121069  0  1.020637  0  0  0.100217  0.115646  0  1.023344  0
H  H18  1  0.91568022  0.02159445  0.77466691  1  0  0.110469  0  0.983546  0  0.078048  0  0.117386  0  1.052193  0  0  0.120757  0  1.050496  0  0  0.101417  0.114981  0  1.053441  0
H  H19  1  0.41569840  0.97843187  0.72533550  1  0  0.110474  0  0.983526  0  0.077988  0  0.117424  0  1.052138  0  0  0.120801  0  1.050426  0  0  0.101463  0.11502  0  1.053383  0
H  H20  1  0.58431834  0.97836453  0.27467692  1  0  0.110413  0  0.983279  0  0.078229  0  0.117293  0  1.052003  0  0  0.120673  0  1.050277  0  0  0.101399  0.114885  0  1.053251  0
H  H21  1  0.08433599  0.02161173  0.22532185  1  0  0.110299  0  0.98337  0  0.078149  0  0.117241  0  1.052033  0  0  0.120618  0  1.050312  0  0  0.101388  0.114833  0  1.053284  0
H  H22  1  0.43885663  0.51849290  0.75497599  1  0  0.385208  0  0.91176  0  0.676656  0  0.356414  0  0.982786  0  0  0.367319  0  0.971092  0  0  0.30711  0.348849  0  0.990807  0
H  H23  1  0.93886540  0.48155271  0.74501710  1  0  0.385442  0  0.911375  0  0.676579  0  0.35657  0  0.982549  0  0  0.367478  0  0.970838  0  0  0.307201  0.349003  0  0.990584  0
H  H24  1  0.06107953  0.48148771  0.25498130  1  0  0.385421  0  0.91152  0  0.676893  0  0.356555  0  0.982652  0  0  0.367463  0  0.970934  0  0  0.307151  0.348976  0  0.990708  0
H  H25  1  0.56108378  0.51847620  0.24501608  1  0  0.385329  0  0.911704  0  0.676765  0  0.356532  0  0.982701  0  0  0.367438  0  0.970993  0  0  0.307159  0.348954  0  0.990759  0
C  C26  1  0.58459033  0.00235050  0.88271640  1  0  0.083835  0  3.749271  0  -0.174391  0  0.106309  0  3.98898  0  0  0.105123  0  4.015907  0  0  -0.025891  0.106814  0  3.970901  0
C  C27  1  0.08459579  0.99763142  0.61728803  1  0  0.083842  0  3.749056  0  -0.174729  0  0.10632  0  3.988726  0  0  0.105135  0  4.015646  0  0  -0.025862  0.106824  0  3.970659  0
C  C28  1  0.91540885  0.99766629  0.38272951  1  0  0.084369  0  3.748716  0  -0.175267  0  0.10684  0  3.988378  0  0  0.10565  0  4.015313  0  0  -0.025562  0.107343  0  3.970322  0
C  C29  1  0.41545765  0.00234223  0.11727173  1  0  0.084408  0  3.74876  0  -0.17517  0  0.106837  0  3.988416  0  0  0.105649  0  4.015355  0  0  -0.025525  0.107342  0  3.970355  0
C  C30  1  0.43219684  0.78539195  0.88025625  1  0  -0.078414  0  3.755322  0  -0.017545  0  -0.093259  0  3.992298  0  0  -0.095305  0  4.017157  0  0  -0.096923  -0.091704  0  3.975542  0
C  C31  1  0.93218723  0.21462410  0.61974512  1  0  -0.078389  0  3.755279  0  -0.017306  0  -0.093175  0  3.99228  0  0  -0.09522  0  4.01714  0  0  -0.096819  -0.091622  0  3.97553  0
C  C32  1  0.06781385  0.21462260  0.38026273  1  0  -0.078467  0  3.7555  0  -0.020782  0  -0.093242  0  3.992537  0  0  -0.095284  0  4.017387  0  0  -0.096984  -0.091683  0  3.975792  0
C  C33  1  0.56784487  0.78537782  0.11973777  1  0  -0.078483  0  3.755734  0  -0.020511  0  -0.093175  0  3.992835  0  0  -0.095215  0  4.017696  0  0  -0.096932  -0.091621  0  3.976097  0
C  C34  1  0.76246141  0.08561941  0.84470431  1  0  -0.083653  0  3.755294  0  0.042562  0  -0.100757  0  3.999952  0  0  -0.101836  0  4.021618  0  0  -0.094296  -0.099784  0  3.985202  0
C  C35  1  0.26244651  0.91439175  0.65529911  1  0  -0.083792  0  3.755861  0  0.042849  0  -0.10084  0  4.000549  0  0  -0.101916  0  4.022223  0  0  -0.094405  -0.099866  0  3.9858  0
C  C36  1  0.73754985  0.91437941  0.34471385  1  0  -0.084208  0  3.755263  0  0.042866  0  -0.101289  0  3.999935  0  0  -0.102379  0  4.021607  0  0  -0.094559  -0.10031  0  3.985204  0
C  C37  1  0.23759485  0.08561200  0.15528874  1  0  -0.084483  0  3.75514  0  0.04231  0  -0.10144  0  3.999844  0  0  -0.102525  0  4.021501  0  0  -0.094618  -0.100464  0  3.985115  0
C  C38  1  0.44771844  0.65550590  0.83965849  1  0  -0.196924  0  3.76008  0  0.009813  0  -0.214931  0  4.010449  0  0  -0.220797  0  4.032161  0  0  -0.107511  -0.211006  0  3.995807  0
C  C39  1  0.94773261  0.34448945  0.66034013  1  0  -0.196926  0  3.76064  0  0.009852  0  -0.214924  0  4.011013  0  0  -0.220796  0  4.032743  0  0  -0.107566  -0.210996  0  3.996375  0
C  C40  1  0.05227234  0.34448220  0.33966594  1  0  -0.196857  0  3.760119  0  0.00987  0  -0.214859  0  4.010483  0  0  -0.220722  0  4.032184  0  0  -0.107465  -0.210937  0  3.995856  0
C  C41  1  0.55229726  0.65551635  0.16033386  1  0  -0.196989  0  3.760305  0  0.010139  0  -0.215003  0  4.01068  0  0  -0.22086  0  4.032362  0  0  -0.107547  -0.211084  0  3.99606  0
C  C42  1  0.77829347  0.95713336  0.80419823  1  0  -0.180508  0  3.756341  0  -0.010252  0  -0.203513  0  4.012828  0  0  -0.208068  0  4.03206  0  0  -0.108179  -0.20046  0  3.999854  0
C  C43  1  0.27829397  0.04285884  0.69580208  1  0  -0.180565  0  3.756168  0  -0.01028  0  -0.203598  0  4.012659  0  0  -0.208154  0  4.031903  0  0  -0.10821  -0.200541  0  3.99968  0
C  C44  1  0.72172739  0.04283033  0.30421147  1  0  -0.180524  0  3.75643  0  -0.01061  0  -0.203489  0  4.012904  0  0  -0.208034  0  4.03213  0  0  -0.10826  -0.200428  0  3.999931  0
C  C45  1  0.22174517  0.95715054  0.19579216  1  0  -0.180105  0  3.756299  0  -0.010095  0  -0.203115  0  4.012724  0  0  -0.207664  0  4.031967  0  0  -0.108119  -0.200054  0  3.999754  0
C  C46  1  0.61653193  0.74378401  0.80144856  1  0  0.313924  0  3.806401  0  0.367933  0  0.303481  0  4.068964  0  0  0.313626  0  4.084997  0  0  0.070783  0.296548  0  4.058064  0
C  C47  1  0.11650277  0.25625024  0.69854966  1  0  0.313942  0  3.806264  0  0.368341  0  0.303473  0  4.068846  0  0  0.31358  0  4.084901  0  0  0.070823  0.296551  0  4.057941  0
C  C48  1  0.88346186  0.25620245  0.30145254  1  0  0.314043  0  3.806268  0  0.368946  0  0.303596  0  4.068785  0  0  0.313729  0  4.084825  0  0  0.070852  0.296666  0  4.057884  0
C  C49  1  0.38348473  0.74378671  0.19854766  1  0  0.314064  0  3.806244  0  0.368783  0  0.303568  0  4.068878  0  0  0.313691  0  4.084927  0  0  0.070889  0.296632  0  4.057982  0
S  S50  1  0.55914798  0.18725267  0.93185889  1  0  -0.337309  0  3.204073  0  -0.378596  0  -0.295774  0  3.74839  0  0  -0.303241  0  3.709662  0  0  -0.297045  -0.290946  0  3.775358  0
S  S51  1  0.05912410  0.81272904  0.56814346  1  0  -0.337253  0  3.203922  0  -0.378536  0  -0.295675  0  3.748165  0  0  -0.303144  0  3.709439  0  0  -0.297021  -0.290861  0  3.775195  0
S  S52  1  0.94079983  0.81278818  0.43187707  1  0  -0.337589  0  3.204008  0  -0.378779  0  -0.296017  0  3.748293  0  0  -0.303477  0  3.709557  0  0  -0.297101  -0.291222  0  3.775324  0
S  S53  1  0.44083066  0.18722576  0.06812625  1  0  -0.337574  0  3.204  0  -0.37847  0  -0.296015  0  3.748313  0  0  -0.303473  0  3.709568  0  0  -0.297119  -0.291207  0  3.775344  0
I  I54  1  0.00006069  0.67837452  0.99999357  1  0  -0.269761  0  2.097146  0  -0.354591  0  -0.215072  0  2.609964  0  0  -0.228419  0  2.555329  0  0  -0.119983  -0.20581  0  2.649274  0
I  I55  1  0.50002941  0.32162058  0.50000083  1  0  -0.269755  0  2.09721  0  -0.35495  0  -0.215026  0  2.610056  0  0  -0.228374  0  2.555413  0  0  -0.119985  -0.205792  0  2.649418  0
O  O56  1  0.63198718  0.62729067  0.75973731  1  0  -0.554983  0  2.195483  0  -1.233617  0  -0.489209  0  2.408851  0  0  -0.508373  0  2.398947  0  0  -0.357093  -0.475745  0  2.415376  0
O  O57  1  0.13197675  0.37274544  0.74025987  1  0  -0.555077  0  2.19559  0  -1.233818  0  -0.489228  0  2.408957  0  0  -0.50828  0  2.39896  0  0  -0.357127  -0.475784  0  2.415489  0
O  O58  1  0.86797931  0.37269200  0.25974577  1  0  -0.555161  0  2.195812  0  -1.234199  0  -0.489295  0  2.409043  0  0  -0.508421  0  2.399107  0  0  -0.357075  -0.475837  0  2.415592  0
O  O59  1  0.36798393  0.62727620  0.24025270  1  0  -0.555114  0  2.195803  0  -1.234063  0  -0.489302  0  2.409107  0  0  -0.508391  0  2.399134  0  0  -0.35711  -0.47583  0  2.415641  0
