# generated using pymatgen
data_CdH16C16N2O5
_symmetry_space_group_name_H-M   'P 1'
_cell_length_a   9.07906560
_cell_length_b   9.19251115
_cell_length_c   10.98435686
_cell_angle_alpha   94.52890710
_cell_angle_beta   111.11718811
_cell_angle_gamma   109.76137522
_symmetry_Int_Tables_number   1
_chemical_formula_structural   CdH16C16N2O5
_chemical_formula_sum   'Cd2 H32 C32 N4 O10'
_cell_volume   783.49231944
_cell_formula_units_Z   2
loop_
 _symmetry_equiv_pos_site_id
 _symmetry_equiv_pos_as_xyz
  1  'x, y, z'
loop_
 _atom_site_type_symbol
 _atom_site_label
 _atom_site_symmetry_multiplicity
 _atom_site_fract_x
 _atom_site_fract_y
 _atom_site_fract_z
 _atom_site_occupancy
 _atom_site_pbe_bader_spin_density
 _atom_site_pbe_cm5_charge
 _atom_site_pbe_ddec_charge
 _atom_site_pbe_ddec_spin_density
 _atom_site_pbe_ddec_sum_bond_order
 _atom_site_pbe_magmom
Cd  Cd0  1  0.70731818  0.49726689  0.50638996  1  0  0.770386  0.952727  0  2.066293  0
Cd  Cd1  1  0.29266997  0.50272423  0.49360788  1  0  0.770378  0.952681  0  2.0664  0
H  H2  1  0.74982519  0.26195180  0.61103303  1  0  0.280599  0.37233  0  0.977153  0
H  H3  1  0.25018149  0.73805049  0.38896397  1  0  0.280604  0.372366  0  0.977094  0
H  H4  1  0.90338971  0.30980333  0.55789637  1  0  0.284656  0.38665  0  0.957088  0
H  H5  1  0.09661128  0.69020166  0.44210378  1  0  0.284642  0.386597  0  0.957144  0
H  H6  1  0.38436191  0.41639555  0.76883283  1  0  0.099068  0.090075  0  1.06402  0
H  H7  1  0.61564127  0.58360439  0.23116658  1  0  0.099035  0.090002  0  1.064074  0
H  H8  1  0.13498896  0.32009534  0.82872600  1  0  0.101578  0.100025  0  1.040078  0
H  H9  1  0.86500559  0.67989932  0.17126584  1  0  0.101588  0.100027  0  1.039907  0
H  H10  1  0.94387703  0.03041223  0.75678182  1  0  0.105633  0.109612  0  0.999801  0
H  H11  1  0.05610937  0.96957987  0.24322471  1  0  0.105643  0.109594  0  1.000005  0
H  H12  1  0.26083576  0.94248784  0.57196231  1  0  0.109821  0.116897  0  1.01128  0
H  H13  1  0.73916474  0.05749471  0.42804380  1  0  0.109786  0.116856  0  1.011113  0
H  H14  1  0.84433327  0.40396686  0.28994346  1  0  0.121756  0.108289  0  1.003537  0
H  H15  1  0.15566816  0.59603192  0.71005714  1  0  0.12173  0.108298  0  1.003443  0
H  H16  1  0.35167299  0.26413739  0.27875912  1  0  0.117307  0.101955  0  1.039343  0
H  H17  1  0.64832684  0.73586758  0.72124342  1  0  0.117306  0.101954  0  1.039332  0
H  H18  1  0.22032557  0.11560312  0.04025442  1  0  0.108331  0.110243  0  1.00194  0
H  H19  1  0.77968059  0.88440282  0.95974459  1  0  0.108332  0.110258  0  1.001964  0
H  H20  1  0.41363050  0.10525502  0.92676441  1  0  0.104682  0.105908  0  1.022263  0
H  H21  1  0.58637861  0.89475676  0.07323783  1  0  0.104685  0.105966  0  1.022256  0
H  H22  1  0.84192433  0.17359409  0.10292825  1  0  0.106798  0.087396  0  1.002243  0
H  H23  1  0.15808252  0.82641798  0.89707063  1  0  0.106744  0.087348  0  1.002237  0
H  H24  1  0.69683789  0.16354386  0.93987652  1  0  0.093918  0.067987  0  0.999782  0
H  H25  1  0.30316374  0.83646478  0.06012416  1  0  0.093899  0.067903  0  0.999783  0
H  H26  1  0.70538762  0.47234592  0.94302188  1  0  0.097879  0.07744  0  0.984941  0
H  H27  1  0.29460947  0.52766322  0.05697388  1  0  0.097911  0.077513  0  0.984872  0
H  H28  1  0.77994073  0.37998704  0.84211358  1  0  0.093618  0.072008  0  1.004365  0
H  H29  1  0.22006146  0.62002043  0.15788442  1  0  0.093624  0.072038  0  1.004316  0
H  H30  1  0.02130719  0.29382004  0.96076938  1  0  0.087149  0.050942  0  1.012012  0
H  H31  1  0.97868930  0.70618784  0.03922790  1  0  0.087123  0.050929  0  1.012028  0
H  H32  1  0.10573335  0.33457085  0.14007663  1  0  0.101093  0.085619  0  1.019271  0
H  H33  1  0.89426543  0.66543693  0.85991949  1  0  0.101055  0.085597  0  1.019289  0
C  C34  1  0.47880245  0.24786435  0.62021302  1  0  0.211911  0.586626  0  4.184717  0
C  C35  1  0.52117641  0.75211551  0.37977377  1  0  0.212086  0.586926  0  4.184544  0
C  C36  1  0.33587947  0.18605819  0.66492511  1  0  -0.020195  -0.03969  0  3.982634  0
C  C37  1  0.66411546  0.81392991  0.33507534  1  0  -0.020341  -0.040178  0  3.982656  0
C  C38  1  0.30180651  0.29091602  0.73960827  1  0  -0.087337  -0.101358  0  3.986668  0
C  C39  1  0.69820687  0.70908064  0.26039471  1  0  -0.087283  -0.101216  0  3.987059  0
C  C40  1  0.16326859  0.23602059  0.77482501  1  0  -0.089422  -0.075247  0  4.003731  0
C  C41  1  0.83672346  0.76397080  0.22518948  1  0  -0.089467  -0.075186  0  4.004271  0
C  C42  1  0.05707509  0.07511100  0.73513999  1  0  -0.081218  -0.090511  0  3.948342  0
C  C43  1  0.94291534  0.92487994  0.26485850  1  0  -0.081268  -0.090623  0  3.948307  0
C  C44  1  0.23258957  0.02366248  0.62887371  1  0  -0.075517  -0.105887  0  3.91228  0
C  C45  1  0.76742295  0.97632049  0.37113320  1  0  -0.075344  -0.105464  0  3.912099  0
C  C46  1  0.09125042  0.96785278  0.66208534  1  0  -0.021457  -0.046449  0  3.995582  0
C  C47  1  0.90875041  0.03214915  0.33792905  1  0  -0.02139  -0.046393  0  3.995285  0
C  C48  1  0.96829890  0.79768334  0.61276969  1  0  0.199907  0.55862  0  4.213234  0
C  C49  1  0.03170703  0.20230814  0.38722153  1  0  0.199817  0.558564  0  4.213289  0
C  C50  1  0.70683507  0.33538223  0.23292060  1  0  0.052039  0.051807  0  3.883712  0
C  C51  1  0.29316999  0.66462621  0.76707924  1  0  0.052073  0.051741  0  3.883592  0
C  C52  1  0.43157136  0.25958045  0.22572067  1  0  0.042332  0.080667  0  3.926543  0
C  C53  1  0.56842907  0.74042355  0.77427467  1  0  0.042356  0.080749  0  3.926256  0
C  C54  1  0.35938802  0.17558611  0.09350112  1  0  -0.083958  -0.120225  0  3.995354  0
C  C55  1  0.64061808  0.82441733  0.90649855  1  0  -0.083973  -0.120278  0  3.995217  0
C  C56  1  0.46700137  0.17030775  0.03057182  1  0  -0.067206  -0.087916  0  3.947522  0
C  C57  1  0.53300657  0.82970178  0.96942713  1  0  -0.067236  -0.088003  0  3.947539  0
C  C58  1  0.64468124  0.24888271  0.10157989  1  0  -0.002374  0.055875  0  3.94565  0
C  C59  1  0.35533178  0.75112500  0.89842494  1  0  -0.002332  0.055845  0  3.945554  0
C  C60  1  0.76925420  0.23749360  0.04386680  1  0  -0.062917  -0.108709  0  3.976221  0
C  C61  1  0.23075198  0.76251250  0.95612859  1  0  -0.062869  -0.108545  0  3.976241  0
C  C62  1  0.82029327  0.45975194  0.93956999  1  0  -0.072594  -0.077691  0  3.934192  0
C  C63  1  0.17970374  0.54025229  0.06042528  1  0  -0.072572  -0.077758  0  3.934111  0
C  C64  1  0.05018517  0.37918008  0.05205764  1  0  -0.072172  -0.081264  0  3.954591  0
C  C65  1  0.94981483  0.62083245  0.94794111  1  0  -0.072109  -0.081292  0  3.954496  0
N  N66  1  0.60311887  0.34007664  0.29366624  1  0  -0.332569  -0.255391  0  3.547053  0
N  N67  1  0.39687904  0.65991742  0.70633472  1  0  -0.332599  -0.255356  0  3.547029  0
N  N68  1  0.89330279  0.39156805  0.05084902  1  0  -0.342649  -0.13822  0  3.460819  0
N  N69  1  0.10669664  0.60844345  0.94914582  1  0  -0.342613  -0.138104  0  3.460535  0
O  O70  1  0.56252049  0.16545367  0.61507411  1  0  -0.308074  -0.52155  0  2.155983  0
O  O71  1  0.43749064  0.83454550  0.38493118  1  0  -0.308085  -0.52159  0  2.156156  0
O  O72  1  0.50649895  0.38688155  0.59116120  1  0  -0.34047  -0.597218  0  2.323062  0
O  O73  1  0.49348847  0.61310102  0.40883563  1  0  -0.340569  -0.597348  0  2.322985  0
O  O74  1  0.85284675  0.35076621  0.61253910  1  0  -0.593898  -0.768787  0  2.100183  0
O  O75  1  0.14715198  0.64923908  0.38745769  1  0  -0.593895  -0.768783  0  2.100195  0
O  O76  1  0.84889264  0.75005536  0.65378442  1  0  -0.322049  -0.551648  0  2.233551  0
O  O77  1  0.15111394  0.24994421  0.34621867  1  0  -0.321973  -0.551524  0  2.233985  0
O  O78  1  0.98054577  0.70328866  0.52849035  1  0  -0.314418  -0.561948  0  2.271937  0
O  O79  1  0.01945429  0.29670007  0.47151621  1  0  -0.31446  -0.562104  0  2.271594  0
