# generated using pymatgen
data_SnH13C9NO3
_symmetry_space_group_name_H-M   'P 1'
_cell_length_a   8.08264880
_cell_length_b   10.38037810
_cell_length_c   13.81360995
_cell_angle_alpha   89.99919569
_cell_angle_beta   90.00037440
_cell_angle_gamma   90.00021390
_symmetry_Int_Tables_number   1
_chemical_formula_structural   SnH13C9NO3
_chemical_formula_sum   'Sn4 H52 C36 N4 O12'
_cell_volume   1158.97500648
_cell_formula_units_Z   4
loop_
 _symmetry_equiv_pos_site_id
 _symmetry_equiv_pos_as_xyz
  1  'x, y, z'
loop_
 _atom_site_type_symbol
 _atom_site_label
 _atom_site_symmetry_multiplicity
 _atom_site_fract_x
 _atom_site_fract_y
 _atom_site_fract_z
 _atom_site_occupancy
 _atom_site_hle17_bader_spin_density
 _atom_site_hle17_ddec_charge
 _atom_site_hle17_ddec_spin_density
 _atom_site_hle17_ddec_sum_bond_order
 _atom_site_hle17_magmom
 _atom_site_hse06_10hf_bader_spin_density
 _atom_site_hse06_10hf_ddec_charge
 _atom_site_hse06_10hf_ddec_spin_density
 _atom_site_hse06_10hf_ddec_sum_bond_order
 _atom_site_hse06_10hf_magmom
 _atom_site_hse06_bader_spin_density
 _atom_site_hse06_ddec_charge
 _atom_site_hse06_ddec_spin_density
 _atom_site_hse06_ddec_sum_bond_order
 _atom_site_hse06_magmom
 _atom_site_pbe_bader_spin_density
 _atom_site_pbe_cm5_charge
 _atom_site_pbe_ddec_charge
 _atom_site_pbe_ddec_spin_density
 _atom_site_pbe_ddec_sum_bond_order
 _atom_site_pbe_magmom
Sn  Sn0  1  0.49230948  0.73984750  0.00616344  1  0  1.36926  0  2.922761  0  0  1.244204  0  3.407166  0  0  1.282118  0  3.392076  0  0  0.516852  1.218659  0  3.416426  0
Sn  Sn1  1  0.99230580  0.26015127  0.99383996  1  0  1.369164  0  2.92282  0  0  1.244096  0  3.407221  0  0  1.282007  0  3.392137  0  0  0.516765  1.218549  0  3.416465  0
Sn  Sn2  1  0.49232342  0.76014941  0.50616297  1  0  1.369314  0  2.922719  0  0  1.244233  0  3.407176  0  0  1.282144  0  3.392086  0  0  0.516854  1.218686  0  3.416432  0
Sn  Sn3  1  0.99230671  0.23985032  0.49383753  1  0  1.369219  0  2.922816  0  0  1.244151  0  3.407222  0  0  1.282064  0  3.392135  0  0  0.516817  1.218608  0  3.416466  0
H  H4  1  0.11546767  0.54811214  0.31407382  1  0  0.326846  0  0.926953  0  0  0.300115  0  1.001132  0  0  0.310639  0  0.991389  0  0  0.313558  0.292324  0  1.008527  0
H  H5  1  0.61544915  0.45187687  0.68592378  1  0  0.326709  0  0.926847  0  0  0.300003  0  1.001026  0  0  0.310526  0  0.99129  0  0  0.31356  0.292211  0  1.008424  0
H  H6  1  0.11543922  0.95189719  0.81407350  1  0  0.326777  0  0.926894  0  0  0.300059  0  1.001051  0  0  0.310585  0  0.99131  0  0  0.313598  0.292267  0  1.008445  0
H  H7  1  0.61544790  0.04811397  0.18592265  1  0  0.326757  0  0.926903  0  0  0.300022  0  1.001105  0  0  0.310547  0  0.991369  0  0  0.313571  0.292232  0  1.008497  0
H  H8  1  0.87757134  0.57004973  0.22187842  1  0  0.097781  0  0.932412  0  0  0.107291  0  0.995771  0  0  0.11032  0  0.992389  0  0  0.1326  0.104973  0  0.998496  0
H  H9  1  0.37755358  0.42993908  0.77811512  1  0  0.09783  0  0.932451  0  0  0.107332  0  0.995813  0  0  0.110361  0  0.99243  0  0  0.132632  0.105015  0  0.998546  0
H  H10  1  0.87754526  0.92994717  0.72187978  1  0  0.097803  0  0.93234  0  0  0.107301  0  0.995725  0  0  0.110333  0  0.992336  0  0  0.132617  0.104983  0  0.998456  0
H  H11  1  0.37755739  0.07005224  0.27812172  1  0  0.097839  0  0.932449  0  0  0.10734  0  0.995804  0  0  0.110368  0  0.99242  0  0  0.132643  0.105028  0  0.99853  0
H  H12  1  0.88941650  0.97903820  0.27519544  1  0  0.100736  0  0.934669  0  0  0.112569  0  0.993172  0  0  0.115975  0  0.989492  0  0  0.113485  0.109931  0  0.996068  0
H  H13  1  0.38940486  0.02095064  0.72480394  1  0  0.100712  0  0.934623  0  0  0.112484  0  0.993198  0  0  0.115886  0  0.989526  0  0  0.113433  0.109839  0  0.996093  0
H  H14  1  0.88941692  0.52095484  0.77520184  1  0  0.100767  0  0.934553  0  0  0.112571  0  0.993092  0  0  0.115975  0  0.989416  0  0  0.113494  0.109931  0  0.995987  0
H  H15  1  0.38940320  0.47903786  0.22480623  1  0  0.100725  0  0.934621  0  0  0.112512  0  0.99318  0  0  0.115913  0  0.989508  0  0  0.113493  0.109875  0  0.996071  0
H  H16  1  0.14909405  0.94904023  0.36910662  1  0  0.135623  0  0.955587  0  0  0.143702  0  1.01637  0  0  0.147764  0  1.015542  0  0  0.112278  0.140237  0  1.018035  0
H  H17  1  0.64908042  0.05094598  0.63089473  1  0  0.135581  0  0.955737  0  0  0.143693  0  1.016469  0  0  0.147756  0  1.015643  0  0  0.112348  0.140223  0  1.018139  0
H  H18  1  0.14909214  0.55096817  0.86911632  1  0  0.135651  0  0.955543  0  0  0.143702  0  1.016356  0  0  0.147765  0  1.015526  0  0  0.11234  0.140238  0  1.018019  0
H  H19  1  0.64907367  0.44904406  0.13088864  1  0  0.135604  0  0.955608  0  0  0.143685  0  1.016395  0  0  0.147747  0  1.015568  0  0  0.112344  0.140221  0  1.018056  0
H  H20  1  0.45967750  0.48605499  0.95181035  1  0  0.149221  0  1.002848  0  0  0.164386  0  1.066294  0  0  0.167275  0  1.06652  0  0  0.080119  0.162239  0  1.066347  0
H  H21  1  0.95967823  0.51394176  0.04818930  1  0  0.149191  0  1.002788  0  0  0.164347  0  1.066262  0  0  0.167235  0  1.06649  0  0  0.080084  0.162199  0  1.066319  0
H  H22  1  0.45967980  0.01393717  0.45180668  1  0  0.149221  0  1.002749  0  0  0.164387  0  1.066217  0  0  0.167275  0  1.066444  0  0  0.080118  0.162238  0  1.066271  0
H  H23  1  0.95967098  0.98605958  0.54819080  1  0  0.14917  0  1.002895  0  0  0.16432  0  1.066364  0  0  0.167208  0  1.066592  0  0  0.080059  0.162172  0  1.06642  0
H  H24  1  0.67369411  0.53002860  0.95717987  1  0  0.150364  0  0.998513  0  0  0.171058  0  1.053262  0  0  0.173463  0  1.054423  0  0  0.083117  0.169104  0  1.052913  0
H  H25  1  0.17369690  0.46997406  0.04281795  1  0  0.1504  0  0.998488  0  0  0.171096  0  1.053231  0  0  0.173502  0  1.05439  0  0  0.083138  0.16914  0  1.052888  0
H  H26  1  0.67369860  0.96997679  0.45718081  1  0  0.150387  0  0.998493  0  0  0.171085  0  1.053242  0  0  0.17349  0  1.054401  0  0  0.083137  0.169132  0  1.052894  0
H  H27  1  0.17369117  0.03002780  0.54281918  1  0  0.150319  0  0.998569  0  0  0.171009  0  1.05332  0  0  0.173413  0  1.054484  0  0  0.083111  0.169054  0  1.052973  0
H  H28  1  0.55066470  0.57971445  0.85651416  1  0  0.15501  0  1.007619  0  0  0.169445  0  1.071055  0  0  0.172329  0  1.071671  0  0  0.080942  0.167297  0  1.07072  0
H  H29  1  0.05067702  0.42028882  0.14348391  1  0  0.155003  0  1.007674  0  0  0.169459  0  1.071068  0  0  0.172344  0  1.071683  0  0  0.08094  0.167309  0  1.070735  0
H  H30  1  0.55067637  0.92028861  0.35651707  1  0  0.155001  0  1.007703  0  0  0.169474  0  1.071074  0  0  0.172359  0  1.071688  0  0  0.080944  0.167323  0  1.070743  0
H  H31  1  0.05066535  0.07970985  0.64348534  1  0  0.154996  0  1.007735  0  0  0.16943  0  1.071164  0  0  0.172316  0  1.07178  0  0  0.080942  0.167283  0  1.070828  0
H  H32  1  0.56874461  0.99327822  0.98061498  1  0  0.157009  0  0.982708  0  0  0.175722  0  1.036533  0  0  0.178665  0  1.036716  0  0  0.085512  0.173782  0  1.036276  0
H  H33  1  0.06874244  0.00672318  0.01938460  1  0  0.156997  0  0.982733  0  0  0.175713  0  1.036547  0  0  0.178656  0  1.03673  0  0  0.08551  0.173771  0  1.036289  0
H  H34  1  0.56874935  0.50671872  0.48061718  1  0  0.157038  0  0.982665  0  0  0.175733  0  1.036516  0  0  0.178677  0  1.036699  0  0  0.085505  0.173792  0  1.036264  0
H  H35  1  0.06874141  0.49328171  0.51938313  1  0  0.156983  0  0.982679  0  0  0.175681  0  1.036531  0  0  0.178625  0  1.036714  0  0  0.085476  0.17374  0  1.036275  0
H  H36  1  0.59483177  0.90723908  0.86934551  1  0  0.147373  0  0.998411  0  0  0.163798  0  1.059515  0  0  0.166011  0  1.060712  0  0  0.080989  0.162133  0  1.058923  0
H  H37  1  0.09483372  0.09275662  0.13065779  1  0  0.147433  0  0.998381  0  0  0.163836  0  1.059502  0  0  0.166052  0  1.060694  0  0  0.080995  0.162165  0  1.058925  0
H  H38  1  0.59483321  0.59276098  0.36934753  1  0  0.147436  0  0.99841  0  0  0.163854  0  1.059513  0  0  0.166069  0  1.060708  0  0  0.081013  0.162189  0  1.058926  0
H  H39  1  0.09483475  0.40724820  0.63065577  1  0  0.147413  0  0.998461  0  0  0.163835  0  1.059556  0  0  0.16605  0  1.06075  0  0  0.081  0.162168  0  1.05897  0
H  H40  1  0.74987426  0.89771566  0.96244680  1  0  0.150052  0  0.986147  0  0  0.168575  0  1.041008  0  0  0.17098  0  1.042038  0  0  0.083022  0.166767  0  1.040574  0
H  H41  1  0.24987522  0.10228241  0.03755783  1  0  0.150006  0  0.986099  0  0  0.16853  0  1.040967  0  0  0.170932  0  1.042004  0  0  0.083019  0.166722  0  1.040533  0
H  H42  1  0.74988069  0.60227926  0.46244437  1  0  0.150081  0  0.986159  0  0  0.16863  0  1.040971  0  0  0.171035  0  1.042002  0  0  0.083038  0.166823  0  1.040536  0
H  H43  1  0.24987374  0.39772266  0.53755519  1  0  0.150055  0  0.986108  0  0  0.168573  0  1.040974  0  0  0.170973  0  1.042013  0  0  0.083023  0.166763  0  1.040544  0
H  H44  1  0.17969199  0.71161524  0.07723636  1  0  0.151008  0  0.997156  0  0  0.169346  0  1.0539  0  0  0.171516  0  1.055587  0  0  0.081264  0.167574  0  1.053124  0
H  H45  1  0.67969138  0.28839612  0.92276727  1  0  0.151082  0  0.997127  0  0  0.169395  0  1.053888  0  0  0.171566  0  1.055573  0  0  0.08128  0.167614  0  1.05312  0
H  H46  1  0.17968998  0.78838041  0.57722112  1  0  0.151076  0  0.997233  0  0  0.16943  0  1.05394  0  0  0.171599  0  1.05563  0  0  0.08133  0.167656  0  1.05317  0
H  H47  1  0.67968844  0.21162131  0.42276659  1  0  0.151052  0  0.997175  0  0  0.169395  0  1.053915  0  0  0.171565  0  1.055603  0  0  0.081314  0.167622  0  1.053137  0
H  H48  1  0.27613748  0.85041618  0.13025599  1  0  0.155793  0  0.993602  0  0  0.173354  0  1.05224  0  0  0.175679  0  1.053723  0  0  0.083489  0.171501  0  1.0517  0
H  H49  1  0.77612201  0.14959449  0.86974223  1  0  0.155866  0  0.99348  0  0  0.17339  0  1.052177  0  0  0.175715  0  1.053661  0  0  0.083488  0.171533  0  1.051638  0
H  H50  1  0.27611996  0.64958068  0.63024945  1  0  0.155856  0  0.993533  0  0  0.1734  0  1.052204  0  0  0.175724  0  1.053689  0  0  0.083489  0.171538  0  1.051674  0
H  H51  1  0.77612716  0.35042229  0.36974153  1  0  0.15589  0  0.993509  0  0  0.173446  0  1.052146  0  0  0.175771  0  1.05363  0  0  0.083514  0.171582  0  1.05162  0
H  H52  1  0.32894057  0.69337053  0.17248339  1  0  0.148459  0  1.001298  0  0  0.165076  0  1.061849  0  0  0.167415  0  1.06278  0  0  0.081634  0.163315  0  1.061427  0
H  H53  1  0.82893652  0.30663837  0.82752010  1  0  0.148477  0  1.001333  0  0  0.165094  0  1.061875  0  0  0.167433  0  1.062804  0  0  0.081639  0.163329  0  1.061461  0
H  H54  1  0.32892009  0.80662570  0.67247302  1  0  0.148452  0  1.001285  0  0  0.165055  0  1.061846  0  0  0.167393  0  1.062776  0  0  0.081637  0.163298  0  1.061415  0
H  H55  1  0.82893226  0.19337453  0.32751888  1  0  0.148471  0  1.001327  0  0  0.165083  0  1.061891  0  0  0.167421  0  1.062822  0  0  0.081673  0.16332  0  1.061475  0
C  C56  1  0.71605773  0.79127308  0.17527218  1  0  0.654523  0  3.927063  0  0  0.6056  0  4.217378  0  0  0.640866  0  4.209318  0  0  0.2209  0.581804  0  4.221959  0
C  C57  1  0.21604685  0.20872200  0.82472580  1  0  0.654733  0  3.926688  0  0  0.605802  0  4.217007  0  0  0.641074  0  4.20894  0  0  0.221057  0.582012  0  4.221582  0
C  C58  1  0.71604915  0.70871940  0.67527515  1  0  0.654434  0  3.927065  0  0  0.605489  0  4.217411  0  0  0.640754  0  4.209353  0  0  0.220906  0.581695  0  4.221987  0
C  C59  1  0.21605295  0.29127665  0.32473080  1  0  0.654438  0  3.927037  0  0  0.605512  0  4.217373  0  0  0.640782  0  4.209315  0  0  0.22093  0.58172  0  4.221947  0
C  C60  1  0.93089953  0.65683922  0.25304226  1  0  0.169767  0  3.658995  0  0  0.117232  0  3.91563  0  0  0.131451  0  3.929297  0  0  0.071802  0.10827  0  3.906198  0
C  C61  1  0.43087978  0.34314974  0.74695656  1  0  0.169656  0  3.658939  0  0  0.117147  0  3.915571  0  0  0.131372  0  3.929229  0  0  0.071742  0.108171  0  3.906159  0
C  C62  1  0.93087428  0.84315628  0.75304164  1  0  0.16967  0  3.65897  0  0  0.117148  0  3.915588  0  0  0.131368  0  3.92925  0  0  0.07169  0.108174  0  3.906169  0
C  C63  1  0.43088400  0.15683461  0.24696007  1  0  0.169707  0  3.659085  0  0  0.117178  0  3.915725  0  0  0.131406  0  3.929387  0  0  0.07172  0.1082  0  3.906308  0
C  C64  1  0.86284656  0.77722119  0.23907628  1  0  -0.167091  0  3.796469  0  0  -0.147315  0  4.04693  0  0  -0.164361  0  4.070887  0  0  -0.030723  -0.136561  0  4.030576  0
C  C65  1  0.36283504  0.22277143  0.76092300  1  0  -0.167012  0  3.796489  0  0  -0.147221  0  4.046894  0  0  -0.164269  0  4.07084  0  0  -0.03071  -0.136467  0  4.030539  0
C  C66  1  0.86283310  0.72277823  0.73907766  1  0  -0.166954  0  3.796545  0  0  -0.147134  0  4.04691  0  0  -0.164177  0  4.070861  0  0  -0.030705  -0.13638  0  4.030557  0
C  C67  1  0.36283489  0.27722306  0.26092741  1  0  -0.167048  0  3.79626  0  0  -0.147263  0  4.046692  0  0  -0.164316  0  4.070645  0  0  -0.030763  -0.136502  0  4.030338  0
C  C68  1  0.94197954  0.88303591  0.28454408  1  0  0.031047  0  3.711592  0  0  0.001075  0  3.963463  0  0  0.011736  0  3.97869  0  0  -0.054893  -0.005306  0  3.952628  0
C  C69  1  0.44196330  0.11695598  0.71545623  1  0  0.030967  0  3.711363  0  0  0.00104  0  3.963252  0  0  0.011708  0  3.978471  0  0  -0.054848  -0.005336  0  3.952403  0
C  C70  1  0.94196928  0.61696193  0.78454657  1  0  0.030939  0  3.711275  0  0  0.000978  0  3.963142  0  0  0.011641  0  3.978362  0  0  -0.054921  -0.005401  0  3.952302  0
C  C71  1  0.44197232  0.38303863  0.21545446  1  0  0.03104  0  3.711747  0  0  0.001109  0  3.963626  0  0  0.011777  0  3.978849  0  0  -0.054895  -0.005273  0  3.952784  0
C  C72  1  0.08554644  0.86698370  0.33694951  1  0  -0.260324  0  3.671061  0  0  -0.274132  0  3.925907  0  0  -0.288757  0  3.944219  0  0  -0.096628  -0.264535  0  3.913976  0
C  C73  1  0.58553603  0.13300715  0.66304797  1  0  -0.260033  0  3.670958  0  0  -0.273865  0  3.925732  0  0  -0.28849  0  3.944042  0  0  -0.096526  -0.264267  0  3.913794  0
C  C74  1  0.08554121  0.63302705  0.83695401  1  0  -0.26022  0  3.671049  0  0  -0.273945  0  3.925911  0  0  -0.288567  0  3.944219  0  0  -0.096486  -0.264345  0  3.913977  0
C  C75  1  0.58552641  0.36698500  0.16305144  1  0  -0.260268  0  3.671214  0  0  -0.274047  0  3.926061  0  0  -0.288671  0  3.944369  0  0  -0.096601  -0.264445  0  3.914119  0
C  C76  1  0.15789005  0.74180812  0.34676093  1  0  0.560445  0  3.849776  0  0  0.519438  0  4.124766  0  0  0.547792  0  4.127684  0  0  0.231912  0.50044  0  4.122153  0
C  C77  1  0.65786158  0.25818198  0.65324118  1  0  0.5602  0  3.849739  0  0  0.519244  0  4.1247  0  0  0.547596  0  4.127621  0  0  0.231687  0.500249  0  4.122079  0
C  C78  1  0.15786068  0.75820073  0.84675976  1  0  0.560262  0  3.849548  0  0  0.519143  0  4.12475  0  0  0.547494  0  4.127672  0  0  0.231576  0.500143  0  4.122135  0
C  C79  1  0.65786497  0.24180767  0.15323728  1  0  0.560354  0  3.849631  0  0  0.51925  0  4.124772  0  0  0.547606  0  4.127686  0  0  0.23169  0.500248  0  4.122161  0
C  C80  1  0.55010834  0.56150244  0.93467123  1  0  -0.731902  0  3.525759  0  0  -0.77057  0  3.757413  0  0  -0.784876  0  3.763747  0  0  -0.344435  -0.760292  0  3.753009  0
C  C81  1  0.05011370  0.43849601  0.06532901  1  0  -0.731849  0  3.525733  0  0  -0.770543  0  3.757365  0  0  -0.784851  0  3.763697  0  0  -0.344407  -0.760266  0  3.752975  0
C  C82  1  0.55011762  0.93849338  0.43467178  1  0  -0.731907  0  3.525782  0  0  -0.770627  0  3.757396  0  0  -0.784932  0  3.763728  0  0  -0.344469  -0.760343  0  3.75299  0
C  C83  1  0.05010318  0.06150507  0.56533063  1  0  -0.731745  0  3.525878  0  0  -0.770413  0  3.757572  0  0  -0.784719  0  3.76391  0  0  -0.344364  -0.760129  0  3.753151  0
C  C84  1  0.61696479  0.90502747  0.94755394  1  0  -0.706428  0  3.539072  0  0  -0.745643  0  3.76854  0  0  -0.759099  0  3.775604  0  0  -0.336402  -0.736264  0  3.763652  0
C  C85  1  0.11696094  0.09496925  0.05244872  1  0  -0.706379  0  3.539016  0  0  -0.745592  0  3.768516  0  0  -0.759049  0  3.775586  0  0  -0.336382  -0.736207  0  3.763633  0
C  C86  1  0.61697119  0.59496926  0.44755522  1  0  -0.706567  0  3.539115  0  0  -0.745786  0  3.768558  0  0  -0.75924  0  3.775622  0  0  -0.336429  -0.736406  0  3.763676  0
C  C87  1  0.11696196  0.40503035  0.55244673  1  0  -0.706454  0  3.539095  0  0  -0.745647  0  3.768561  0  0  -0.759101  0  3.775633  0  0  -0.336387  -0.736264  0  3.763678  0
C  C88  1  0.29393698  0.74983144  0.10871548  1  0  -0.713986  0  3.541191  0  0  -0.757212  0  3.774099  0  0  -0.771195  0  3.782548  0  0  -0.33904  -0.74759  0  3.768667  0
C  C89  1  0.79393089  0.25017832  0.89128715  1  0  -0.714138  0  3.541121  0  0  -0.757298  0  3.774003  0  0  -0.771287  0  3.782462  0  0  -0.339048  -0.747661  0  3.76859  0
C  C90  1  0.29392736  0.75016972  0.60870571  1  0  -0.714155  0  3.541206  0  0  -0.75735  0  3.774081  0  0  -0.771336  0  3.782543  0  0  -0.339135  -0.74772  0  3.768656  0
C  C91  1  0.79392937  0.24983522  0.39128461  1  0  -0.714147  0  3.541171  0  0  -0.757356  0  3.774032  0  0  -0.771346  0  3.782495  0  0  -0.339165  -0.74772  0  3.768618  0
N  N92  1  0.06851294  0.64160971  0.30612455  1  0  -0.358884  0  3.384377  0  0  -0.286879  0  3.614093  0  0  -0.308276  0  3.62335  0  0  -0.363131  -0.272509  0  3.607963  0
N  N93  1  0.56850149  0.35837820  0.69387069  1  0  -0.358603  0  3.384207  0  0  -0.286661  0  3.613924  0  0  -0.308053  0  3.623176  0  0  -0.363007  -0.272289  0  3.607801  0
N  N94  1  0.06849642  0.85839097  0.80612522  1  0  -0.358646  0  3.384113  0  0  -0.286602  0  3.613845  0  0  -0.307997  0  3.6231  0  0  -0.362941  -0.272226  0  3.607716  0
N  N95  1  0.56849079  0.14161428  0.19387582  1  0  -0.358742  0  3.38428  0  0  -0.28669  0  3.613995  0  0  -0.30809  0  3.623251  0  0  -0.362993  -0.272317  0  3.607872  0
O  O96  1  0.68508095  0.69494278  0.11833820  1  0  -0.643553  0  2.013093  0  0  -0.577475  0  2.249113  0  0  -0.604336  0  2.241774  0  0  -0.29468  -0.558821  0  2.254094  0
O  O97  1  0.18508229  0.30506377  0.88166546  1  0  -0.643563  0  2.012551  0  0  -0.577538  0  2.248634  0  0  -0.604399  0  2.241288  0  0  -0.294717  -0.55889  0  2.253616  0
O  O98  1  0.68506047  0.80506319  0.61834015  1  0  -0.64349  0  2.012674  0  0  -0.577469  0  2.24878  0  0  -0.604332  0  2.241444  0  0  -0.294709  -0.558823  0  2.253775  0
O  O99  1  0.18507433  0.19493661  0.38166567  1  0  -0.643527  0  2.012824  0  0  -0.577487  0  2.248888  0  0  -0.604343  0  2.241535  0  0  -0.29475  -0.558839  0  2.253873  0
O  O100  1  0.63042392  0.89233766  0.17695967  1  0  -0.617199  0  2.006316  0  0  -0.564303  0  2.231323  0  0  -0.588345  0  2.222358  0  0  -0.302471  -0.547164  0  2.236929  0
O  O101  1  0.13039645  0.10767451  0.82304160  1  0  -0.617344  0  2.006539  0  0  -0.564415  0  2.231515  0  0  -0.588456  0  2.222545  0  0  -0.302528  -0.547284  0  2.237121  0
O  O102  1  0.63042105  0.60766513  0.67695502  1  0  -0.617125  0  2.006643  0  0  -0.564195  0  2.231618  0  0  -0.58823  0  2.222653  0  0  -0.30238  -0.54706  0  2.237226  0
O  O103  1  0.13041418  0.39233259  0.32304408  1  0  -0.617168  0  2.006478  0  0  -0.564251  0  2.231468  0  0  -0.588291  0  2.222503  0  0  -0.30241  -0.547115  0  2.237073  0
O  O104  1  0.29439743  0.71283020  0.38586770  1  0  -0.61103  0  2.033766  0  0  -0.548488  0  2.270578  0  0  -0.572781  0  2.263988  0  0  -0.291116  -0.531331  0  2.274175  0
O  O105  1  0.79438846  0.28716511  0.61412479  1  0  -0.611082  0  2.033389  0  0  -0.548582  0  2.270239  0  0  -0.572883  0  2.263654  0  0  -0.291124  -0.531425  0  2.273833  0
O  O106  1  0.29438799  0.78718216  0.88587781  1  0  -0.611001  0  2.033135  0  0  -0.548489  0  2.270067  0  0  -0.57279  0  2.263481  0  0  -0.291071  -0.531327  0  2.273665  0
O  O107  1  0.79437563  0.21283145  0.11412337  1  0  -0.610959  0  2.033808  0  0  -0.548406  0  2.270692  0  0  -0.572701  0  2.264103  0  0  -0.291013  -0.531243  0  2.274288  0
