# generated using pymatgen
data_CdH22C28(NO5)2
_symmetry_space_group_name_H-M   'P 1'
_cell_length_a   8.88095089
_cell_length_b   11.39696418
_cell_length_c   14.81850501
_cell_angle_alpha   67.30203182
_cell_angle_beta   72.57008485
_cell_angle_gamma   67.06816131
_symmetry_Int_Tables_number   1
_chemical_formula_structural   CdH22C28(NO5)2
_chemical_formula_sum   'Cd2 H44 C56 N4 O20'
_cell_volume   1254.55109216
_cell_formula_units_Z   2
loop_
 _symmetry_equiv_pos_site_id
 _symmetry_equiv_pos_as_xyz
  1  'x, y, z'
loop_
 _atom_site_type_symbol
 _atom_site_label
 _atom_site_symmetry_multiplicity
 _atom_site_fract_x
 _atom_site_fract_y
 _atom_site_fract_z
 _atom_site_occupancy
 _atom_site_hle17_bader_spin_density
 _atom_site_hle17_ddec_charge
 _atom_site_hle17_ddec_spin_density
 _atom_site_hle17_ddec_sum_bond_order
 _atom_site_hle17_magmom
 _atom_site_hse06_10hf_bader_spin_density
 _atom_site_hse06_10hf_ddec_charge
 _atom_site_hse06_10hf_ddec_spin_density
 _atom_site_hse06_10hf_ddec_sum_bond_order
 _atom_site_hse06_10hf_magmom
 _atom_site_hse06_bader_spin_density
 _atom_site_hse06_ddec_charge
 _atom_site_hse06_ddec_spin_density
 _atom_site_hse06_ddec_sum_bond_order
 _atom_site_hse06_magmom
 _atom_site_pbe_bader_spin_density
 _atom_site_pbe_cm5_charge
 _atom_site_pbe_ddec_charge
 _atom_site_pbe_ddec_spin_density
 _atom_site_pbe_ddec_sum_bond_order
 _atom_site_pbe_magmom
Cd  Cd0  1  0.08076967  0.25001409  0.75000839  1  0  1.076249  0  1.689217  0  0  0.872693  0  2.139192  0  0  0.929495  0  2.091591  0  0  0.785511  0.832497  0  2.171761  0
Cd  Cd1  1  0.91923297  0.74998660  0.24999095  1  0  1.076246  0  1.689259  0  0  0.872695  0  2.139241  0  0  0.9295  0  2.09164  0  0  0.785512  0.832504  0  2.171809  0
H  H2  1  0.63069026  0.87031932  0.75253920  1  0  0.101497  0  0.965779  0  0  0.107212  0  1.037223  0  0  0.111716  0  1.032963  0  0  0.104269  0.103931  0  1.040361  0
H  H3  1  0.25356560  0.62984454  0.74758081  1  0  0.101884  0  0.965632  0  0  0.107756  0  1.036702  0  0  0.112219  0  1.032542  0  0  0.104357  0.10454  0  1.039769  0
H  H4  1  0.36931035  0.12968135  0.24746217  1  0  0.101543  0  0.965756  0  0  0.107232  0  1.037235  0  0  0.111741  0  1.032967  0  0  0.104272  0.103948  0  1.040379  0
H  H5  1  0.74643279  0.37015615  0.25241924  1  0  0.101899  0  0.965615  0  0  0.107768  0  1.036692  0  0  0.112231  0  1.032529  0  0  0.104364  0.104551  0  1.039756  0
H  H6  1  0.80350474  0.61912442  0.02761685  1  0  0.12981  0  0.955066  0  0  0.138989  0  1.017793  0  0  0.14312  0  1.014546  0  0  0.109908  0.135947  0  1.020327  0
H  H7  1  0.45030592  0.88086667  0.47239765  1  0  0.130731  0  0.955263  0  0  0.139395  0  1.018583  0  0  0.143545  0  1.015281  0  0  0.110082  0.136446  0  1.020887  0
H  H8  1  0.19649482  0.38087326  0.97238385  1  0  0.12976  0  0.955055  0  0  0.138912  0  1.017836  0  0  0.143043  0  1.014589  0  0  0.109879  0.135869  0  1.020369  0
H  H9  1  0.54969546  0.11913302  0.52760237  1  0  0.13074  0  0.955279  0  0  0.139403  0  1.018598  0  0  0.143559  0  1.015275  0  0  0.110092  0.136453  0  1.020903  0
H  H10  1  0.34361344  0.94547693  0.02691590  1  0  0.120078  0  0.952283  0  0  0.130474  0  1.013692  0  0  0.133831  0  1.011845  0  0  0.110384  0.128005  0  1.015102  0
H  H11  1  0.31567471  0.55464240  0.47326681  1  0  0.119967  0  0.952825  0  0  0.130177  0  1.014438  0  0  0.133478  0  1.012648  0  0  0.110149  0.127762  0  1.015796  0
H  H12  1  0.65638602  0.05452174  0.97308548  1  0  0.120076  0  0.952293  0  0  0.130436  0  1.013732  0  0  0.133821  0  1.011851  0  0  0.110382  0.127968  0  1.01514  0
H  H13  1  0.68432628  0.44535829  0.52673299  1  0  0.119956  0  0.952828  0  0  0.130165  0  1.014442  0  0  0.133468  0  1.01265  0  0  0.110139  0.127751  0  1.015801  0
H  H14  1  0.48363095  0.58808706  0.82887495  1  0  0.114168  0  0.97785  0  0  0.124551  0  1.039074  0  0  0.127302  0  1.038938  0  0  0.108395  0.122536  0  1.039418  0
H  H15  1  0.90048133  0.91200965  0.67109826  1  0  0.115878  0  0.97676  0  0  0.125528  0  1.038618  0  0  0.1283  0  1.038476  0  0  0.108893  0.123526  0  1.038909  0
H  H16  1  0.51636946  0.41191263  0.17112485  1  0  0.114166  0  0.9778  0  0  0.124545  0  1.039031  0  0  0.127296  0  1.038896  0  0  0.108393  0.122531  0  1.039374  0
H  H17  1  0.09952306  0.08798904  0.32890174  1  0  0.115852  0  0.976781  0  0  0.125511  0  1.038635  0  0  0.128282  0  1.038494  0  0  0.108892  0.123508  0  1.038928  0
H  H18  1  0.70711491  0.31905690  0.08816069  1  0  0.12579  0  0.98345  0  0  0.134897  0  1.044106  0  0  0.138926  0  1.041583  0  0  0.110292  0.131881  0  1.046284  0
H  H19  1  0.11452126  0.18084588  0.41182503  1  0  0.125589  0  0.982912  0  0  0.134497  0  1.043933  0  0  0.138535  0  1.041409  0  0  0.110415  0.13159  0  1.045955  0
H  H20  1  0.29288253  0.68093879  0.91183981  1  0  0.125809  0  0.983479  0  0  0.134929  0  1.044112  0  0  0.138946  0  1.041604  0  0  0.110302  0.131917  0  1.046285  0
H  H21  1  0.88547974  0.81915481  0.58817477  1  0  0.125564  0  0.982941  0  0  0.134468  0  1.043967  0  0  0.138506  0  1.041444  0  0  0.110396  0.13156  0  1.045991  0
H  H22  1  0.94281424  0.21650374  0.97491471  1  0  0.088813  0  0.923414  0  0  0.102164  0  0.977681  0  0  0.104465  0  0.97557  0  0  0.122671  0.100446  0  0.979273  0
H  H23  1  0.13430134  0.28341255  0.52511150  1  0  0.089029  0  0.924299  0  0  0.102587  0  0.9783  0  0  0.104892  0  0.976162  0  0  0.122668  0.100878  0  0.97988  0
H  H24  1  0.05718560  0.78349495  0.02508509  1  0  0.088808  0  0.92342  0  0  0.102162  0  0.977683  0  0  0.104463  0  0.975572  0  0  0.122669  0.100443  0  0.979275  0
H  H25  1  0.86569666  0.71658914  0.47488832  1  0  0.088999  0  0.924313  0  0  0.102565  0  0.978308  0  0  0.104869  0  0.976169  0  0  0.122651  0.100855  0  0.979888  0
H  H26  1  0.84552645  0.50289184  0.65675204  1  0  0.128915  0  0.946981  0  0  0.149156  0  1.008457  0  0  0.150867  0  1.0074  0  0  0.097736  0.14794  0  1.009171  0
H  H27  1  0.00496968  0.99724084  0.84321749  1  0  0.129486  0  0.947743  0  0  0.149336  0  1.009353  0  0  0.151043  0  1.008317  0  0  0.097604  0.148109  0  1.01006  0
H  H28  1  0.15447329  0.49710784  0.34324844  1  0  0.128924  0  0.946954  0  0  0.149164  0  1.008437  0  0  0.150875  0  1.00738  0  0  0.097747  0.147947  0  1.009151  0
H  H29  1  0.99502764  0.00276084  0.15678300  1  0  0.129456  0  0.947764  0  0  0.149307  0  1.009373  0  0  0.151014  0  1.008337  0  0  0.097596  0.148079  0  1.010082  0
H  H30  1  0.62510789  0.56400463  0.66980714  1  0  0.125361  0  0.963718  0  0  0.146417  0  1.021661  0  0  0.14728  0  1.023089  0  0  0.094006  0.145731  0  1.020744  0
H  H31  1  0.85872091  0.93615557  0.83014791  1  0  0.124914  0  0.964741  0  0  0.146055  0  1.022333  0  0  0.146911  0  1.023799  0  0  0.094136  0.145414  0  1.021373  0
H  H32  1  0.37489089  0.43599506  0.33019312  1  0  0.125335  0  0.963743  0  0  0.146404  0  1.021673  0  0  0.147266  0  1.023101  0  0  0.094004  0.145719  0  1.020756  0
H  H33  1  0.14127679  0.06384613  0.16985102  1  0  0.124915  0  0.964731  0  0  0.146055  0  1.022319  0  0  0.146911  0  1.023787  0  0  0.094139  0.145414  0  1.021359  0
H  H34  1  0.73124715  0.39332343  0.67739895  1  0  0.131407  0  0.946717  0  0  0.150877  0  1.009287  0  0  0.152774  0  1.008343  0  0  0.099959  0.149511  0  1.009952  0
H  H35  1  0.80176007  0.10684840  0.82254742  1  0  0.13169  0  0.946417  0  0  0.150666  0  1.00964  0  0  0.152542  0  1.00873  0  0  0.099795  0.149345  0  1.010228  0
H  H36  1  0.26875394  0.60667627  0.32260017  1  0  0.131361  0  0.946769  0  0  0.150849  0  1.00932  0  0  0.152747  0  1.008374  0  0  0.099934  0.149481  0  1.009984  0
H  H37  1  0.19823599  0.89315330  0.17745197  1  0  0.131697  0  0.946417  0  0  0.150674  0  1.009642  0  0  0.152554  0  1.008728  0  0  0.099809  0.149352  0  1.01023  0
H  H38  1  0.06778680  0.50758624  0.83295429  1  0  0.395131  0  0.891348  0  0  0.363525  0  0.973264  0  0  0.375082  0  0.960935  0  0  0.3027  0.355407  0  0.981865  0
H  H39  1  0.40807665  0.99266864  0.66704532  1  0  0.394991  0  0.890483  0  0  0.363607  0  0.9722  0  0  0.375114  0  0.959959  0  0  0.302632  0.355481  0  0.980834  0
H  H40  1  0.93221323  0.49241445  0.16704529  1  0  0.39514  0  0.891315  0  0  0.36353  0  0.973244  0  0  0.375088  0  0.960913  0  0  0.302704  0.355413  0  0.981845  0
H  H41  1  0.59192299  0.00733305  0.33295404  1  0  0.394999  0  0.890488  0  0  0.363627  0  0.972188  0  0  0.375134  0  0.959946  0  0  0.302642  0.355502  0  0.980821  0
H  H42  1  0.63451527  0.68311668  0.17199410  1  0  0.390777  0  0.88453  0  0  0.364581  0  0.957498  0  0  0.374605  0  0.946511  0  0  0.303224  0.357497  0  0.965194  0
H  H43  1  0.48948225  0.81681643  0.32797994  1  0  0.390309  0  0.884987  0  0  0.364307  0  0.957684  0  0  0.374296  0  0.946745  0  0  0.303301  0.357233  0  0.965374  0
H  H44  1  0.36548177  0.31688399  0.82800730  1  0  0.39062  0  0.88472  0  0  0.364556  0  0.957487  0  0  0.374578  0  0.946504  0  0  0.303212  0.357472  0  0.965185  0
H  H45  1  0.51052349  0.18318126  0.67202049  1  0  0.39035  0  0.884901  0  0  0.364343  0  0.957604  0  0  0.374331  0  0.946665  0  0  0.303311  0.357269  0  0.965295  0
C  C46  1  0.47466586  0.92155070  0.88415743  1  0  -0.04546  0  3.787747  0  0  -0.02027  0  4.027807  0  0  -0.027799  0  4.049804  0  0  -0.017362  -0.015692  0  4.01316  0
C  C47  1  0.28032171  0.57852767  0.61596694  1  0  -0.048025  0  3.787976  0  0  -0.022877  0  4.028488  0  0  -0.030463  0  4.050465  0  0  -0.018025  -0.018067  0  4.013815  0
C  C48  1  0.52533417  0.07844898  0.11584394  1  0  -0.045527  0  3.787839  0  0  -0.02034  0  4.027871  0  0  -0.027872  0  4.049878  0  0  -0.017372  -0.01576  0  4.013222  0
C  C49  1  0.71967803  0.42147304  0.38403175  1  0  -0.048066  0  3.788026  0  0  -0.022916  0  4.028551  0  0  -0.030502  0  4.050527  0  0  -0.018044  -0.018106  0  4.013878  0
C  C50  1  0.61347031  0.84675259  0.83262910  1  0  -0.091395  0  3.724071  0  0  -0.136043  0  3.98365  0  0  -0.134288  0  4.001822  0  0  -0.088357  -0.1369  0  3.971406  0
C  C51  1  0.29288355  0.65335291  0.66748246  1  0  -0.091903  0  3.722126  0  0  -0.136562  0  3.981696  0  0  -0.134772  0  3.999861  0  0  -0.088935  -0.137703  0  3.969644  0
C  C52  1  0.38653098  0.15324809  0.16737159  1  0  -0.091401  0  3.724127  0  0  -0.136028  0  3.983716  0  0  -0.134276  0  4.001888  0  0  -0.088381  -0.136885  0  3.97147  0
C  C53  1  0.70711562  0.34664577  0.33251803  1  0  -0.091928  0  3.722153  0  0  -0.136589  0  3.981726  0  0  -0.134796  0  3.999889  0  0  -0.088962  -0.13773  0  3.969673  0
C  C54  1  0.73015167  0.73793370  0.88500536  1  0  -0.068502  0  3.828303  0  0  -0.043351  0  4.066927  0  0  -0.051335  0  4.090779  0  0  -0.024805  -0.038263  0  4.050619  0
C  C55  1  0.35315030  0.76214297  0.61504588  1  0  -0.06855  0  3.827337  0  0  -0.04326  0  4.065549  0  0  -0.051332  0  4.089502  0  0  -0.023894  -0.037999  0  4.049382  0
C  C56  1  0.26984739  0.26206598  0.11499579  1  0  -0.068575  0  3.828425  0  0  -0.043466  0  4.067057  0  0  -0.051444  0  4.090903  0  0  -0.024813  -0.038378  0  4.050748  0
C  C57  1  0.64685148  0.23785572  0.38495436  1  0  -0.06852  0  3.827307  0  0  -0.043232  0  4.065509  0  0  -0.051306  0  4.089462  0  0  -0.02389  -0.037971  0  4.049343  0
C  C58  1  0.71094748  0.70448466  0.98851190  1  0  -0.194004  0  3.66404  0  0  -0.227861  0  3.913704  0  0  -0.229551  0  3.931294  0  0  -0.095966  -0.226406  0  3.90175  0
C  C59  1  0.40405190  0.79548344  0.51153552  1  0  -0.195063  0  3.665108  0  0  -0.228594  0  3.914281  0  0  -0.230203  0  3.931832  0  0  -0.096483  -0.227043  0  3.902325  0
C  C60  1  0.28905101  0.29551402  0.01148926  1  0  -0.193918  0  3.664022  0  0  -0.227735  0  3.913725  0  0  -0.229424  0  3.931314  0  0  -0.095979  -0.226279  0  3.901768  0
C  C61  1  0.59594813  0.20451725  0.48846407  1  0  -0.195084  0  3.665138  0  0  -0.228617  0  3.914309  0  0  -0.230221  0  3.931863  0  0  -0.096475  -0.227066  0  3.902354  0
C  C62  1  0.57093247  0.77952512  0.04023913  1  0  0.333301  0  3.826104  0  0  0.327098  0  4.09434  0  0  0.33615  0  4.11136  0  0  0.084283  0.320716  0  4.082439  0
C  C63  1  0.39065246  0.72050826  0.45979870  1  0  0.333063  0  3.825484  0  0  0.327456  0  4.092932  0  0  0.336497  0  4.109856  0  0  0.084664  0.320773  0  4.081492  0
C  C64  1  0.42906727  0.22047457  0.95976135  1  0  0.333348  0  3.826068  0  0  0.327088  0  4.094389  0  0  0.336138  0  4.111417  0  0  0.084309  0.320706  0  4.082486  0
C  C65  1  0.60934893  0.27949143  0.54020131  1  0  0.3331  0  3.825474  0  0  0.327484  0  4.092924  0  0  0.336524  0  4.109845  0  0  0.08467  0.320802  0  4.081484  0
C  C66  1  0.45296298  0.88746690  0.98734732  1  0  -0.162044  0  3.666921  0  0  -0.197579  0  3.918197  0  0  -0.199017  0  3.936895  0  0  -0.085267  -0.196223  0  3.905293  0
C  C67  1  0.32765556  0.61262891  0.51276522  1  0  -0.160499  0  3.667399  0  0  -0.196064  0  3.918516  0  0  -0.197367  0  3.937078  0  0  -0.084865  -0.19469  0  3.905885  0
C  C68  1  0.54703609  0.11253278  0.01265383  1  0  -0.16203  0  3.666854  0  0  -0.197512  0  3.918138  0  0  -0.198971  0  3.936826  0  0  -0.085262  -0.196157  0  3.905233  0
C  C69  1  0.67234408  0.38737279  0.48723414  1  0  -0.160486  0  3.667329  0  0  -0.196054  0  3.918453  0  0  -0.197355  0  3.937015  0  0  -0.084857  -0.194682  0  3.905824  0
C  C70  1  0.34782337  0.03646119  0.82989212  1  0  0.669173  0  3.857302  0  0  0.610608  0  4.154164  0  0  0.646583  0  4.144321  0  0  0.213806  0.586228  0  4.160167  0
C  C71  1  0.21412527  0.46359495  0.67016489  1  0  0.670313  0  3.858768  0  0  0.611521  0  4.155665  0  0  0.647535  0  4.145826  0  0  0.213517  0.587031  0  4.161768  0
C  C72  1  0.65217791  0.96353949  0.17010856  1  0  0.669149  0  3.857346  0  0  0.610613  0  4.154174  0  0  0.646587  0  4.144332  0  0  0.213767  0.586233  0  4.160179  0
C  C73  1  0.78587340  0.53640675  0.32983425  1  0  0.670426  0  3.858683  0  0  0.611597  0  4.155619  0  0  0.647614  0  4.14578  0  0  0.21349  0.587107  0  4.161721  0
C  C74  1  0.87106845  0.65849290  0.82644954  1  0  0.638464  0  3.829393  0  0  0.590545  0  4.125143  0  0  0.6232  0  4.117338  0  0  0.226484  0.568399  0  4.129846  0
C  C75  1  0.35577542  0.84172090  0.67358895  1  0  0.640804  0  3.825957  0  0  0.592636  0  4.122196  0  0  0.625281  0  4.114357  0  0  0.227003  0.570467  0  4.126991  0
C  C76  1  0.12893187  0.34150778  0.17355093  1  0  0.638374  0  3.829522  0  0  0.590557  0  4.125127  0  0  0.623207  0  4.117328  0  0  0.226513  0.568412  0  4.129827  0
C  C77  1  0.64422703  0.15827780  0.32641061  1  0  0.640768  0  3.825974  0  0  0.592613  0  4.122206  0  0  0.625257  0  4.114369  0  0  0.227006  0.570444  0  4.126999  0
C  C78  1  0.71730046  0.44028260  0.80618768  1  0  0.332024  0  3.722711  0  0  0.334432  0  3.969242  0  0  0.344902  0  3.988847  0  0  0.124989  0.327483  0  3.955811  0
C  C79  1  0.96360782  0.05982314  0.69378647  1  0  0.333167  0  3.723425  0  0  0.335798  0  3.969057  0  0  0.346308  0  3.988605  0  0  0.124896  0.328749  0  3.955702  0
C  C80  1  0.28269871  0.55971609  0.19381281  1  0  0.331975  0  3.722754  0  0  0.334384  0  3.969281  0  0  0.344853  0  3.988888  0  0  0.124965  0.327436  0  3.955848  0
C  C81  1  0.03639250  0.94017754  0.30621400  1  0  0.333229  0  3.723319  0  0  0.335861  0  3.968971  0  0  0.346371  0  3.988521  0  0  0.124997  0.328814  0  3.955614  0
C  C82  1  0.58113095  0.50506938  0.86527845  1  0  -0.196595  0  3.630007  0  0  -0.220332  0  3.870461  0  0  -0.229206  0  3.891151  0  0  -0.078212  -0.214572  0  3.856451  0
C  C83  1  0.95143531  0.99498051  0.63469687  1  0  -0.197731  0  3.629312  0  0  -0.220747  0  3.869403  0  0  -0.229671  0  3.890084  0  0  -0.078033  -0.214967  0  3.855637  0
C  C84  1  0.41886560  0.49492930  0.13472228  1  0  -0.196577  0  3.62994  0  0  -0.22029  0  3.870399  0  0  -0.229163  0  3.891092  0  0  -0.078181  -0.214532  0  3.856387  0
C  C85  1  0.04856840  0.00501817  0.36530380  1  0  -0.197743  0  3.629304  0  0  -0.220775  0  3.86942  0  0  -0.229699  0  3.890099  0  0  -0.078114  -0.214996  0  3.855653  0
C  C86  1  0.57198504  0.46556097  0.96838178  1  0  0.104844  0  3.746354  0  0  0.116478  0  3.980134  0  0  0.12074  0  4.002276  0  0  0.016369  0.113805  0  3.964772  0
C  C87  1  0.00592542  0.03444874  0.53160256  1  0  0.104076  0  3.747419  0  0  0.115595  0  3.981143  0  0  0.119872  0  4.003241  0  0  0.015803  0.112909  0  3.966123  0
C  C88  1  0.42801229  0.53443673  0.03161761  1  0  0.104968  0  3.746184  0  0  0.116527  0  3.98003  0  0  0.120789  0  4.00217  0  0  0.016384  0.113862  0  3.964662  0
C  C89  1  0.99407896  0.96554995  0.46839743  1  0  0.104049  0  3.747471  0  0  0.115578  0  3.981191  0  0  0.119857  0  4.003285  0  0  0.015827  0.112891  0  3.966171  0
C  C90  1  0.70454655  0.35856166  0.00889458  1  0  -0.150942  0  3.671655  0  0  -0.174237  0  3.923207  0  0  -0.182499  0  3.943732  0  0  -0.079011  -0.168932  0  3.909611  0
C  C91  1  0.07216155  0.14134341  0.49108193  1  0  -0.149405  0  3.667388  0  0  -0.172704  0  3.919494  0  0  -0.180937  0  3.939895  0  0  -0.078956  -0.16754  0  3.90602  0
C  C92  1  0.29545049  0.64143503  0.99110570  1  0  -0.151002  0  3.671689  0  0  -0.174284  0  3.92325  0  0  -0.182538  0  3.943781  0  0  -0.07902  -0.168984  0  3.909651  0
C  C93  1  0.92784244  0.85865628  0.50891785  1  0  -0.149319  0  3.667446  0  0  -0.172613  0  3.919531  0  0  -0.180843  0  3.939927  0  0  -0.078908  -0.167452  0  3.906062  0
C  C94  1  0.83698871  0.29889571  0.94617571  1  0  0.151738  0  3.705966  0  0  0.11842  0  3.960847  0  0  0.127262  0  3.978144  0  0  0.049842  0.112699  0  3.948906  0
C  C95  1  0.08210026  0.20106009  0.55381458  1  0  0.150988  0  3.704792  0  0  0.117485  0  3.959724  0  0  0.12632  0  3.977031  0  0  0.04978  0.111693  0  3.947899  0
C  C96  1  0.16301094  0.70110099  0.05382432  1  0  0.151761  0  3.706053  0  0  0.118442  0  3.960934  0  0  0.127284  0  3.978228  0  0  0.049852  0.112723  0  3.948994  0
C  C97  1  0.91789870  0.79894159  0.44618546  1  0  0.151021  0  3.704924  0  0  0.117525  0  3.959846  0  0  0.12636  0  3.977154  0  0  0.049841  0.111734  0  3.94802  0
C  C98  1  0.73028747  0.47795121  0.69634345  1  0  -0.387914  0  3.689478  0  0  -0.468643  0  3.920875  0  0  -0.47169  0  3.927286  0  0  -0.241716  -0.466287  0  3.916382  0
C  C99  1  0.90435955  0.02221586  0.80361160  1  0  -0.388934  0  3.690858  0  0  -0.46898  0  3.9221  0  0  -0.472035  0  3.928528  0  0  -0.241666  -0.466639  0  3.917539  0
C  C100  1  0.26971228  0.52204847  0.30365703  1  0  -0.387866  0  3.689505  0  0  -0.468612  0  3.920892  0  0  -0.47166  0  3.927303  0  0  -0.241722  -0.466258  0  3.916399  0
C  C101  1  0.09563680  0.97778583  0.19638868  1  0  -0.38893  0  3.690829  0  0  -0.468984  0  3.922098  0  0  -0.472039  0  3.928523  0  0  -0.241707  -0.466644  0  3.917539  0
N  N102  1  0.84408378  0.33852600  0.84725460  1  0  -0.400934  0  3.241316  0  0  -0.320159  0  3.504927  0  0  -0.343103  0  3.52331  0  0  -0.337841  -0.304512  0  3.491943  0
N  N103  1  0.02975649  0.16153993  0.65272233  1  0  -0.401889  0  3.242282  0  0  -0.320828  0  3.505513  0  0  -0.343815  0  3.523927  0  0  -0.337683  -0.305156  0  3.492685  0
N  N104  1  0.15591703  0.66147269  0.15274542  1  0  -0.400916  0  3.241331  0  0  -0.320145  0  3.504944  0  0  -0.343093  0  3.523337  0  0  -0.337836  -0.3045  0  3.491958  0
N  N105  1  0.97024316  0.83846074  0.34727882  1  0  -0.401923  0  3.242407  0  0  -0.320902  0  3.505696  0  0  -0.343889  0  3.524111  0  0  -0.337767  -0.30523  0  3.492867  0
O  O106  1  0.20739893  0.08517241  0.87852983  1  0  -0.608861  0  1.956601  0  0  -0.5432  0  2.198266  0  0  -0.571508  0  2.187798  0  0  -0.316653  -0.523684  0  2.20484  0
O  O107  1  0.17133324  0.41476240  0.62147612  1  0  -0.608938  0  1.956497  0  0  -0.543722  0  2.198832  0  0  -0.572  0  2.188341  0  0  -0.316814  -0.524154  0  2.205466  0
O  O108  1  0.79260274  0.91482829  0.12146929  1  0  -0.608853  0  1.956548  0  0  -0.543212  0  2.198218  0  0  -0.571522  0  2.187755  0  0  -0.316666  -0.523696  0  2.204792  0
O  O109  1  0.82866611  0.58523930  0.37852235  1  0  -0.608999  0  1.956466  0  0  -0.543778  0  2.198832  0  0  -0.572059  0  2.188344  0  0  -0.316791  -0.524208  0  2.205466  0
O  O110  1  0.38191247  0.08445354  0.73409878  1  0  -0.692143  0  2.052345  0  0  -0.619217  0  2.286081  0  0  -0.646056  0  2.273543  0  0  -0.325259  -0.600378  0  2.294251  0
O  O111  1  0.20008395  0.41566763  0.76598382  1  0  -0.692102  0  2.054213  0  0  -0.618623  0  2.287752  0  0  -0.645489  0  2.275082  0  0  -0.324042  -0.599758  0  2.295925  0
O  O112  1  0.61809143  0.91554714  0.26590167  1  0  -0.692126  0  2.052424  0  0  -0.619203  0  2.286141  0  0  -0.646038  0  2.273598  0  0  -0.325208  -0.600368  0  2.294315  0
O  O113  1  0.79991434  0.58433507  0.23401510  1  0  -0.692171  0  2.054189  0  0  -0.618612  0  2.287729  0  0  -0.645485  0  2.275063  0  0  -0.324015  -0.599766  0  2.295935  0
O  O114  1  0.88380291  0.68241776  0.73623433  1  0  -0.561845  0  1.949345  0  0  -0.517068  0  2.166063  0  0  -0.537855  0  2.159807  0  0  -0.293328  -0.502756  0  2.169991  0
O  O115  1  0.30203460  0.81786936  0.76377222  1  0  -0.561916  0  1.948149  0  0  -0.517477  0  2.165377  0  0  -0.538168  0  2.158988  0  0  -0.293079  -0.503102  0  2.169384  0
O  O116  1  0.11619663  0.31758492  0.26376570  1  0  -0.561776  0  1.949434  0  0  -0.51703  0  2.166084  0  0  -0.537816  0  2.159834  0  0  -0.293319  -0.502717  0  2.170011  0
O  O117  1  0.69796940  0.18213033  0.23622755  1  0  -0.561928  0  1.948163  0  0  -0.517474  0  2.165369  0  0  -0.538173  0  2.15899  0  0  -0.293096  -0.503099  0  2.169373  0
O  O118  1  0.98241417  0.55823457  0.87937225  1  0  -0.543976  0  2.092007  0  0  -0.494122  0  2.312224  0  0  -0.515746  0  2.299095  0  0  -0.33463  -0.478982  0  2.320897  0
O  O119  1  0.41970885  0.94200559  0.62066542  1  0  -0.545589  0  2.090772  0  0  -0.49558  0  2.310814  0  0  -0.517239  0  2.297819  0  0  -0.334992  -0.480436  0  2.319376  0
O  O120  1  0.01758682  0.44176612  0.12062754  1  0  -0.543934  0  2.091973  0  0  -0.494122  0  2.312162  0  0  -0.515744  0  2.299033  0  0  -0.334628  -0.478983  0  2.320835  0
O  O121  1  0.58028983  0.05799610  0.37933373  1  0  -0.545553  0  2.090776  0  0  -0.495564  0  2.310804  0  0  -0.517222  0  2.297808  0  0  -0.334974  -0.480417  0  2.319363  0
O  O122  1  0.53951612  0.75299581  0.14020285  1  0  -0.514959  0  2.11363  0  0  -0.464926  0  2.325548  0  0  -0.484112  0  2.319183  0  0  -0.354176  -0.451073  0  2.329318  0
O  O123  1  0.43250009  0.74699246  0.35982837  1  0  -0.514302  0  2.112532  0  0  -0.464517  0  2.323937  0  0  -0.483755  0  2.317773  0  0  -0.354491  -0.450699  0  2.327891  0
O  O124  1  0.46048015  0.24700186  0.85979877  1  0  -0.514838  0  2.113707  0  0  -0.464883  0  2.325525  0  0  -0.484066  0  2.319165  0  0  -0.354147  -0.451037  0  2.32931  0
O  O125  1  0.56750633  0.25300523  0.64017139  1  0  -0.514396  0  2.112555  0  0  -0.464573  0  2.323922  0  0  -0.483822  0  2.317779  0  0  -0.354513  -0.450756  0  2.327877  0
