# generated using pymatgen
data_ZnH6C12N2(O2F)2
_symmetry_space_group_name_H-M   'P 1'
_cell_length_a   7.85736198
_cell_length_b   7.85731223
_cell_length_c   11.18387020
_cell_angle_alpha   105.28733600
_cell_angle_beta   105.28784346
_cell_angle_gamma   104.54199741
_symmetry_Int_Tables_number   1
_chemical_formula_structural   ZnH6C12N2(O2F)2
_chemical_formula_sum   'Zn2 H12 C24 N4 O8 F4'
_cell_volume   603.12420078
_cell_formula_units_Z   2
loop_
 _symmetry_equiv_pos_site_id
 _symmetry_equiv_pos_as_xyz
  1  'x, y, z'
loop_
 _atom_site_type_symbol
 _atom_site_label
 _atom_site_symmetry_multiplicity
 _atom_site_fract_x
 _atom_site_fract_y
 _atom_site_fract_z
 _atom_site_occupancy
 _atom_site_hle17_bader_spin_density
 _atom_site_hle17_ddec_charge
 _atom_site_hle17_ddec_spin_density
 _atom_site_hle17_ddec_sum_bond_order
 _atom_site_hle17_magmom
 _atom_site_hse06_10hf_bader_spin_density
 _atom_site_hse06_10hf_ddec_charge
 _atom_site_hse06_10hf_ddec_spin_density
 _atom_site_hse06_10hf_ddec_sum_bond_order
 _atom_site_hse06_10hf_magmom
 _atom_site_hse06_bader_spin_density
 _atom_site_hse06_ddec_charge
 _atom_site_hse06_ddec_spin_density
 _atom_site_hse06_ddec_sum_bond_order
 _atom_site_hse06_magmom
 _atom_site_pbe_bader_spin_density
 _atom_site_pbe_cm5_charge
 _atom_site_pbe_ddec_charge
 _atom_site_pbe_ddec_spin_density
 _atom_site_pbe_ddec_sum_bond_order
 _atom_site_pbe_magmom
Zn  Zn0  1  0.37248525  0.87272192  0.50003818  1  0  0.970483  0  1.858263  0  0  0.780538  0  2.314531  0  0  0.829846  0  2.262798  0  0  0.685454  0.746112  0  2.349942  0
Zn  Zn1  1  0.12272696  0.12248606  0.00004463  1  0  0.970522  0  1.858283  0  0  0.780561  0  2.314567  0  0  0.82987  0  2.262831  0  0  0.685465  0.746132  0  2.34999  0
H  H2  1  0.56364226  0.62866271  0.16343553  1  0  0.164303  0  0.913637  0  0  0.169789  0  0.976763  0  0  0.174549  0  0.971946  0  0  0.124941  0.166287  0  0.980286  0
H  H3  1  0.46536536  0.40091358  0.83629049  1  0  0.165043  0  0.911517  0  0  0.169385  0  0.976053  0  0  0.17422  0  0.971246  0  0  0.125045  0.165751  0  0.979734  0
H  H4  1  0.65091736  0.21537949  0.33628845  1  0  0.165043  0  0.911525  0  0  0.169394  0  0.976044  0  0  0.174229  0  0.971236  0  0  0.125039  0.165759  0  0.979725  0
H  H5  1  0.87866210  0.31364026  0.66343679  1  0  0.16427  0  0.913654  0  0  0.169754  0  0.976793  0  0  0.174514  0  0.971975  0  0  0.124935  0.166252  0  0.980317  0
H  H6  1  0.13167980  0.63538679  0.20750352  1  0  0.135933  0  0.946135  0  0  0.140554  0  1.011948  0  0  0.144597  0  1.008216  0  0  0.126664  0.137449  0  1.014915  0
H  H7  1  0.42829206  0.92496614  0.79262547  1  0  0.13652  0  0.946415  0  0  0.140764  0  1.012294  0  0  0.144865  0  1.008503  0  0  0.126869  0.137681  0  1.015259  0
H  H8  1  0.17497049  0.17829830  0.29263814  1  0  0.136536  0  0.946388  0  0  0.14073  0  1.012314  0  0  0.144828  0  1.008523  0  0  0.126851  0.137649  0  1.015274  0
H  H9  1  0.88538367  0.88167896  0.70750458  1  0  0.135947  0  0.94609  0  0  0.140573  0  1.011919  0  0  0.144615  0  1.008189  0  0  0.126668  0.137476  0  1.014877  0
H  H10  1  0.02525911  0.91717652  0.53731902  1  0  0.098365  0  0.933132  0  0  0.103222  0  1.003732  0  0  0.106795  0  0.999637  0  0  0.122618  0.100678  0  1.006609  0
H  H11  1  0.38028925  0.48860665  0.46272540  1  0  0.099399  0  0.933425  0  0  0.103437  0  1.004911  0  0  0.106982  0  1.00084  0  0  0.12248  0.100808  0  1.008006  0
H  H12  1  0.73862460  0.13030034  0.96272994  1  0  0.099412  0  0.933533  0  0  0.103446  0  1.005018  0  0  0.106987  0  1.000952  0  0  0.122499  0.100817  0  1.008116  0
H  H13  1  0.16718619  0.77526033  0.03731822  1  0  0.098258  0  0.933189  0  0  0.103164  0  1.003775  0  0  0.106737  0  0.999675  0  0  0.122611  0.100618  0  1.006657  0
C  C14  1  0.77929299  0.77947143  0.35894034  1  0  -0.068288  0  3.740708  0  0  -0.043106  0  3.984343  0  0  -0.054477  0  4.006925  0  0  -0.005122  -0.036113  0  3.969487  0
C  C15  1  0.42083437  0.42096888  0.64096313  1  0  -0.069836  0  3.740162  0  0  -0.044287  0  3.982708  0  0  -0.055625  0  4.00519  0  0  -0.005683  -0.037353  0  3.967906  0
C  C16  1  0.67098069  0.17084604  0.14096323  1  0  -0.069842  0  3.739795  0  0  -0.044308  0  3.98239  0  0  -0.055642  0  4.004859  0  0  -0.005646  -0.037376  0  3.967593  0
C  C17  1  0.02947554  0.52929374  0.85894249  1  0  -0.068468  0  3.740868  0  0  -0.043249  0  3.9845  0  0  -0.054628  0  4.007093  0  0  -0.005122  -0.036259  0  3.96965  0
C  C18  1  0.71198380  0.67287712  0.22383874  1  0  -0.114631  0  3.631796  0  0  -0.159319  0  3.888435  0  0  -0.155158  0  3.902122  0  0  -0.061611  -0.161521  0  3.879251  0
C  C19  1  0.44919510  0.48886711  0.77599645  1  0  -0.115082  0  3.631941  0  0  -0.158708  0  3.8875  0  0  -0.154663  0  3.901115  0  0  -0.061324  -0.160846  0  3.878416  0
C  C20  1  0.73886867  0.19920610  0.27599559  1  0  -0.115059  0  3.631962  0  0  -0.158722  0  3.887527  0  0  -0.154678  0  3.901142  0  0  -0.061349  -0.160862  0  3.878446  0
C  C21  1  0.92287679  0.46198157  0.72384054  1  0  -0.114447  0  3.631725  0  0  -0.159145  0  3.888351  0  0  -0.154985  0  3.902047  0  0  -0.061535  -0.16135  0  3.87917  0
C  C22  1  0.84287366  0.62680724  0.17125020  1  0  0.256845  0  3.781035  0  0  0.245755  0  4.071148  0  0  0.249951  0  4.084831  0  0  0.103031  0.242195  0  4.062144  0
C  C23  1  0.45580933  0.67236358  0.82872982  1  0  0.253464  0  3.786963  0  0  0.24623  0  4.072482  0  0  0.250448  0  4.086149  0  0  0.10217  0.242599  0  4.063497  0
C  C24  1  0.92236527  0.20581607  0.32873330  1  0  0.253359  0  3.787208  0  0  0.246184  0  4.072636  0  0  0.250399  0  4.086304  0  0  0.102228  0.242552  0  4.06365  0
C  C25  1  0.87680195  0.59287469  0.67125285  1  0  0.25671  0  3.780961  0  0  0.245643  0  4.071085  0  0  0.249839  0  4.084767  0  0  0.102988  0.242083  0  4.062077  0
C  C26  1  0.03040527  0.67618943  0.24908907  1  0  0.013821  0  3.638902  0  0  -0.031831  0  3.897137  0  0  -0.026301  0  3.912991  0  0  0.041833  -0.035128  0  3.886421  0
C  C27  1  0.42745063  0.78204290  0.75100934  1  0  0.011722  0  3.643999  0  0  -0.032786  0  3.900148  0  0  -0.027349  0  3.91596  0  0  0.04178  -0.036042  0  3.889441  0
C  C28  1  0.03205004  0.17745707  0.25101758  1  0  0.011908  0  3.644017  0  0  -0.032537  0  3.900104  0  0  -0.027111  0  3.915949  0  0  0.041848  -0.035789  0  3.889394  0
C  C29  1  0.92618521  0.78040656  0.74909083  1  0  0.013853  0  3.638819  0  0  -0.031845  0  3.897083  0  0  -0.026317  0  3.91294  0  0  0.041811  -0.035159  0  3.886386  0
C  C30  1  0.96950336  0.83021929  0.43266006  1  0  0.108996  0  3.670061  0  0  0.053979  0  3.936419  0  0  0.063614  0  3.951453  0  0  0.048269  0.047229  0  3.927188  0
C  C31  1  0.39798267  0.53748006  0.56734953  1  0  0.108018  0  3.67163  0  0  0.053729  0  3.937568  0  0  0.063422  0  3.952542  0  0  0.048369  0.047035  0  3.928396  0
C  C32  1  0.78749013  0.14799462  0.06734897  1  0  0.10817  0  3.671488  0  0  0.053895  0  3.937438  0  0  0.063588  0  3.952408  0  0  0.048399  0.047213  0  3.928243  0
C  C33  1  0.08022534  0.71950437  0.93266301  1  0  0.109323  0  3.670067  0  0  0.054212  0  3.936454  0  0  0.063853  0  3.951488  0  0  0.048309  0.047488  0  3.927174  0
C  C34  1  0.65295250  0.83916732  0.42798161  1  0  0.625527  0  3.941388  0  0  0.57347  0  4.237017  0  0  0.607831  0  4.231156  0  0  0.196857  0.550252  0  4.240293  0
C  C35  1  0.41116454  0.22528442  0.57202553  1  0  0.6247  0  3.94414  0  0  0.572821  0  4.239245  0  0  0.607171  0  4.233352  0  0  0.196319  0.54971  0  4.242299  0
C  C36  1  0.47529391  0.16117306  0.07202307  1  0  0.624676  0  3.943913  0  0  0.572797  0  4.239007  0  0  0.607147  0  4.23312  0  0  0.196314  0.549685  0  4.242064  0
C  C37  1  0.08917434  0.40295447  0.92798340  1  0  0.625517  0  3.941348  0  0  0.573464  0  4.236945  0  0  0.607825  0  4.231086  0  0  0.196854  0.550244  0  4.240227  0
N  N38  1  0.09086541  0.77741543  0.37956241  1  0  -0.296501  0  3.316851  0  0  -0.211591  0  3.598348  0  0  -0.230882  0  3.614186  0  0  -0.322732  -0.198508  0  3.587335  0
N  N39  1  0.39829046  0.71198512  0.62056976  1  0  -0.295294  0  3.317882  0  0  -0.210359  0  3.598578  0  0  -0.229668  0  3.61446  0  0  -0.322323  -0.197301  0  3.587592  0
N  N40  1  0.96199823  0.14829787  0.12057759  1  0  -0.295629  0  3.317984  0  0  -0.210737  0  3.598738  0  0  -0.230049  0  3.614613  0  0  -0.32247  -0.197684  0  3.587765  0
N  N41  1  0.02741982  0.84086761  0.87956401  1  0  -0.29665  0  3.316857  0  0  -0.211696  0  3.59838  0  0  -0.230989  0  3.614217  0  0  -0.322748  -0.19862  0  3.587379  0
O  O42  1  0.47452542  0.76147109  0.36297972  1  0  -0.61283  0  1.992269  0  0  -0.538103  0  2.240502  0  0  -0.567432  0  2.228157  0  0  -0.323124  -0.517643  0  2.248273  0
O  O43  1  0.39897667  0.11224108  0.63721067  1  0  -0.61239  0  1.994364  0  0  -0.538064  0  2.242632  0  0  -0.567319  0  2.230259  0  0  -0.322883  -0.517534  0  2.250448  0
O  O44  1  0.36225450  0.14897659  0.13720878  1  0  -0.612431  0  1.99431  0  0  -0.538077  0  2.242559  0  0  -0.567325  0  2.230177  0  0  -0.322877  -0.517548  0  2.250378  0
O  O45  1  0.01147816  0.22452682  0.86298356  1  0  -0.612788  0  1.992212  0  0  -0.53805  0  2.240423  0  0  -0.56738  0  2.22808  0  0  -0.323133  -0.51759  0  2.248197  0
O  O46  1  0.72338023  0.95671703  0.54415270  1  0  -0.602021  0  1.924747  0  0  -0.558153  0  2.15919  0  0  -0.581532  0  2.148591  0  0  -0.313167  -0.541754  0  2.165904  0
O  O47  1  0.41185405  0.17894879  0.45574878  1  0  -0.601309  0  1.925019  0  0  -0.557508  0  2.159656  0  0  -0.581003  0  2.149346  0  0  -0.312702  -0.541088  0  2.166319  0
O  O48  1  0.42895958  0.16187270  0.95574860  1  0  -0.601256  0  1.925025  0  0  -0.557466  0  2.159689  0  0  -0.580953  0  2.149359  0  0  -0.312733  -0.541045  0  2.166353  0
O  O49  1  0.20672206  0.47337855  0.04415506  1  0  -0.602032  0  1.924688  0  0  -0.558178  0  2.159152  0  0  -0.581558  0  2.148552  0  0  -0.313188  -0.54178  0  2.16587  0
F  F50  1  0.78763910  0.52934480  0.03943604  1  0  -0.19695  0  1.245535  0  0  -0.13495  0  1.404628  0  0  -0.146459  0  1.399326  0  0  -0.081057  -0.126493  0  1.408134  0
F  F51  1  0.49014796  0.74880210  0.96053677  1  0  -0.188032  0  1.236165  0  0  -0.134916  0  1.404025  0  0  -0.146426  0  1.398707  0  0  -0.080965  -0.126477  0  1.407669  0
F  F52  1  0.99879305  0.24014859  0.46053999  1  0  -0.187989  0  1.236305  0  0  -0.134903  0  1.404144  0  0  -0.146408  0  1.398831  0  0  -0.080973  -0.126459  0  1.407788  0
F  F53  1  0.77932993  0.53763769  0.53943901  1  0  -0.196889  0  1.245494  0  0  -0.134893  0  1.404574  0  0  -0.146403  0  1.39927  0  0  -0.081054  -0.126432  0  1.408075  0
