# generated using pymatgen
data_Zr3H14C31ClO16F5
_symmetry_space_group_name_H-M   'P 1'
_cell_length_a   14.89717004
_cell_length_b   14.87289410
_cell_length_c   14.86953762
_cell_angle_alpha   59.78509713
_cell_angle_beta   59.80528275
_cell_angle_gamma   59.87938277
_symmetry_Int_Tables_number   1
_chemical_formula_structural   Zr3H14C31ClO16F5
_chemical_formula_sum   'Zr6 H28 C62 Cl2 O32 F10'
_cell_volume   2320.25280964
_cell_formula_units_Z   2
loop_
 _symmetry_equiv_pos_site_id
 _symmetry_equiv_pos_as_xyz
  1  'x, y, z'
loop_
 _atom_site_type_symbol
 _atom_site_label
 _atom_site_symmetry_multiplicity
 _atom_site_fract_x
 _atom_site_fract_y
 _atom_site_fract_z
 _atom_site_occupancy
 _atom_site_pbe_bader_charge
 _atom_site_pbe_bader_spin_density
 _atom_site_pbe_cm5_charge
 _atom_site_pbe_ddec_charge
 _atom_site_pbe_ddec_spin_density
 _atom_site_pbe_ddec_sum_bond_order
 _atom_site_pbe_magmom
Zr  Zr0  1  0.88064781  0.37771138  0.61885970  1  2.635484  0  1.633554  2.377103  0  2.757468  0
Zr  Zr1  1  0.11849350  0.61652221  0.38193085  1  2.634668  0  1.624486  2.374859  0  2.736836  0
Zr  Zr2  1  0.11890067  0.37727978  0.62182458  1  2.635374  0  1.629967  2.381143  0  2.739985  0
Zr  Zr3  1  0.88322817  0.61528989  0.38121537  1  2.6326  0  1.627772  2.372021  0  2.751382  0
Zr  Zr4  1  0.88143912  0.61289678  0.62269662  1  2.63448  0  1.631167  2.372898  0  2.759261  0
Zr  Zr5  1  0.12107039  0.37511692  0.38467966  1  2.638484  0  1.630438  2.373685  0  2.751506  0
H  H6  1  0.90657447  0.40174526  0.78410745  1  0.597277  0  0.327403  0.417387  0  0.870514  0
H  H7  1  0.90860125  0.77747748  0.40719788  1  0.595754  0  0.326876  0.41525  0  0.87122  0
H  H8  1  0.28115476  0.40357330  0.40884634  1  0.604029  0  0.330401  0.421208  0  0.860876  0
H  H9  1  0.90868172  0.40333430  0.40622602  1  0.604148  0  0.332129  0.422838  0  0.857815  0
H  H10  1  0.54725104  0.74767380  0.87622096  1  0.075587  0  0.102562  0.120795  0  0.977119  0
H  H11  1  0.63110476  0.64956098  0.96081663  1  0.048124  0  0.096725  0.105107  0  1.007048  0
H  H12  1  0.46145748  0.65117850  0.13118848  1  0.068109  0  0.097961  0.113943  0  0.984522  0
H  H13  1  0.37718996  0.74827627  0.04676392  1  0.070788  0  0.098428  0.113453  0  0.986905  0
H  H14  1  0.24090023  0.05364095  0.31200239  1  0.035847  0  0.096647  0.105556  0  1.016421  0
H  H15  1  0.14155804  0.13371938  0.24406770  1  0.086858  0  0.099716  0.116316  0  0.98416  0
H  H16  1  0.14577627  0.95938241  0.24898217  1  0.054909  0  0.101652  0.116291  0  0.973163  0
H  H17  1  0.24189821  0.87903632  0.32134625  1  0.071707  0  0.099104  0.116023  0  0.98884  0
H  H18  1  0.52546547  0.85278582  0.36440041  1  0.090392  0  0.097237  0.11573  0  0.994855  0
H  H19  1  0.60933505  0.93755251  0.26656913  1  0.078644  0  0.100052  0.114758  0  0.987066  0
H  H20  1  0.43879637  0.10735230  0.26815793  1  0.076014  0  0.102421  0.118051  0  0.975418  0
H  H21  1  0.35571515  0.02196328  0.36808509  1  0.061605  0  0.098835  0.110361  0  1.003922  0
H  H22  1  0.85694638  0.75568061  0.03202698  1  0.061614  0  0.102745  0.118392  0  0.970597  0
H  H23  1  0.76823354  0.67489035  0.11716282  1  0.07569  0  0.099258  0.113507  0  0.983863  0
H  H24  1  0.76583442  0.67813046  0.94721740  1  0.047363  0  0.096006  0.104348  0  1.010692  0
H  H25  1  0.85550257  0.75761660  0.86184155  1  0.093774  0  0.098214  0.118074  0  0.999331  0
H  H26  1  0.81216183  0.26022804  0.92758920  1  0.082088  0  0.099865  0.103208  0  1.042021  0
H  H27  1  0.65652118  0.26689157  0.10072576  1  0.048669  0  0.097319  0.093548  0  1.01074  0
H  H28  1  0.81447871  0.92712081  0.26574033  1  0.076767  0  0.099295  0.102069  0  1.043518  0
H  H29  1  0.65795732  0.09931081  0.27092325  1  0.056001  0  0.099215  0.095766  0  1.012712  0
H  H30  1  0.54025741  0.33706444  0.75146415  1  0.08509  0  0.097527  0.117878  0  1.004358  0
H  H31  1  0.62400378  0.25472323  0.66437767  1  0.080989  0  0.100648  0.116584  0  0.978216  0
H  H32  1  0.45290040  0.25587468  0.66608524  1  0.051088  0  0.098677  0.116467  0  0.989864  0
H  H33  1  0.36943080  0.33803795  0.75334889  1  0.081855  0  0.100349  0.118636  0  0.987116  0
C  C34  1  0.69181683  0.49956372  0.79763906  1  1.570949  0  0.23759  0.660306  0  4.109501  0
C  C35  1  0.00031739  0.79442640  0.50729812  1  1.573274  0  0.236553  0.661194  0  4.104735  0
C  C36  1  0.29565053  0.50140074  0.19490982  1  1.581277  0  0.235636  0.660517  0  4.110967  0
C  C37  1  0.00253043  0.19149180  0.50407208  1  1.58338  0  0.236759  0.661715  0  4.107477  0
C  C38  1  0.00279591  0.18747600  0.79707371  1  1.597388  0  0.235635  0.653868  0  4.118254  0
C  C39  1  0.69493304  0.50491508  0.49995792  1  1.575457  0  0.236811  0.661647  0  4.105807  0
C  C40  1  0.00402868  0.79520436  0.19182463  1  1.59342  0  0.235727  0.656202  0  4.117707  0
C  C41  1  0.29638998  0.50581101  0.50299095  1  1.588639  0  0.236226  0.660872  0  4.105033  0
C  C42  1  0.00641854  0.49796305  0.80068363  1  1.566703  0  0.237793  0.663216  0  4.104523  0
C  C43  1  0.30054988  0.19145566  0.50956935  1  1.564902  0  0.235042  0.658371  0  4.114573  0
C  C44  1  0.01125796  0.49793390  0.19468147  1  1.569762  0  0.236897  0.66168  0  4.10538  0
C  C45  1  0.69717521  0.79436479  0.50682798  1  1.576026  0  0.23546  0.658103  0  4.11019  0
C  C46  1  0.58653730  0.50439561  0.89236353  1  0.062431  0  -0.017542  -0.172548  0  3.976638  0
C  C47  1  0.38974462  0.50593086  0.08923262  1  0.018081  0  -0.020239  -0.174525  0  3.983987  0
C  C48  1  0.54003327  0.57893318  0.94757454  1  -0.058763  0  -0.006171  0.06775  0  3.903766  0
C  C49  1  0.43285262  0.43355725  0.03133822  1  0.470184  0  0.097405  0.152923  0  4.051266  0
C  C50  1  0.44627608  0.57949283  0.04174560  1  0.05645  0  -0.009576  0.061887  0  3.916495  0
C  C51  1  0.52761617  0.43259420  0.93709691  1  0.564621  0  0.097837  0.152913  0  4.051391  0
C  C52  1  0.55486487  0.67211974  0.94826289  1  -0.031852  0  -0.147025  -0.191146  0  3.855401  0
C  C53  1  0.44863447  0.67260453  0.05527161  1  -0.003373  0  -0.14934  -0.194956  0  3.858676  0
C  C54  1  0.00071258  0.09149039  0.50574210  1  0.023507  0  -0.017975  -0.173348  0  3.977952  0
C  C55  1  0.99918181  0.89429555  0.50859103  1  0.075701  0  -0.018071  -0.172007  0  3.982943  0
C  C56  1  0.07309871  0.04491669  0.42208816  1  -0.004169  0  -0.006731  0.063892  0  3.905023  0
C  C57  1  0.92443224  0.94160867  0.59244371  1  0.470179  0  0.098582  0.154756  0  4.047579  0
C  C58  1  0.07271670  0.95041574  0.42401135  1  0.027305  0  -0.006268  0.067185  0  3.911929  0
C  C59  1  0.92540411  0.03597243  0.59135898  1  0.550804  0  0.098837  0.156163  0  4.049302  0
C  C60  1  0.16506827  0.05887438  0.31150099  1  -0.009287  0  -0.14786  -0.192266  0  3.857641  0
C  C61  1  0.16625289  0.95013876  0.31520503  1  -0.015186  0  -0.147799  -0.194766  0  3.860975  0
C  C62  1  0.59773019  0.89504139  0.50890103  1  0.0532  0  -0.017921  -0.171927  0  3.977338  0
C  C63  1  0.40152954  0.09215969  0.51024312  1  0.053686  0  -0.020848  -0.174714  0  3.984146  0
C  C64  1  0.54072721  0.94201943  0.43599539  1  0.011613  0  -0.007085  0.062991  0  3.918111  0
C  C65  1  0.45911158  0.04627380  0.58352692  1  0.528844  0  0.096567  0.152479  0  4.05604  0
C  C66  1  0.44723497  0.03608662  0.43669933  1  -0.032053  0  -0.008486  0.061945  0  3.918288  0
C  C67  1  0.55322468  0.95144626  0.58301695  1  0.506248  0  0.098945  0.156948  0  4.04322  0
C  C68  1  0.53827553  0.92871860  0.34277523  1  -0.059119  0  -0.149589  -0.196138  0  3.856061  0
C  C69  1  0.43201960  0.03531487  0.34387708  1  -0.015967  0  -0.148047  -0.195752  0  3.865622  0
C  C70  1  0.01597142  0.49953017  0.09160466  1  0.094195  0  -0.0184  -0.173156  0  3.984264  0
C  C71  1  0.01299360  0.50015547  0.89617865  1  0.023708  0  -0.018081  -0.17481  0  3.974146  0
C  C72  1  0.93976743  0.58149794  0.03801434  1  -0.045413  0  -0.006349  0.065223  0  3.911816  0
C  C73  1  0.09230525  0.41841850  0.94791768  1  0.5336  0  0.098931  0.157216  0  4.041498  0
C  C74  1  0.93829369  0.58205345  0.94471323  1  0.03082  0  -0.005887  0.067996  0  3.900129  0
C  C75  1  0.09362182  0.41799953  0.04180685  1  0.512361  0  0.098932  0.155504  0  4.049533  0
C  C76  1  0.84084363  0.68570033  0.04310211  1  -0.023393  0  -0.147589  -0.192842  0  3.860829  0
C  C77  1  0.83966769  0.68708175  0.93665369  1  -0.02957  0  -0.149258  -0.193907  0  3.858737  0
C  C78  1  0.00042566  0.08470872  0.89723629  1  0.028761  0  -0.008696  -0.114043  0  3.908599  0
C  C79  1  0.90849720  0.09045460  0.99661306  1  0.001874  0  0.001524  0.071005  0  3.950424  0
C  C80  1  0.08613004  0.98613646  0.89311258  1  0.12236  0  0.013296  0.066485  0  4.041552  0
C  C81  1  0.81567894  0.18832008  0.00213450  1  -0.060211  0  -0.091289  -0.126035  0  3.962627  0
C  C82  1  0.72767360  0.19149178  0.09890020  1  0.010915  0  -0.0937  -0.080465  0  4.033704  0
C  C83  1  0.00147620  0.89518048  0.08878660  1  0.051652  0  -0.012081  -0.121424  0  3.917124  0
C  C84  1  0.08666162  0.89056355  0.98974433  1  0.05903  0  0.013041  0.06251  0  4.046377  0
C  C85  1  0.90909858  0.99418868  0.09403564  1  0.009239  0  6.3e-05  0.068337  0  3.958209  0
C  C86  1  0.81695955  0.00059985  0.19244921  1  -0.064674  0  -0.094308  -0.136351  0  3.975708  0
C  C87  1  0.72838159  0.09691798  0.19487031  1  -0.017504  0  -0.091953  -0.076908  0  4.031271  0
C  C88  1  0.59329643  0.50838717  0.49981177  1  0.042449  0  -0.018691  -0.172189  0  3.975601  0
C  C89  1  0.39507309  0.50946979  0.50196239  1  0.023982  0  -0.018056  -0.17167  0  3.975131  0
C  C90  1  0.54197106  0.42931873  0.57884428  1  -0.004645  0  -0.004447  0.067965  0  3.9014  0
C  C91  1  0.44585303  0.59011811  0.42193967  1  0.490125  0  0.09477  0.150289  0  4.049558  0
C  C92  1  0.44747820  0.42989492  0.57985321  1  0.055461  0  -0.004809  0.06851  0  3.90373  0
C  C93  1  0.54093708  0.58936102  0.42074029  1  0.489104  0  0.094884  0.150354  0  4.04757  0
C  C94  1  0.54977124  0.32583419  0.67930462  1  -0.034197  0  -0.148344  -0.194227  0  3.850523  0
C  C95  1  0.44271021  0.32651683  0.68041991  1  0.005133  0  -0.148729  -0.193533  0  3.848705  0
Cl  Cl96  1  0.19257524  0.76795034  0.98167309  1  -0.181346  0  0.012278  -0.043877  0  1.59721  0
Cl  Cl97  1  0.19131191  0.97722128  0.77010415  1  -0.176382  0  0.004596  -0.047486  0  1.56492  0
O  O98  1  0.73449489  0.42188389  0.75914500  1  -1.170826  0  -0.357135  -0.621203  0  2.314846  0
O  O99  1  0.07593075  0.75958943  0.42753420  1  -1.178161  0  -0.344617  -0.600084  0  2.252686  0
O  O100  1  0.25909767  0.57774008  0.23331937  1  -1.175088  0  -0.347375  -0.60635  0  2.267634  0
O  O101  1  0.92420995  0.23507149  0.57662711  1  -1.171431  0  -0.357268  -0.615216  0  2.327004  0
O  O102  1  0.07657997  0.22714778  0.76398171  1  -1.159438  0  -0.340485  -0.601477  0  2.2586  0
O  O103  1  0.73753687  0.57927553  0.42344201  1  -1.177737  0  -0.361592  -0.623557  0  2.308675  0
O  O104  1  0.92843418  0.75477362  0.23226818  1  -1.179301  0  -0.350557  -0.614109  0  2.289715  0
O  O105  1  0.26034740  0.42748190  0.58012807  1  -1.16831  0  -0.337214  -0.591802  0  2.242804  0
O  O106  1  0.92610792  0.57262669  0.76660233  1  -1.167001  0  -0.342781  -0.601923  0  2.238632  0
O  O107  1  0.26288471  0.22746668  0.43283559  1  -1.16757  0  -0.343657  -0.602418  0  2.249573  0
O  O108  1  0.08415816  0.42037527  0.23808453  1  -1.1648  0  -0.358124  -0.614715  0  2.317147  0
O  O109  1  0.73668448  0.75124725  0.58363374  1  -1.169741  0  -0.358319  -0.612023  0  2.328807  0
O  O110  1  0.26002066  0.23342833  0.58404294  1  -1.17032  0  -0.358926  -0.619837  0  2.329275  0
O  O111  1  0.93203730  0.57415574  0.23287868  1  -1.174346  0  -0.345133  -0.600624  0  2.258934  0
O  O112  1  0.73566029  0.76002055  0.42692982  1  -1.169272  0  -0.341831  -0.600301  0  2.247679  0
O  O113  1  0.07988728  0.42094012  0.76106541  1  -1.175733  0  -0.360954  -0.619463  0  2.316925  0
O  O114  1  0.92704838  0.22795126  0.75702799  1  -1.169187  0  -0.348951  -0.604097  0  2.283778  0
O  O115  1  0.25688818  0.57961887  0.42574686  1  -1.174381  0  -0.363562  -0.623973  0  2.314143  0
O  O116  1  0.07759022  0.76168878  0.23193033  1  -1.167184  0  -0.341684  -0.611385  0  2.258099  0
O  O117  1  0.73259548  0.42622790  0.57665264  1  -1.171861  0  -0.339943  -0.595187  0  2.247479  0
O  O118  1  0.08195740  0.22705096  0.42861789  1  -1.181287  0  -0.345774  -0.605012  0  2.235998  0
O  O119  1  0.73279406  0.57292394  0.76432798  1  -1.167215  0  -0.344276  -0.600126  0  2.256874  0
O  O120  1  0.92585525  0.75237815  0.58364666  1  -1.169986  0  -0.357726  -0.615044  0  2.313854  0
O  O121  1  0.26130927  0.42032902  0.24040172  1  -1.165822  0  -0.357511  -0.612367  0  2.319308  0
O  O122  1  0.93476359  0.42971922  0.43342383  1  -1.230221  0  -0.696717  -1.07429  0  2.379786  0
O  O123  1  0.20132093  0.42962934  0.43592531  1  -1.231158  0  -0.693345  -1.07023  0  2.369667  0
O  O124  1  0.93386429  0.69752186  0.43347920  1  -1.228586  0  -0.693799  -1.070786  0  2.37118  0
O  O125  1  0.93264794  0.42756085  0.70404800  1  -1.230642  0  -0.693956  -1.074613  0  2.366307  0
O  O126  1  0.04926127  0.54559183  0.55122556  1  -1.198121  0  -0.791127  -1.152552  0  2.135268  0
O  O127  1  0.85294471  0.54563376  0.55033033  1  -1.195898  0  -0.791823  -1.153022  0  2.131701  0
O  O128  1  0.05117146  0.54509392  0.35327469  1  -1.198028  0  -0.789569  -1.146638  0  2.123321  0
O  O129  1  0.04952699  0.34792171  0.55203996  1  -1.198736  0  -0.791164  -1.150792  0  2.129053  0
F  F130  1  0.38512781  0.36044476  0.06383561  1  -0.612709  0  -0.087312  -0.103493  0  1.407149  0
F  F131  1  0.56003720  0.35751519  0.89162228  1  -0.618907  0  -0.079981  -0.103338  0  1.42284  0
F  F132  1  0.84713879  0.89808257  0.67967693  1  -0.618784  0  -0.082308  -0.105338  0  1.418925  0
F  F133  1  0.84956227  0.07039643  0.67826049  1  -0.613967  0  -0.087345  -0.104943  0  1.398894  0
F  F134  1  0.42722163  0.09201444  0.65813488  1  -0.616578  0  -0.084689  -0.104966  0  1.412408  0
F  F135  1  0.59988987  0.91782051  0.65742790  1  -0.616859  0  -0.086742  -0.105698  0  1.40348  0
F  F136  1  0.17133312  0.33402788  0.91073890  1  -0.619951  0  -0.085607  -0.106986  0  1.405775  0
F  F137  1  0.17316706  0.33310869  0.08314466  1  -0.617792  0  -0.086217  -0.106679  0  1.415144  0
F  F138  1  0.40573059  0.67343346  0.34035142  1  -0.62475  0  -0.089062  -0.115561  0  1.412998  0
F  F139  1  0.58040440  0.67162195  0.33775471  1  -0.625882  0  -0.087877  -0.114936  0  1.415123  0
