# generated using pymatgen
data_AlH3C27(Cl2O)6
_symmetry_space_group_name_H-M   'P 1'
_cell_length_a   4.25744236
_cell_length_b   28.08035376
_cell_length_c   28.09915155
_cell_angle_alpha   60.06269973
_cell_angle_beta   89.89678944
_cell_angle_gamma   89.77754112
_symmetry_Int_Tables_number   1
_chemical_formula_structural   AlH3C27(Cl2O)6
_chemical_formula_sum   'Al3 H9 C81 Cl36 O18'
_cell_volume   2911.02512465
_cell_formula_units_Z   3
loop_
 _symmetry_equiv_pos_site_id
 _symmetry_equiv_pos_as_xyz
  1  'x, y, z'
loop_
 _atom_site_type_symbol
 _atom_site_label
 _atom_site_symmetry_multiplicity
 _atom_site_fract_x
 _atom_site_fract_y
 _atom_site_fract_z
 _atom_site_occupancy
 _atom_site_pbe_bader_charge
 _atom_site_pbe_bader_spin_density
 _atom_site_pbe_cm5_charge
 _atom_site_pbe_ddec_charge
 _atom_site_pbe_ddec_spin_density
 _atom_site_pbe_ddec_sum_bond_order
 _atom_site_pbe_magmom
Al  Al0  1  0.99789582  0.49972328  0.49994011  1  2.523659  0  0.456816  1.683238  0  2.46669  0
Al  Al1  1  0.04754358  0.83324924  0.83322272  1  2.518419  0  0.441962  1.670428  0  2.465385  0
Al  Al2  1  0.95896595  0.16638126  0.16668788  1  2.517895  0  0.442346  1.6677  0  2.467631  0
H  H3  1  0.50732989  0.07735955  0.92248924  1  0.079825  0  0.076918  0.082437  0  1.111498  0
H  H4  1  0.42061516  0.25282509  0.83422801  1  0.084735  0  0.080784  0.090874  0  1.078134  0
H  H5  1  0.58533714  0.16578727  0.74711337  1  0.075815  0  0.080672  0.09038  0  1.078592  0
H  H6  1  0.50731104  0.50012121  0.07709483  1  0.064037  0  0.077082  0.082474  0  1.111533  0
H  H7  1  0.58613640  0.58709706  0.16571039  1  0.074105  0  0.080785  0.090712  0  1.078733  0
H  H8  1  0.42423958  0.41317920  0.25242793  1  0.090975  0  0.080735  0.090841  0  1.077959  0
H  H9  1  0.49994143  0.92282586  0.49977314  1  0.067156  0  0.077126  0.08263  0  1.111467  0
H  H10  1  0.41603849  0.83416251  0.41293463  1  0.105943  0  0.080652  0.091016  0  1.076991  0
H  H11  1  0.58140101  0.74728307  0.58673073  1  0.088027  0  0.080458  0.090613  0  1.079038  0
C  C12  1  0.49469425  0.57265211  0.49972577  1  1.651854  0  0.274676  0.692144  0  4.035437  0
C  C13  1  0.49977381  0.42709485  0.57274122  1  1.66409  0  0.27562  0.694218  0  4.031857  0
C  C14  1  0.49984460  0.49961848  0.42722960  1  1.638209  0  0.27441  0.691938  0  4.034046  0
C  C15  1  0.54425114  0.90338781  0.83669513  1  1.659879  0  0.273572  0.687696  0  4.078055  0
C  C16  1  0.54734551  0.75982015  0.90346038  1  1.636742  0  0.273641  0.687992  0  4.076665  0
C  C17  1  0.54642678  0.83658987  0.75969476  1  1.650817  0  0.273593  0.688265  0  4.077657  0
C  C18  1  0.46214574  0.16313028  0.09645078  1  1.661797  0  0.274338  0.688181  0  4.076937  0
C  C19  1  0.45862624  0.23987059  0.16361320  1  1.641734  0  0.273851  0.6883  0  4.075804  0
C  C20  1  0.46072567  0.09618774  0.24014413  1  1.629162  0  0.273593  0.688485  0  4.076907  0
C  C21  1  0.47680485  0.16513634  0.88528867  1  0.02239  0  -0.016947  0.088713  0  3.930698  0
C  C22  1  0.50613650  0.11584461  0.88405523  1  0.026624  0  -0.096161  -0.160659  0  3.934808  0
C  C23  1  0.53354327  0.11463706  0.83476242  1  -0.007621  0  -0.016921  0.088214  0  3.929629  0
C  C24  1  0.54422634  0.16543931  0.78538352  1  -0.05099  0  -0.092706  -0.157453  0  3.927036  0
C  C25  1  0.50296792  0.21588865  0.78409494  1  0.012267  0  -0.018213  0.084097  0  3.929755  0
C  C26  1  0.46309728  0.21456294  0.83455288  1  -0.008  0  -0.092699  -0.158294  0  3.925405  0
C  C27  1  0.68522399  0.96189965  0.87871711  1  0.146809  0  0.005799  0.063058  0  4.055411  0
C  C28  1  0.70031251  0.01312564  0.87635550  1  0.11984  0  0.004391  0.031667  0  4.011319  0
C  C29  1  0.54235463  0.06064232  0.83534823  1  0.073288  0  -0.011649  -0.027444  0  3.919951  0
C  C30  1  0.38169055  0.05285705  0.79547317  1  0.092366  0  0.00479  0.034102  0  4.019739  0
C  C31  1  0.39512578  0.00321502  0.79459249  1  0.139939  0  0.005827  0.062506  0  4.055338  0
C  C32  1  0.54002526  0.95698153  0.83699854  1  0.039924  0  -0.02046  -0.130903  0  3.980759  0
C  C33  1  0.31108544  0.12338123  0.98668164  1  0.097716  0  0.004563  0.031885  0  4.011066  0
C  C34  1  0.32495497  0.12108994  0.03784368  1  0.134938  0  0.006343  0.062668  0  4.054325  0
C  C35  1  0.46760501  0.16297127  0.04279838  1  0.058935  0  -0.020511  -0.129239  0  3.978143  0
C  C36  1  0.61153137  0.20544967  0.99666914  1  0.145453  0  0.005523  0.061485  0  4.056903  0
C  C37  1  0.62670641  0.20449155  0.94711170  1  0.046348  0  0.004656  0.033353  0  4.019787  0
C  C38  1  0.46800750  0.16449277  0.93926392  1  0.083255  0  -0.011998  -0.026969  0  3.918343  0
C  C39  1  0.66651742  0.31672077  0.72262452  1  0.129669  0  0.003277  0.027944  0  4.018894  0
C  C40  1  0.65359690  0.36782944  0.67345977  1  0.104655  0  0.011708  0.074385  0  4.019885  0
C  C41  1  0.50082978  0.37336855  0.62648816  1  0.06553  0  -0.020814  -0.145224  0  3.91379  0
C  C42  1  0.34858446  0.32633109  0.63216538  1  0.11603  0  0.011961  0.074632  0  4.020936  0
C  C43  1  0.33654705  0.27726248  0.68333525  1  0.090797  0  0.00339  0.027952  0  4.019646  0
C  C44  1  0.50181399  0.26960594  0.73039357  1  0.087216  0  -0.010157  -0.020608  0  3.932207  0
C  C45  1  0.53429283  0.55061695  0.11444863  1  0.03622  0  -0.016937  0.089228  0  3.927426  0
C  C46  1  0.50681970  0.50013340  0.11558050  1  0.021203  0  -0.096019  -0.16117  0  3.934491  0
C  C47  1  0.47831746  0.44964614  0.16480048  1  0.043752  0  -0.017036  0.088485  0  3.927637  0
C  C48  1  0.46577194  0.45104283  0.21422903  1  -0.015496  0  -0.092968  -0.157665  0  3.926007  0
C  C49  1  0.50536426  0.50013903  0.21562704  1  -0.032855  0  -0.017908  0.083276  0  3.931458  0
C  C50  1  0.54540724  0.54923777  0.16525875  1  -0.009073  0  -0.092824  -0.157478  0  3.925892  0
C  C51  1  0.32107722  0.34061254  0.12147281  1  0.09516  0  0.006772  0.062941  0  4.05515  0
C  C52  1  0.30981203  0.38974894  0.12339415  1  0.070452  0  0.003812  0.031468  0  4.012848  0
C  C53  1  0.46848454  0.39617822  0.16431522  1  0.087863  0  -0.011255  -0.027331  0  3.916134  0
C  C54  1  0.62638951  0.34816028  0.20450690  1  0.106046  0  0.003983  0.033095  0  4.018109  0
C  C55  1  0.60859704  0.29745743  0.20583112  1  0.133432  0  0.006414  0.062922  0  4.05416  0
C  C56  1  0.46343837  0.29371076  0.16346896  1  0.111614  0  -0.021264  -0.130691  0  3.979549  0
C  C57  1  0.70231636  0.61039813  0.01320376  1  0.093516  0  0.003926  0.030805  0  4.012715  0
C  C58  1  0.68886290  0.65930392  0.96211391  1  0.132422  0  0.005582  0.063552  0  4.054696  0
C  C59  1  0.54355654  0.70610796  0.95712427  1  0.105455  0  -0.020085  -0.131417  0  3.980616  0
C  C60  1  0.39841101  0.70248971  0.00324752  1  0.082061  0  0.006637  0.063415  0  4.054786  0
C  C61  1  0.38383007  0.65198162  0.05276717  1  0.119136  0  0.004293  0.033203  0  4.019321  0
C  C62  1  0.54361165  0.60405199  0.06058757  1  0.067103  0  -0.011768  -0.027425  0  3.917654  0
C  C63  1  0.33725086  0.53942501  0.27719109  1  0.108953  0  0.003071  0.027276  0  4.019032  0
C  C64  1  0.34817847  0.54126662  0.32643434  1  0.09042  0  0.011968  0.074737  0  4.021921  0
C  C65  1  0.50205268  0.49984713  0.37335612  1  0.105329  0  -0.020773  -0.145911  0  3.916105  0
C  C66  1  0.65794501  0.45866728  0.36754714  1  0.093569  0  0.012508  0.075975  0  4.018781  0
C  C67  1  0.67110688  0.46079776  0.31633032  1  0.109438  0  0.002704  0.027387  0  4.018841  0
C  C68  1  0.50453408  0.50013880  0.26935334  1  0.107922  0  -0.009881  -0.020351  0  3.932829  0
C  C69  1  0.47090635  0.88539557  0.44940494  1  0.040751  0  -0.017363  0.087466  0  3.93155  0
C  C70  1  0.49966456  0.88427661  0.49982218  1  0.039374  0  -0.096252  -0.161397  0  3.936326  0
C  C71  1  0.52819085  0.83502409  0.55026987  1  0.028564  0  -0.016666  0.08936  0  3.928419  0
C  C72  1  0.53964596  0.78553357  0.54889260  1  -0.019376  0  -0.09278  -0.158215  0  3.925813  0
C  C73  1  0.49852045  0.78414131  0.49983856  1  -0.019158  0  -0.017615  0.084257  0  3.931076  0
C  C74  1  0.45813997  0.83456297  0.45078034  1  -0.05321  0  -0.09273  -0.15749  0  3.926325  0
C  C75  1  0.68319038  0.87876987  0.65901597  1  0.184125  0  0.006062  0.062547  0  4.055019  0
C  C76  1  0.69558705  0.87666106  0.61002100  1  0.09741  0  0.004265  0.032263  0  4.011196  0
C  C77  1  0.53817344  0.83561084  0.60365178  1  0.047936  0  -0.01148  -0.027696  0  3.918556  0
C  C78  1  0.38054994  0.79550742  0.65157616  1  0.107863  0  0.003791  0.032869  0  4.018707  0
C  C79  1  0.39742817  0.79435339  0.70217201  1  0.097941  0  0.006286  0.062964  0  4.054403  0
C  C80  1  0.54146212  0.83681845  0.70586055  1  0.071721  0  -0.020305  -0.129905  0  3.980428  0
C  C81  1  0.30423365  0.98685618  0.38948389  1  0.124495  0  0.004176  0.0314  0  4.012858  0
C  C82  1  0.31856469  0.03792307  0.34056630  1  0.085339  0  0.006241  0.063089  0  4.053283  0
C  C83  1  0.46436746  0.04264705  0.29398156  1  0.098279  0  -0.020856  -0.131257  0  3.980889  0
C  C84  1  0.61001871  0.99634919  0.29789217  1  0.145824  0  0.005469  0.062468  0  4.05627  0
C  C85  1  0.62377015  0.94685527  0.34841976  1  0.088429  0  0.005162  0.033448  0  4.019214  0
C  C86  1  0.46270698  0.93929211  0.39604145  1  0.052947  0  -0.012269  -0.027206  0  3.91987  0
C  C87  1  0.66233222  0.72243717  0.46045521  1  0.112867  0  0.00273  0.026945  0  4.020065  0
C  C88  1  0.64833113  0.67332392  0.45834276  1  0.086119  0  0.012395  0.076427  0  4.020143  0
C  C89  1  0.49425132  0.62649903  0.49964753  1  0.057496  0  -0.020593  -0.146341  0  3.915839  0
C  C90  1  0.34117720  0.63235004  0.54097755  1  0.103714  0  0.012022  0.075057  0  4.020104  0
C  C91  1  0.33080041  0.68351555  0.53907883  1  0.116317  0  0.003059  0.027765  0  4.019639  0
C  C92  1  0.49752287  0.73036599  0.49982460  1  0.107599  0  -0.010288  -0.021204  0  3.934338  0
Cl  Cl93  1  0.23422421  0.99814382  0.74126076  1  -0.159651  0  0.021374  -0.017191  0  1.657621  0
Cl  Cl94  1  0.84740555  0.90394847  0.93267827  1  -0.158493  0  0.018561  -0.020198  0  1.638135  0
Cl  Cl95  1  0.15203984  0.10313270  0.74562503  1  -0.179493  0  0.023503  -0.028621  0  1.868091  0
Cl  Cl96  1  0.93078385  0.01483000  0.92546071  1  -0.181332  0  0.025338  -0.024016  0  1.880145  0
Cl  Cl97  1  0.16393368  0.06702867  0.09567494  1  -0.160054  0  0.018152  -0.020683  0  1.634896  0
Cl  Cl98  1  0.08316607  0.07409408  0.98488228  1  -0.17048  0  0.025265  -0.024178  0  1.879717  0
Cl  Cl99  1  0.76899960  0.25901971  0.00171442  1  -0.158994  0  0.02131  -0.017386  0  1.656336  0
Cl  Cl100  1  0.85508538  0.25443672  0.89694917  1  -0.17541  0  0.023633  -0.028072  0  1.864138  0
Cl  Cl101  1  0.89960800  0.31358951  0.77367978  1  -0.179634  0  0.0247  -0.025654  0  1.894478  0
Cl  Cl102  1  0.82173673  0.42334484  0.67357394  1  -0.152261  0  0.012853  -0.025653  0  1.664723  0
Cl  Cl103  1  0.10360324  0.22618175  0.68660910  1  -0.180719  0  0.024866  -0.02524  0  1.897869  0
Cl  Cl104  1  0.18034400  0.32600298  0.57674911  1  -0.151289  0  0.012881  -0.025724  0  1.664609  0
Cl  Cl105  1  0.76436799  0.23871942  0.25966738  1  -0.158444  0  0.020936  -0.017846  0  1.656331  0
Cl  Cl106  1  0.15690738  0.33660746  0.06771099  1  -0.161644  0  0.018634  -0.019877  0  1.636235  0
Cl  Cl107  1  0.85710857  0.34829646  0.25429828  1  -0.181867  0  0.023446  -0.028277  0  1.862885  0
Cl  Cl108  1  0.08275501  0.44102741  0.07389858  1  -0.183951  0  0.025299  -0.024063  0  1.885498  0
Cl  Cl109  1  0.85337074  0.66309318  0.90439084  1  -0.160822  0  0.018555  -0.020172  0  1.636805  0
Cl  Cl110  1  0.93246048  0.55929922  0.01502426  1  -0.182991  0  0.025486  -0.023781  0  1.886704  0
Cl  Cl111  1  0.23850391  0.76111625  0.99821835  1  -0.160706  0  0.02089  -0.017585  0  1.657806  0
Cl  Cl112  1  0.15373977  0.65188629  0.10286814  1  -0.183583  0  0.023312  -0.02858  0  1.862877  0
Cl  Cl113  1  0.10348340  0.58737206  0.22611384  1  -0.179246  0  0.024965  -0.024938  0  1.89433  0
Cl  Cl114  1  0.17674089  0.59680408  0.32644161  1  -0.152453  0  0.012831  -0.025612  0  1.666431  0
Cl  Cl115  1  0.90642259  0.41306422  0.31287879  1  -0.180106  0  0.025162  -0.025227  0  1.897385  0
Cl  Cl116  1  0.82942369  0.40307957  0.42279509  1  -0.1441  0  0.013054  -0.025592  0  1.665412  0
Cl  Cl117  1  0.24195994  0.74060609  0.76081188  1  -0.165325  0  0.021387  -0.01716  0  1.656524  0
Cl  Cl118  1  0.84469476  0.93278152  0.66288037  1  -0.162234  0  0.018265  -0.020385  0  1.634174  0
Cl  Cl119  1  0.15096107  0.74562884  0.65146719  1  -0.182683  0  0.023477  -0.028393  0  1.865519  0
Cl  Cl120  1  0.92240863  0.92608769  0.55886355  1  -0.1885  0  0.025295  -0.024189  0  1.880985  0
Cl  Cl121  1  0.15491234  0.09593604  0.33646696  1  -0.160636  0  0.018732  -0.019847  0  1.637584  0
Cl  Cl122  1  0.07425527  0.98536516  0.44035460  1  -0.180485  0  0.025125  -0.023998  0  1.879252  0
Cl  Cl123  1  0.77162903  0.00114379  0.23957176  1  -0.159307  0  0.021578  -0.016967  0  1.655894  0
Cl  Cl124  1  0.85400748  0.89646909  0.34896194  1  -0.180442  0  0.023789  -0.028103  0  1.867364  0
Cl  Cl125  1  0.89712841  0.77321588  0.41270893  1  -0.178958  0  0.024746  -0.025112  0  1.894473  0
Cl  Cl126  1  0.81629784  0.67332474  0.40265644  1  -0.153667  0  0.012672  -0.0264  0  1.665961  0
Cl  Cl127  1  0.09823903  0.68704551  0.58695764  1  -0.182914  0  0.025295  -0.024905  0  1.898942  0
Cl  Cl128  1  0.16964370  0.57717054  0.59640325  1  -0.141393  0  0.01299  -0.025464  0  1.665701  0
O  O129  1  0.73624785  0.47872805  0.45840675  1  -1.259581  0  -0.236444  -0.605294  0  2.439027  0
O  O130  1  0.73176635  0.56222424  0.47900596  1  -1.25393  0  -0.236505  -0.604782  0  2.437419  0
O  O131  1  0.73582556  0.45820051  0.56247469  1  -1.259148  0  -0.23651  -0.606039  0  2.437771  0
O  O132  1  0.26170879  0.52030676  0.43747664  1  -1.25428  0  -0.235662  -0.603833  0  2.437451  0
O  O133  1  0.26300844  0.43729367  0.54171455  1  -1.257166  0  -0.236404  -0.605203  0  2.436187  0
O  O134  1  0.25810124  0.54168260  0.52055731  1  -1.249515  0  -0.236063  -0.604138  0  2.438066  0
O  O135  1  0.78507129  0.81449064  0.78976481  1  -1.248518  0  -0.231628  -0.599604  0  2.414281  0
O  O136  1  0.78237599  0.89528857  0.81452813  1  -1.247446  0  -0.231109  -0.598576  0  2.417684  0
O  O137  1  0.78521095  0.78993293  0.89534877  1  -1.247162  0  -0.23084  -0.598487  0  2.415731  0
O  O138  1  0.31197598  0.85804272  0.76988386  1  -1.241204  0  -0.233712  -0.603346  0  2.408821  0
O  O139  1  0.31376128  0.76986849  0.87186455  1  -1.246203  0  -0.23454  -0.603548  0  2.407551  0
O  O140  1  0.31036336  0.87191976  0.85807393  1  -1.247514  0  -0.234404  -0.603671  0  2.408017  0
O  O141  1  0.69452744  0.12765360  0.23010372  1  -1.240454  0  -0.233742  -0.602724  0  2.408661  0
O  O142  1  0.69625732  0.14160544  0.12802002  1  -1.250172  0  -0.234501  -0.603348  0  2.408394  0
O  O143  1  0.69274319  0.22969722  0.14210645  1  -1.244568  0  -0.234108  -0.602868  0  2.409098  0
O  O144  1  0.22315174  0.10429685  0.20989502  1  -1.244438  0  -0.231293  -0.599094  0  2.417297  0
O  O145  1  0.22038274  0.20983731  0.18555796  1  -1.248535  0  -0.231468  -0.598536  0  2.414595  0
O  O146  1  0.22329491  0.18518973  0.10455453  1  -1.245162  0  -0.231458  -0.598192  0  2.415762  0
