# generated using pymatgen
data_KH4C6NO3
_symmetry_space_group_name_H-M   'P 1'
_cell_length_a   3.66603324
_cell_length_b   7.61543857
_cell_length_c   24.13784299
_cell_angle_alpha   90.00021647
_cell_angle_beta   89.99976938
_cell_angle_gamma   94.90987069
_symmetry_Int_Tables_number   1
_chemical_formula_structural   KH4C6NO3
_chemical_formula_sum   'K4 H16 C24 N4 O12'
_cell_volume   671.41838530
_cell_formula_units_Z   4
loop_
 _symmetry_equiv_pos_site_id
 _symmetry_equiv_pos_as_xyz
  1  'x, y, z'
loop_
 _atom_site_type_symbol
 _atom_site_label
 _atom_site_symmetry_multiplicity
 _atom_site_fract_x
 _atom_site_fract_y
 _atom_site_fract_z
 _atom_site_occupancy
 _atom_site_hle17_bader_spin_density
 _atom_site_hle17_ddec_charge
 _atom_site_hle17_ddec_spin_density
 _atom_site_hle17_ddec_sum_bond_order
 _atom_site_hle17_magmom
 _atom_site_hse06_10hf_bader_spin_density
 _atom_site_hse06_10hf_ddec_charge
 _atom_site_hse06_10hf_ddec_spin_density
 _atom_site_hse06_10hf_ddec_sum_bond_order
 _atom_site_hse06_10hf_magmom
 _atom_site_hse06_bader_spin_density
 _atom_site_hse06_ddec_charge
 _atom_site_hse06_ddec_spin_density
 _atom_site_hse06_ddec_sum_bond_order
 _atom_site_hse06_magmom
 _atom_site_pbe_bader_spin_density
 _atom_site_pbe_cm5_charge
 _atom_site_pbe_ddec_charge
 _atom_site_pbe_ddec_spin_density
 _atom_site_pbe_ddec_sum_bond_order
 _atom_site_pbe_magmom
K  K0  1  0.54275983  0.20986946  0.97405137  1  0  0.927591  0  0.48638  0  0  0.869851  0  0.687763  0  0  0.88632  0  0.665205  0  0  0.809848  0.857615  0  0.703937  0
K  K1  1  0.95722721  0.29013055  0.47405010  1  0  0.927601  0  0.486379  0  0  0.869854  0  0.687765  0  0  0.886323  0  0.665205  0  0  0.809851  0.857623  0  0.703941  0
K  K2  1  0.45722617  0.79012953  0.02595045  1  0  0.927594  0  0.48637  0  0  0.869859  0  0.687749  0  0  0.886328  0  0.665191  0  0  0.809848  0.857626  0  0.703923  0
K  K3  1  0.04278581  0.70986706  0.52595089  1  0  0.927585  0  0.486398  0  0  0.86985  0  0.68777  0  0  0.886319  0  0.665212  0  0  0.809832  0.857609  0  0.703942  0
H  H4  1  0.12681682  0.14218698  0.85905195  1  0  0.111667  0  0.980156  0  0  0.119808  0  1.045409  0  0  0.124181  0  1.042661  0  0  0.105843  0.116726  0  1.047506  0
H  H5  1  0.37317403  0.35781446  0.35905206  1  0  0.111684  0  0.980158  0  0  0.119818  0  1.045418  0  0  0.124191  0  1.042669  0  0  0.105855  0.116736  0  1.047519  0
H  H6  1  0.87319372  0.85781195  0.14094862  1  0  0.111653  0  0.980245  0  0  0.119802  0  1.045482  0  0  0.124176  0  1.042733  0  0  0.10585  0.116723  0  1.047582  0
H  H7  1  0.62681247  0.64218717  0.64094768  1  0  0.111647  0  0.980167  0  0  0.119786  0  1.045424  0  0  0.124158  0  1.042677  0  0  0.105834  0.116704  0  1.047517  0
H  H8  1  0.37444109  0.05600026  0.76901022  1  0  0.076027  0  0.981098  0  0  0.087211  0  1.045484  0  0  0.089133  0  1.044614  0  0  0.096488  0.085795  0  1.04612  0
H  H9  1  0.12555762  0.44400149  0.26901059  1  0  0.076  0  0.981132  0  0  0.087171  0  1.04554  0  0  0.089094  0  1.044667  0  0  0.096459  0.085751  0  1.046178  0
H  H10  1  0.62556400  0.94399868  0.23099035  1  0  0.076026  0  0.981082  0  0  0.087214  0  1.045468  0  0  0.089137  0  1.044595  0  0  0.096488  0.085797  0  1.046107  0
H  H11  1  0.87443482  0.55600275  0.73098874  1  0  0.076061  0  0.98105  0  0  0.087256  0  1.045419  0  0  0.089179  0  1.044548  0  0  0.096512  0.085839  0  1.046058  0
H  H12  1  0.44881693  0.74046996  0.74766446  1  0  0.088559  0  0.967887  0  0  0.100591  0  1.028404  0  0  0.103007  0  1.028971  0  0  0.098559  0.098834  0  1.028208  0
H  H13  1  0.05117933  0.75953172  0.24766466  1  0  0.088539  0  0.967907  0  0  0.100569  0  1.028431  0  0  0.102985  0  1.028997  0  0  0.098549  0.098812  0  1.028237  0
H  H14  1  0.55117973  0.25952768  0.25233529  1  0  0.088517  0  0.967961  0  0  0.100552  0  1.028473  0  0  0.102969  0  1.029039  0  0  0.098554  0.098798  0  1.028276  0
H  H15  1  0.94881881  0.24047383  0.75233426  1  0  0.088515  0  0.968008  0  0  0.100539  0  1.028535  0  0  0.102956  0  1.029101  0  0  0.098545  0.098788  0  1.028335  0
H  H16  1  0.26774931  0.51114680  0.81856011  1  0  0.108108  0  0.944346  0  0  0.120333  0  0.999973  0  0  0.123698  0  0.996886  0  0  0.110017  0.117849  0  1.002232  0
H  H17  1  0.23225295  0.98885301  0.31856088  1  0  0.108073  0  0.944381  0  0  0.120295  0  1.000021  0  0  0.123661  0  0.996931  0  0  0.109984  0.117813  0  1.002282  0
H  H18  1  0.73223917  0.48885087  0.18143964  1  0  0.108052  0  0.944348  0  0  0.120277  0  0.999991  0  0  0.123646  0  0.996901  0  0  0.109985  0.117793  0  1.002254  0
H  H19  1  0.76776131  0.01115119  0.68143928  1  0  0.108084  0  0.944415  0  0  0.120318  0  1.000035  0  0  0.123695  0  0.996928  0  0  0.11  0.117833  0  1.002298  0
C  C20  1  0.05730063  0.87945948  0.89343328  1  0  0.379255  0  3.863018  0  0  0.367458  0  4.127677  0  0  0.389657  0  4.137093  0  0  0.105453  0.352861  0  4.120722  0
C  C21  1  0.44268893  0.62054118  0.39343348  1  0  0.379255  0  3.863095  0  0  0.367467  0  4.127718  0  0  0.389666  0  4.137135  0  0  0.105461  0.352879  0  4.12075  0
C  C22  1  0.94269900  0.12053948  0.10656729  1  0  0.379255  0  3.863013  0  0  0.367466  0  4.127695  0  0  0.389665  0  4.13711  0  0  0.105439  0.352876  0  4.120733  0
C  C23  1  0.55730823  0.37945910  0.60656668  1  0  0.379205  0  3.863095  0  0  0.367427  0  4.127713  0  0  0.389626  0  4.137128  0  0  0.105435  0.352838  0  4.120754  0
C  C24  1  0.15981619  0.00412265  0.85011402  1  0  -0.223358  0  3.708452  0  0  -0.239063  0  3.957601  0  0  -0.250838  0  3.976888  0  0  -0.108708  -0.231502  0  3.944625  0
C  C25  1  0.34018033  0.49587868  0.35011474  1  0  -0.22339  0  3.70855  0  0  -0.239093  0  3.957677  0  0  -0.25087  0  3.976966  0  0  -0.108696  -0.231539  0  3.944702  0
C  C26  1  0.84018865  0.99587498  0.14988614  1  0  -0.223358  0  3.708547  0  0  -0.23906  0  3.95768  0  0  -0.250837  0  3.976968  0  0  -0.108683  -0.231508  0  3.944714  0
C  C27  1  0.65981707  0.50412292  0.64988584  1  0  -0.223275  0  3.708584  0  0  -0.238979  0  3.957718  0  0  -0.250754  0  3.977007  0  0  -0.108641  -0.231419  0  3.944735  0
C  C28  1  0.29567669  0.95537309  0.79990625  1  0  -0.007609  0  3.779857  0  0  -0.023405  0  4.029557  0  0  -0.016959  0  4.048634  0  0  -0.081216  -0.027118  0  4.016249  0
C  C29  1  0.20432056  0.54462653  0.29990610  1  0  -0.007537  0  3.779732  0  0  -0.023331  0  4.029431  0  0  -0.016883  0  4.048506  0  0  -0.081196  -0.02704  0  4.016112  0
C  C30  1  0.70433088  0.04462453  0.20009391  1  0  -0.007592  0  3.779806  0  0  -0.0234  0  4.029522  0  0  -0.016952  0  4.048598  0  0  -0.081239  -0.027111  0  4.016213  0
C  C31  1  0.79567486  0.45537903  0.70009241  1  0  -0.00767  0  3.779794  0  0  -0.023485  0  4.029528  0  0  -0.017038  0  4.048605  0  0  -0.081293  -0.027197  0  4.016211  0
C  C32  1  0.33913057  0.77683817  0.78754049  1  0  -0.11177  0  3.807455  0  0  -0.129685  0  4.069294  0  0  -0.140163  0  4.095372  0  0  -0.108909  -0.122942  0  4.051598  0
C  C33  1  0.16087069  0.72316658  0.28754099  1  0  -0.111752  0  3.807495  0  0  -0.129665  0  4.069323  0  0  -0.140144  0  4.095399  0  0  -0.108873  -0.122915  0  4.051623  0
C  C34  1  0.66086634  0.22316080  0.21246009  1  0  -0.111768  0  3.807446  0  0  -0.129675  0  4.069276  0  0  -0.140154  0  4.095354  0  0  -0.108898  -0.122929  0  4.051576  0
C  C35  1  0.83914381  0.27683894  0.71246042  1  0  -0.111764  0  3.80733  0  0  -0.129676  0  4.069165  0  0  -0.140156  0  4.095243  0  0  -0.108882  -0.12293  0  4.051463  0
C  C36  1  0.24046770  0.65011438  0.82650498  1  0  -0.09151  0  3.781219  0  0  -0.116825  0  4.043395  0  0  -0.11173  0  4.063526  0  0  -0.08911  -0.119669  0  4.029607  0
C  C37  1  0.25953387  0.84988288  0.32650475  1  0  -0.091526  0  3.781448  0  0  -0.116843  0  4.043603  0  0  -0.111747  0  4.063736  0  0  -0.08911  -0.119693  0  4.029821  0
C  C38  1  0.75952896  0.34988326  0.17349476  1  0  -0.091399  0  3.781247  0  0  -0.116702  0  4.043417  0  0  -0.111609  0  4.063551  0  0  -0.089083  -0.119546  0  4.029636  0
C  C39  1  0.74047370  0.15011475  0.67349293  1  0  -0.091436  0  3.781296  0  0  -0.116753  0  4.043436  0  0  -0.111662  0  4.063576  0  0  -0.08906  -0.119595  0  4.029653  0
C  C40  1  0.09192488  0.69605442  0.87815425  1  0  -0.059366  0  3.608976  0  0  -0.06884  0  3.863173  0  0  -0.081705  0  3.885408  0  0  0.068874  -0.060897  0  3.848463  0
C  C41  1  0.40807371  0.80394868  0.37815427  1  0  -0.059325  0  3.609049  0  0  -0.068787  0  3.863218  0  0  -0.081653  0  3.885454  0  0  0.068872  -0.060845  0  3.848505  0
C  C42  1  0.90806930  0.30394455  0.12184633  1  0  -0.059425  0  3.609076  0  0  -0.06895  0  3.863349  0  0  -0.081817  0  3.885586  0  0  0.06887  -0.06101  0  3.848635  0
C  C43  1  0.59193237  0.19605553  0.62184506  1  0  -0.059441  0  3.609163  0  0  -0.068913  0  3.863341  0  0  -0.081781  0  3.88558  0  0  0.068837  -0.060982  0  3.848645  0
N  N44  1  0.97943464  0.55617319  0.91403572  1  0  0.517975  0  3.905882  0  0  0.551178  0  4.19494  0  0  0.573952  0  4.204608  0  0  -0.001042  0.536091  0  4.188305  0
N  N45  1  0.52057046  0.94382891  0.41403574  1  0  0.51791  0  3.905946  0  0  0.5511  0  4.19501  0  0  0.573874  0  4.20468  0  0  -0.001068  0.536017  0  4.188372  0
N  N46  1  0.02055657  0.44382447  0.08596403  1  0  0.518012  0  3.905759  0  0  0.55122  0  4.19483  0  0  0.573995  0  4.204498  0  0  -0.000993  0.536143  0  4.188182  0
N  N47  1  0.47944652  0.05617528  0.58596401  1  0  0.518095  0  3.905617  0  0  0.551293  0  4.194672  0  0  0.574068  0  4.204341  0  0  -0.000968  0.536205  0  4.188043  0
O  O48  1  0.95907693  0.93278776  0.94121858  1  0  -0.712869  0  2.002431  0  0  -0.677646  0  2.249283  0  0  -0.701128  0  2.245554  0  0  -0.477811  -0.661124  0  2.251271  0
O  O49  1  0.54091339  0.56721204  0.44121896  1  0  -0.712866  0  2.00243  0  0  -0.677647  0  2.249265  0  0  -0.701127  0  2.245537  0  0  -0.477801  -0.661128  0  2.251247  0
O  O50  1  0.04093089  0.06721118  0.05878200  1  0  -0.712861  0  2.002384  0  0  -0.677641  0  2.249246  0  0  -0.701123  0  2.245517  0  0  -0.477821  -0.661122  0  2.251231  0
O  O51  1  0.45908351  0.43278693  0.55878078  1  0  -0.712871  0  2.002423  0  0  -0.677656  0  2.249263  0  0  -0.701136  0  2.245535  0  0  -0.47782  -0.661129  0  2.251244  0
O  O52  1  0.05986196  0.40094925  0.90282489  1  0  -0.510573  0  1.776579  0  0  -0.486056  0  2.004704  0  0  -0.500405  0  1.99848  0  0  -0.252529  -0.47606  0  2.0089  0
O  O53  1  0.44015536  0.09905393  0.40282465  1  0  -0.510554  0  1.776621  0  0  -0.486024  0  2.004743  0  0  -0.500376  0  1.998523  0  0  -0.25253  -0.476035  0  2.008945  0
O  O54  1  0.94012107  0.59904843  0.09717486  1  0  -0.510607  0  1.776519  0  0  -0.486085  0  2.004648  0  0  -0.500437  0  1.998428  0  0  -0.252583  -0.476095  0  2.008845  0
O  O55  1  0.55987278  0.90095156  0.59717427  1  0  -0.510592  0  1.776526  0  0  -0.486083  0  2.004678  0  0  -0.500437  0  1.998457  0  0  -0.252557  -0.47608  0  2.008869  0
O  O56  1  0.79318495  0.58229009  0.95669287  1  0  -0.492127  0  1.860772  0  0  -0.474911  0  2.107394  0  0  -0.487023  0  2.102411  0  0  -0.275761  -0.466465  0  2.110888  0
O  O57  1  0.70681616  0.91771117  0.45669358  1  0  -0.492107  0  1.860726  0  0  -0.474883  0  2.107347  0  0  -0.486994  0  2.102362  0  0  -0.275751  -0.466438  0  2.110842  0
O  O58  1  0.20680651  0.41770889  0.04330687  1  0  -0.492095  0  1.860702  0  0  -0.474868  0  2.107318  0  0  -0.486977  0  2.102332  0  0  -0.275738  -0.466423  0  2.110802  0
O  O59  1  0.29319240  0.08229172  0.54330658  1  0  -0.492152  0  1.860554  0  0  -0.474935  0  2.107186  0  0  -0.487045  0  2.1022  0  0  -0.275776  -0.466488  0  2.110684  0
