# generated using pymatgen
data_Pr2H24(CO)15
_symmetry_space_group_name_H-M   'P 1'
_cell_length_a   8.87058082
_cell_length_b   9.81638206
_cell_length_c   16.17574839
_cell_angle_alpha   103.85347431
_cell_angle_beta   103.63399584
_cell_angle_gamma   98.29210927
_symmetry_Int_Tables_number   1
_chemical_formula_structural   Pr2H24(CO)15
_chemical_formula_sum   'Pr4 H48 C30 O30'
_cell_volume   1298.62588634
_cell_formula_units_Z   2
loop_
 _symmetry_equiv_pos_site_id
 _symmetry_equiv_pos_as_xyz
  1  'x, y, z'
loop_
 _atom_site_type_symbol
 _atom_site_label
 _atom_site_symmetry_multiplicity
 _atom_site_fract_x
 _atom_site_fract_y
 _atom_site_fract_z
 _atom_site_occupancy
 _atom_site_hle17_bader_spin_density
 _atom_site_hle17_ddec_charge
 _atom_site_hle17_ddec_spin_density
 _atom_site_hle17_ddec_sum_bond_order
 _atom_site_hle17_magmom
 _atom_site_hse06_10hf_bader_spin_density
 _atom_site_hse06_10hf_ddec_charge
 _atom_site_hse06_10hf_ddec_spin_density
 _atom_site_hse06_10hf_ddec_sum_bond_order
 _atom_site_hse06_10hf_magmom
 _atom_site_hse06_bader_spin_density
 _atom_site_hse06_ddec_charge
 _atom_site_hse06_ddec_spin_density
 _atom_site_hse06_ddec_sum_bond_order
 _atom_site_hse06_magmom
 _atom_site_pbe_bader_spin_density
 _atom_site_pbe_cm5_charge
 _atom_site_pbe_ddec_charge
 _atom_site_pbe_ddec_spin_density
 _atom_site_pbe_ddec_sum_bond_order
 _atom_site_pbe_magmom
Pr  Pr0  1  0.18801734  0.95371809  0.08986500  1  0  2.300622  0  1.588704  0  0  2.133429  0  2.045665  0  0  2.224311  0  1.909566  0  0  1.485636  2.100526  0  2.081975  0
Pr  Pr1  1  0.81197965  0.04628661  0.91013311  1  0  2.300596  0  1.588655  0  0  2.133414  0  2.045578  0  0  2.224283  0  1.909509  0  0  1.485581  2.100511  0  2.081891  0
Pr  Pr2  1  0.35181842  0.92307148  0.36555845  1  0  2.312169  0  1.627945  0  0  2.154371  0  2.087733  0  0  2.240566  0  1.958336  0  0  1.497628  2.122627  0  2.12275  0
Pr  Pr3  1  0.64817495  0.07692788  0.63444151  1  0  2.312209  0  1.627855  0  0  2.15443  0  2.087623  0  0  2.240622  0  1.958235  0  0  1.497659  2.122692  0  2.122632  0
H  H4  1  0.75746023  0.92776159  0.19899943  1  0  0.117892  0  0.912453  0  0  0.134194  0  0.963449  0  0  0.136975  0  0.962054  0  0  0.11055  0.132212  0  0.964411  0
H  H5  1  0.24253714  0.07223990  0.80100013  1  0  0.117861  0  0.912405  0  0  0.134147  0  0.963436  0  0  0.136925  0  0.962043  0  0  0.110545  0.132167  0  0.964398  0
H  H6  1  0.69984480  0.95077034  0.29841169  1  0  0.110356  0  0.94003  0  0  0.125379  0  0.995541  0  0  0.127231  0  0.995799  0  0  0.108054  0.123906  0  0.995754  0
H  H7  1  0.30015463  0.04923008  0.70158860  1  0  0.110337  0  0.94001  0  0  0.125369  0  0.995528  0  0  0.127225  0  0.995779  0  0  0.108045  0.123897  0  0.995742  0
H  H8  1  0.73442416  0.21260420  0.31943908  1  0  0.075244  0  0.946732  0  0  0.093497  0  1.005362  0  0  0.095244  0  1.004483  0  0  0.092777  0.092184  0  1.005992  0
H  H9  1  0.26558109  0.78739620  0.68055951  1  0  0.075283  0  0.946649  0  0  0.093521  0  1.005304  0  0  0.095265  0  1.004431  0  0  0.092791  0.092223  0  1.005921  0
H  H10  1  0.77774785  0.19660059  0.21688459  1  0  0.067178  0  0.954668  0  0  0.084888  0  1.015838  0  0  0.086337  0  1.015299  0  0  0.094246  0.083863  0  1.016075  0
H  H11  1  0.22225340  0.80339768  0.78311564  1  0  0.067156  0  0.954673  0  0  0.08488  0  1.015839  0  0  0.08633  0  1.015299  0  0  0.094244  0.083855  0  1.016077  0
H  H12  1  0.02360018  0.27700961  0.34913847  1  0  0.097213  0  0.930728  0  0  0.112876  0  0.991199  0  0  0.114631  0  0.990346  0  0  0.102741  0.111722  0  0.991587  0
H  H13  1  0.97640174  0.72298650  0.65085906  1  0  0.097213  0  0.930741  0  0  0.112883  0  0.991182  0  0  0.114635  0  0.990328  0  0  0.102741  0.111726  0  0.991571  0
H  H14  1  0.97467494  0.11489523  0.37478108  1  0  0.113028  0  0.930241  0  0  0.129448  0  0.986532  0  0  0.131347  0  0.986166  0  0  0.109661  0.128114  0  0.986776  0
H  H15  1  0.02532074  0.88510414  0.62522165  1  0  0.113053  0  0.930288  0  0  0.129451  0  0.986571  0  0  0.131351  0  0.986203  0  0  0.109641  0.128118  0  0.986815  0
H  H16  1  0.88162880  0.56478039  0.21070640  1  0  0.102451  0  0.927835  0  0  0.121078  0  0.981474  0  0  0.122799  0  0.981083  0  0  0.10401  0.120124  0  0.981671  0
H  H17  1  0.11837140  0.43522325  0.78929383  1  0  0.102482  0  0.927794  0  0  0.121117  0  0.981441  0  0  0.122837  0  0.981049  0  0  0.104023  0.120171  0  0.98163  0
H  H18  1  0.86769930  0.52953795  0.09613570  1  0  0.098869  0  0.941652  0  0  0.111574  0  1.004623  0  0  0.114599  0  1.00227  0  0  0.094219  0.109471  0  1.006163  0
H  H19  1  0.13229883  0.47046676  0.90386442  1  0  0.098875  0  0.941613  0  0  0.111591  0  1.004597  0  0  0.114616  0  1.002244  0  0  0.094179  0.10949  0  1.006139  0
H  H20  1  0.92993655  0.32254386  0.14739463  1  0  0.067846  0  0.955287  0  0  0.085073  0  1.019738  0  0  0.086245  0  1.019865  0  0  0.094504  0.084385  0  1.019396  0
H  H21  1  0.07005786  0.67745978  0.85260361  1  0  0.067821  0  0.955243  0  0  0.085104  0  1.019673  0  0  0.086276  0  1.019799  0  0  0.09452  0.084415  0  1.019333  0
H  H22  1  0.09740835  0.43191016  0.23388619  1  0  0.071958  0  0.921761  0  0  0.091038  0  0.978966  0  0  0.092175  0  0.978968  0  0  0.095288  0.090149  0  0.978963  0
H  H23  1  0.90258594  0.56808811  0.76611250  1  0  0.071924  0  0.921743  0  0  0.09102  0  0.978971  0  0  0.092136  0  0.979  0  0  0.095256  0.09013  0  0.978966  0
H  H24  1  0.06954507  0.40555755  0.03787560  1  0  0.111639  0  0.931149  0  0  0.124084  0  0.993968  0  0  0.126174  0  0.993638  0  0  0.107278  0.12274  0  0.993915  0
H  H25  1  0.93044962  0.59443750  0.96212206  1  0  0.111665  0  0.931046  0  0  0.124095  0  0.993901  0  0  0.126177  0  0.993568  0  0  0.107308  0.122751  0  0.993848  0
H  H26  1  0.24315001  0.47661044  0.13175554  1  0  0.104788  0  0.923574  0  0  0.120905  0  0.976291  0  0  0.12362  0  0.974497  0  0  0.102181  0.118953  0  0.977521  0
H  H27  1  0.75684455  0.52338890  0.86824210  1  0  0.104807  0  0.923521  0  0  0.120919  0  0.976256  0  0  0.123628  0  0.974455  0  0  0.102186  0.118967  0  0.977486  0
H  H28  1  0.77780556  0.73776312  0.52002569  1  0  0.100246  0  0.928318  0  0  0.115765  0  0.98791  0  0  0.117907  0  0.987031  0  0  0.107043  0.114142  0  0.988721  0
H  H29  1  0.22219182  0.26223836  0.47997263  1  0  0.100218  0  0.92829  0  0  0.115747  0  0.98789  0  0  0.117889  0  0.987007  0  0  0.107047  0.114123  0  0.988703  0
H  H30  1  0.88796549  0.86415881  0.48455451  1  0  0.116216  0  0.923281  0  0  0.131743  0  0.981459  0  0  0.134312  0  0.980166  0  0  0.110682  0.129951  0  0.982278  0
H  H31  1  0.11203487  0.13584052  0.51544327  1  0  0.116183  0  0.923298  0  0  0.131713  0  0.98149  0  0  0.134277  0  0.980199  0  0  0.110679  0.12992  0  0.98231  0
H  H32  1  0.80988452  0.67271678  0.33040437  1  0  0.07233  0  0.938398  0  0  0.08859  0  1.000393  0  0  0.090444  0  0.998983  0  0  0.093442  0.087288  0  1.00126  0
H  H33  1  0.19011662  0.32727612  0.66959507  1  0  0.072339  0  0.938391  0  0  0.088558  0  1.000433  0  0  0.090412  0  0.999024  0  0  0.093418  0.087257  0  1.0013  0
H  H34  1  0.74460883  0.54673814  0.38253425  1  0  0.063832  0  0.919938  0  0  0.084323  0  0.973372  0  0  0.085482  0  0.973114  0  0  0.090687  0.083378  0  0.973658  0
H  H35  1  0.25539357  0.45326014  0.61746674  1  0  0.063829  0  0.919937  0  0  0.084321  0  0.973358  0  0  0.085479  0  0.973104  0  0  0.090699  0.083377  0  0.973643  0
H  H36  1  0.02682645  0.61912136  0.49365845  1  0  0.09394  0  0.935793  0  0  0.110725  0  0.995789  0  0  0.112162  0  0.995784  0  0  0.098681  0.109727  0  0.995681  0
H  H37  1  0.97317674  0.38088012  0.50633940  1  0  0.094004  0  0.935871  0  0  0.110775  0  0.99585  0  0  0.112211  0  0.995847  0  0  0.098716  0.109777  0  0.995742  0
H  H38  1  0.01628606  0.53088403  0.38401220  1  0  0.098918  0  0.927997  0  0  0.115013  0  0.98736  0  0  0.11704  0  0.986427  0  0  0.102317  0.11365  0  0.987887  0
H  H39  1  0.98371648  0.46910995  0.61598944  1  0  0.098958  0  0.927965  0  0  0.114995  0  0.987392  0  0  0.117021  0  0.98646  0  0  0.102332  0.113633  0  0.987921  0
H  H40  1  0.34977394  0.96148107  0.92964366  1  0  0.444265  0  0.851305  0  0  0.415258  0  0.910324  0  0  0.426988  0  0.893238  0  0  0.297728  0.407199  0  0.922068  0
H  H41  1  0.65022443  0.03852472  0.07035788  1  0  0.444291  0  0.851282  0  0  0.41528  0  0.910305  0  0  0.427011  0  0.893218  0  0  0.297712  0.407221  0  0.922049  0
H  H42  1  0.15989911  0.92898125  0.89575614  1  0  0.441212  0  0.860594  0  0  0.402432  0  0.939515  0  0  0.413613  0  0.92329  0  0  0.300085  0.394425  0  0.951269  0
H  H43  1  0.84009966  0.07102133  0.10424561  1  0  0.441214  0  0.860606  0  0  0.402429  0  0.939532  0  0  0.413611  0  0.923306  0  0  0.300062  0.394422  0  0.951286  0
H  H44  1  0.35494068  0.73897529  0.00550864  1  0  0.440675  0  0.806518  0  0  0.423228  0  0.86019  0  0  0.431772  0  0.849629  0  0  0.335927  0.416878  0  0.867578  0
H  H45  1  0.64505181  0.26102513  0.99448888  1  0  0.440685  0  0.806439  0  0  0.423228  0  0.860141  0  0  0.431772  0  0.849617  0  0  0.335925  0.416876  0  0.867532  0
H  H46  1  0.34075511  0.68561020  0.08754458  1  0  0.4398  0  0.806288  0  0  0.422396  0  0.860689  0  0  0.430368  0  0.851045  0  0  0.33858  0.41666  0  0.8671  0
H  H47  1  0.65924690  0.31439130  0.91245621  1  0  0.43977  0  0.806308  0  0  0.422348  0  0.860729  0  0  0.430316  0  0.851114  0  0  0.338576  0.416611  0  0.867141  0
H  H48  1  0.46986918  0.23607634  0.37275160  1  0  0.439362  0  0.80882  0  0  0.425988  0  0.854597  0  0  0.434035  0  0.843101  0  0  0.336063  0.420353  0  0.861954  0
H  H49  1  0.53013208  0.76392193  0.62724801  1  0  0.439354  0  0.808795  0  0  0.425988  0  0.854588  0  0  0.434034  0  0.843094  0  0  0.336061  0.420351  0  0.861927  0
H  H50  1  0.60493222  0.21604617  0.45220187  1  0  0.448382  0  0.848719  0  0  0.416666  0  0.912753  0  0  0.427757  0  0.896652  0  0  0.302583  0.408846  0  0.924215  0
H  H51  1  0.39506953  0.78395425  0.54779873  1  0  0.448422  0  0.848661  0  0  0.416712  0  0.912687  0  0  0.427802  0  0.896586  0  0  0.302622  0.408894  0  0.924146  0
C  C52  1  0.52889922  0.97462744  0.18856436  1  0  0.738629  0  3.812198  0  0  0.695232  0  4.107364  0  0  0.728835  0  4.102815  0  0  0.22249  0.672248  0  4.112945  0
C  C53  1  0.47110122  0.02537728  0.81143792  1  0  0.738372  0  3.812608  0  0  0.695079  0  4.107631  0  0  0.728678  0  4.103085  0  0  0.222448  0.672097  0  4.113209  0
C  C54  1  0.69829663  0.99304061  0.24144859  1  0  -0.2692  0  3.641355  0  0  -0.301096  0  3.883652  0  0  -0.30732  0  3.891091  0  0  -0.157195  -0.296675  0  3.878094  0
C  C55  1  0.30170303  0.00696090  0.75855498  1  0  -0.26904  0  3.641262  0  0  -0.300967  0  3.883562  0  0  -0.307189  0  3.890995  0  0  -0.157178  -0.296554  0  3.878019  0
C  C56  1  0.78890419  0.15049043  0.27300534  1  0  -0.059514  0  3.681217  0  0  -0.103532  0  3.939566  0  0  -0.103304  0  3.952369  0  0  -0.163644  -0.103252  0  3.930065  0
C  C57  1  0.21109872  0.84950999  0.72699541  1  0  -0.059522  0  3.681109  0  0  -0.103568  0  3.939494  0  0  -0.103341  0  3.952293  0  0  -0.16364  -0.103301  0  3.929995  0
C  C58  1  0.96295505  0.16315653  0.31952694  1  0  -0.272623  0  3.675069  0  0  -0.310762  0  3.930205  0  0  -0.316371  0  3.938803  0  0  -0.159222  -0.306635  0  3.923416  0
C  C59  1  0.03704453  0.83683960  0.68047399  1  0  -0.272759  0  3.675136  0  0  -0.310851  0  3.930197  0  0  -0.316451  0  3.938787  0  0  -0.159256  -0.306719  0  3.923416  0
C  C60  1  0.06072052  0.09587903  0.26204554  1  0  0.765015  0  3.794517  0  0  0.717244  0  4.095002  0  0  0.751215  0  4.088924  0  0  0.239456  0.694102  0  4.100648  0
C  C61  1  0.93928020  0.90411710  0.73795678  1  0  0.76512  0  3.794782  0  0  0.717386  0  4.095168  0  0  0.751356  0  4.08908  0  0  0.239504  0.694232  0  4.100832  0
C  C62  1  0.07220858  0.68636245  0.18340105  1  0  0.758491  0  3.821211  0  0  0.717762  0  4.118499  0  0  0.751526  0  4.112186  0  0  0.229509  0.694543  0  4.124659  0
C  C63  1  0.92779458  0.31363905  0.81660174  1  0  0.758716  0  3.820977  0  0  0.717979  0  4.118304  0  0  0.751743  0  4.111986  0  0  0.229622  0.694758  0  4.12447  0
C  C64  1  0.95035908  0.54805843  0.16190784  1  0  -0.264446  0  3.665176  0  0  -0.301924  0  3.916058  0  0  -0.30749  0  3.923547  0  0  -0.162613  -0.298142  0  3.910321  0
C  C65  1  0.04963881  0.45194521  0.83809147  1  0  -0.264578  0  3.664984  0  0  -0.302075  0  3.915983  0  0  -0.307641  0  3.92347  0  0  -0.16259  -0.298297  0  3.910247  0
C  C66  1  0.02535117  0.41831785  0.16595423  1  0  -0.050004  0  3.655083  0  0  -0.094757  0  3.91947  0  0  -0.094666  0  3.933062  0  0  -0.155864  -0.094498  0  3.909071  0
C  C67  1  0.97464323  0.58168579  0.83404524  1  0  -0.049937  0  3.654894  0  0  -0.094767  0  3.919387  0  0  -0.094674  0  3.93297  0  0  -0.155829  -0.094509  0  3.90899  0
C  C68  1  0.13147630  0.39592833  0.10292317  1  0  -0.268562  0  3.641233  0  0  -0.302143  0  3.885928  0  0  -0.308111  0  3.892916  0  0  -0.158986  -0.297502  0  3.879737  0
C  C69  1  0.86851901  0.60407424  0.89707627  1  0  -0.26854  0  3.641264  0  0  -0.302139  0  3.886071  0  0  -0.308065  0  3.893003  0  0  -0.159067  -0.2975  0  3.879883  0
C  C70  1  0.16698569  0.24836682  0.08996871  1  0  0.744481  0  3.816268  0  0  0.703341  0  4.10869  0  0  0.736933  0  4.104065  0  0  0.21373  0.680195  0  4.114392  0
C  C71  1  0.83301065  0.75163039  0.91003257  1  0  0.744374  0  3.816387  0  0  0.703262  0  4.108787  0  0  0.736847  0  4.104159  0  0  0.213692  0.680114  0  4.114488  0
C  C72  1  0.64335993  0.82063767  0.42527401  1  0  0.728447  0  3.833616  0  0  0.68721  0  4.129494  0  0  0.719979  0  4.125732  0  0  0.211787  0.664639  0  4.134746  0
C  C73  1  0.35664083  0.17935844  0.57472337  1  0  0.728475  0  3.833624  0  0  0.687328  0  4.129361  0  0  0.720093  0  4.1256  0  0  0.211854  0.664757  0  4.134612  0
C  C74  1  0.79033053  0.76863541  0.46043957  1  0  -0.265889  0  3.670527  0  0  -0.303637  0  3.922146  0  0  -0.309508  0  3.930145  0  0  -0.158628  -0.299368  0  3.916115  0
C  C75  1  0.20967022  0.23136070  0.53955842  1  0  -0.265774  0  3.670422  0  0  -0.303584  0  3.922069  0  0  -0.309443  0  3.930049  0  0  -0.15865  -0.299317  0  3.916043  0
C  C76  1  0.82813737  0.64849909  0.39445799  1  0  -0.051543  0  3.705725  0  0  -0.095744  0  3.969025  0  0  -0.09491  0  3.981612  0  0  -0.16356  -0.095984  0  3.959818  0
C  C77  1  0.17186620  0.35149918  0.60554193  1  0  -0.051595  0  3.705697  0  0  -0.095758  0  3.968958  0  0  -0.094927  0  3.981538  0  0  -0.163572  -0.095997  0  3.959752  0
C  C78  1  0.99847240  0.63027467  0.42586304  1  0  -0.254948  0  3.672953  0  0  -0.293457  0  3.930532  0  0  -0.298686  0  3.939267  0  0  -0.16012  -0.289636  0  3.92398  0
C  C79  1  0.00152888  0.36972358  0.57413347  1  0  -0.255035  0  3.673078  0  0  -0.293469  0  3.930612  0  0  -0.2987  0  3.939349  0  0  -0.160152  -0.289655  0  3.92407  0
C  C80  1  0.12519992  0.74984512  0.42322199  1  0  0.703619  0  3.844766  0  0  0.659478  0  4.144527  0  0  0.69159  0  4.14146  0  0  0.197248  0.637332  0  4.148539  0
C  C81  1  0.87480508  0.25015421  0.57677703  1  0  0.703601  0  3.844769  0  0  0.65944  0  4.144542  0  0  0.691551  0  4.141476  0  0  0.197234  0.637296  0  4.148553  0
O  O82  1  0.41360986  0.93908280  0.21970984  1  0  -0.820754  0  2.104613  0  0  -0.76568  0  2.366297  0  0  -0.799785  0  2.352737  0  0  -0.418079  -0.748972  0  2.374711  0
O  O83  1  0.58638817  0.06091654  0.78028949  1  0  -0.820656  0  2.10469  0  0  -0.765616  0  2.366325  0  0  -0.799718  0  2.352768  0  0  -0.418076  -0.748908  0  2.374736  0
O  O84  1  0.49786002  0.99309435  0.11111047  1  0  -0.701969  0  1.966725  0  0  -0.64236  0  2.187585  0  0  -0.671719  0  2.1759  0  0  -0.348292  -0.624758  0  2.194728  0
O  O85  1  0.50213731  0.00691680  0.88889047  1  0  -0.701864  0  1.96702  0  0  -0.642288  0  2.187817  0  0  -0.671646  0  2.176136  0  0  -0.348263  -0.624686  0  2.194958  0
O  O86  1  0.19535752  0.07661889  0.30060271  1  0  -0.787213  0  2.018228  0  0  -0.739613  0  2.284363  0  0  -0.771427  0  2.270309  0  0  -0.403872  -0.722921  0  2.293344  0
O  O87  1  0.80464436  0.92337725  0.69940038  1  0  -0.787251  0  2.018291  0  0  -0.739682  0  2.284413  0  0  -0.771513  0  2.270394  0  0  -0.403902  -0.722988  0  2.293403  0
O  O88  1  0.00889226  0.06406000  0.17783049  1  0  -0.719826  0  2.067238  0  0  -0.648885  0  2.304389  0  0  -0.680304  0  2.295354  0  0  -0.351029  -0.62962  0  2.309013  0
O  O89  1  0.99111220  0.93593720  0.82217124  1  0  -0.719838  0  2.0675  0  0  -0.648909  0  2.304633  0  0  -0.680322  0  2.295593  0  0  -0.350984  -0.629639  0  2.309262  0
O  O90  1  0.04476959  0.76983054  0.13491920  1  0  -0.753038  0  2.008016  0  0  -0.703537  0  2.262838  0  0  -0.734124  0  2.249686  0  0  -0.413327  -0.686938  0  2.270797  0
O  O91  1  0.95523316  0.23017418  0.86508338  1  0  -0.753119  0  2.007837  0  0  -0.703604  0  2.262678  0  0  -0.734185  0  2.249521  0  0  -0.41344  -0.687008  0  2.270648  0
O  O92  1  0.19500736  0.71058749  0.24839374  1  0  -0.744439  0  2.007463  0  0  -0.694533  0  2.258773  0  0  -0.724861  0  2.247146  0  0  -0.403353  -0.67763  0  2.265813  0
O  O93  1  0.80499322  0.28941294  0.75160856  1  0  -0.744478  0  2.007478  0  0  -0.694587  0  2.258819  0  0  -0.724913  0  2.247184  0  0  -0.403328  -0.677685  0  2.265866  0
O  O94  1  0.06527774  0.14278739  0.02910699  1  0  -0.825028  0  2.083888  0  0  -0.761638  0  2.343698  0  0  -0.797504  0  2.330957  0  0  -0.457422  -0.743546  0  2.351184  0
O  O95  1  0.93472500  0.85721733  0.97089682  1  0  -0.824916  0  2.083828  0  0  -0.761508  0  2.34359  0  0  -0.797377  0  2.330857  0  0  -0.457317  -0.743415  0  2.351072  0
O  O96  1  0.28729037  0.22410018  0.13973044  1  0  -0.684173  0  1.860208  0  0  -0.640743  0  2.075029  0  0  -0.667473  0  2.062985  0  0  -0.379183  -0.625518  0  2.082048  0
O  O97  1  0.71270416  0.77589917  0.86026967  1  0  -0.684198  0  1.860117  0  0  -0.640771  0  2.074916  0  0  -0.667498  0  2.062875  0  0  -0.379184  -0.625546  0  2.081934  0
O  O98  1  0.55349590  0.76480743  0.34727541  1  0  -0.660362  0  1.895326  0  0  -0.616273  0  2.117699  0  0  -0.642161  0  2.106612  0  0  -0.361229  -0.601244  0  2.124337  0
O  O99  1  0.44650318  0.23518654  0.65272268  1  0  -0.66042  0  1.895262  0  0  -0.616369  0  2.117602  0  0  -0.642257  0  2.106516  0  0  -0.361299  -0.601338  0  2.124241  0
O  O100  1  0.61211394  0.92851472  0.47765069  1  0  -0.846907  0  2.098564  0  0  -0.790423  0  2.363043  0  0  -0.825247  0  2.350828  0  0  -0.450974  -0.772719  0  2.370142  0
O  O101  1  0.38789004  0.07148032  0.52234758  1  0  -0.846904  0  2.09877  0  0  -0.790427  0  2.363171  0  0  -0.825255  0  2.350964  0  0  -0.450963  -0.772727  0  2.370281  0
O  O102  1  0.08623013  0.85176833  0.39309128  1  0  -0.681303  0  1.928432  0  0  -0.63227  0  2.160464  0  0  -0.661184  0  2.1529  0  0  -0.372739  -0.615139  0  2.164537  0
O  O103  1  0.91377137  0.14823101  0.60690851  1  0  -0.681361  0  1.928439  0  0  -0.632323  0  2.160477  0  0  -0.661234  0  2.152914  0  0  -0.372742  -0.615193  0  2.164551  0
O  O104  1  0.27176539  0.74072396  0.44761730  1  0  -0.739687  0  1.970703  0  0  -0.683894  0  2.198867  0  0  -0.711536  0  2.185589  0  0  -0.380474  -0.667285  0  2.207196  0
O  O105  1  0.72823896  0.25927751  0.55238070  1  0  -0.739643  0  1.97061  0  0  -0.683834  0  2.198769  0  0  -0.711475  0  2.185495  0  0  -0.380459  -0.667224  0  2.207096  0
O  O106  1  0.25087345  0.92787994  0.94531489  1  0  -0.945767  0  1.841455  0  0  -0.89455  0  2.042716  0  0  -0.919184  0  2.0044  0  0  -0.652418  -0.880578  0  2.066886  0
O  O107  1  0.74912548  0.07211834  0.05468503  1  0  -0.945794  0  1.841393  0  0  -0.894582  0  2.042684  0  0  -0.919215  0  2.00437  0  0  -0.65237  -0.880611  0  2.066855  0
O  O108  1  0.27961465  0.70933539  0.03640255  1  0  -0.83722  0  1.82751  0  0  -0.79452  0  2.010206  0  0  -0.816232  0  1.983311  0  0  -0.583321  -0.782632  0  2.025765  0
O  O109  1  0.72038579  0.29066933  0.96359911  1  0  -0.837203  0  1.827442  0  0  -0.794476  0  2.010157  0  0  -0.816184  0  1.98333  0  0  -0.583325  -0.782588  0  2.025717  0
O  O110  1  0.53070656  0.16843334  0.39132854  1  0  -0.884721  0  1.828998  0  0  -0.838289  0  2.008819  0  0  -0.861133  0  1.976917  0  0  -0.611286  -0.825363  0  2.02797  0
O  O111  1  0.46929635  0.83156707  0.60867221  1  0  -0.884762  0  1.828999  0  0  -0.838321  0  2.008795  0  0  -0.861157  0  1.976889  0  0  -0.611319  -0.825397  0  2.027929  0
