# generated using pymatgen
data_CoH25C33N5O4
_symmetry_space_group_name_H-M   'P 1'
_cell_length_a   13.31047408
_cell_length_b   13.69911655
_cell_length_c   16.28556441
_cell_angle_alpha   89.99967032
_cell_angle_beta   90.00008727
_cell_angle_gamma   95.66064924
_symmetry_Int_Tables_number   1
_chemical_formula_structural   CoH25C33N5O4
_chemical_formula_sum   'Co4 H100 C132 N20 O16'
_cell_volume   2955.05727382
_cell_formula_units_Z   4
loop_
 _symmetry_equiv_pos_site_id
 _symmetry_equiv_pos_as_xyz
  1  'x, y, z'
loop_
 _atom_site_type_symbol
 _atom_site_label
 _atom_site_symmetry_multiplicity
 _atom_site_fract_x
 _atom_site_fract_y
 _atom_site_fract_z
 _atom_site_occupancy
 _atom_site_pbe_bader_charge
 _atom_site_pbe_bader_spin_density
 _atom_site_pbe_cm5_charge
 _atom_site_pbe_ddec_charge
 _atom_site_pbe_ddec_spin_density
 _atom_site_pbe_ddec_sum_bond_order
 _atom_site_pbe_magmom
Co  Co0  1  0.12966973  0.21616424  0.23614120  1  1.253125  2.569704  0.659686  0.79071  2.812653  2.589413  2.548
Co  Co1  1  0.37033572  0.28383900  0.73613921  1  1.25315  2.569714  0.659654  0.790716  2.812649  2.58929  2.548
Co  Co2  1  0.87033373  0.78383658  0.76385856  1  1.253092  2.569704  0.659656  0.790712  2.812643  2.589399  2.548
Co  Co3  1  0.62966878  0.71616476  0.26385932  1  1.253177  2.569703  0.659678  0.79075  2.812652  2.589335  2.548
H  H4  1  0.22866033  0.06683819  0.13453631  1  0.103182  0.001603  0.116051  0.088994  0.000538  1.017652  0.001
H  H5  1  0.31038334  0.21918085  0.34616697  1  0.082278  0.00161  0.115255  0.082566  0.000326  1.025915  0.001
H  H6  1  0.45485514  0.95813473  0.29059764  1  0.108387  -7.7e-05  0.109868  0.118433  -0.000276  1.026187  0.0
H  H7  1  0.19632547  0.91870104  0.10425955  1  0.051157  -2.9e-05  0.092771  0.08294  -7.3e-05  1.054674  0.0
H  H8  1  0.50039116  0.88347631  0.18450881  1  0.109288  -0.000145  0.102242  0.103981  -0.000262  1.044113  0.0
H  H9  1  0.35518359  0.68430125  0.00891566  1  0.09038  0.000146  0.101945  0.102826  7.9e-05  1.017486  0.0
H  H10  1  0.20095871  0.77523380  0.01400021  1  0.087567  9e-05  0.093588  0.092502  9e-06  1.042471  0.0
H  H11  1  0.35954561  0.19310919  0.46796880  1  0.081747  0.000551  0.104185  0.111508  0.000308  1.018089  0.0
H  H12  1  0.63247879  0.14367185  0.59348024  1  0.101481  0.000319  0.101712  0.099189  0.000144  1.035402  0.0
H  H13  1  0.69087463  0.05492824  0.47090261  1  0.042019  9.8e-05  0.104419  0.101471  5.1e-05  0.993161  0.0
H  H14  1  0.58439422  0.03610501  0.34712549  1  0.093384  -0.000105  0.098388  0.094242  -0.000153  1.042422  0.0
H  H15  1  0.20771229  0.38488411  0.36716608  1  0.156201  0.000391  0.135716  0.110192  -9.6e-05  0.999858  0.0
H  H16  1  0.31145904  0.57608446  0.17409346  1  0.136336  0.000856  0.126709  0.131121  0.000351  0.996893  0.0
H  H17  1  0.23844820  0.39309904  0.11005985  1  0.151411  0.000602  0.12223  0.120674  7.2e-05  0.998456  0.0
H  H18  1  0.36343861  0.62197137  0.33263686  1  0.10919  8.4e-05  0.115458  0.111561  -7.1e-05  0.998708  0.0
H  H19  1  0.29381380  0.54902278  0.40766848  1  0.072709  3.9e-05  0.114075  0.097782  1.7e-05  0.969688  0.0
H  H20  1  0.09240706  0.54709376  0.39555579  1  0.07524  -7e-06  0.099854  0.099806  -1.5e-05  1.005778  0.0
H  H21  1  0.95856092  0.65983904  0.38606421  1  0.088296  -0.000102  0.101222  0.104275  -0.000145  1.001052  0.0
H  H22  1  0.17149256  0.88144768  0.27962352  1  0.095052  -7.5e-05  0.096708  0.094891  -0.000147  1.045189  0.0
H  H23  1  0.30577991  0.76843186  0.28904265  1  0.124598  0.000136  0.101069  0.110983  6.5e-05  1.025993  0.0
H  H24  1  0.90118684  0.80485580  0.31157577  1  0.118249  0.000102  0.114114  0.105081  -9.1e-05  0.998555  0.0
H  H25  1  0.96159482  0.87420747  0.39238033  1  0.1337  0.000163  0.124533  0.131609  9.8e-05  0.969398  0.0
H  H26  1  0.04077628  0.04284641  0.36215378  1  0.207324  0.000211  0.137322  0.118949  -0.000227  1.024947  0.0
H  H27  1  0.03572272  0.04808960  0.10307463  1  0.09446  0.000676  0.116712  0.112947  0.00012  1.001249  0.001
H  H28  1  0.96860228  0.85865297  0.15690496  1  0.113623  0.000821  0.12264  0.124281  0.000305  1.008242  0.0
H  H29  1  0.27133809  0.43316425  0.63453285  1  0.103134  0.001604  0.11605  0.089038  0.000539  1.017685  0.001
H  H30  1  0.18961908  0.28082018  0.84616477  1  0.082318  0.001611  0.115265  0.082614  0.000326  1.025867  0.001
H  H31  1  0.04514671  0.54186474  0.79059704  1  0.10827  -7.7e-05  0.109859  0.118414  -0.000276  1.026131  0.0
H  H32  1  0.30366826  0.58130332  0.60425846  1  0.050759  -2.9e-05  0.092848  0.083033  -7.3e-05  1.054709  0.0
H  H33  1  0.99960242  0.61651968  0.68450411  1  0.10913  -0.000145  0.102238  0.103919  -0.000262  1.044176  0.0
H  H34  1  0.14480995  0.81570302  0.50891445  1  0.090296  0.000146  0.101964  0.102859  7.9e-05  1.017524  0.0
H  H35  1  0.29903785  0.72477044  0.51399719  1  0.087602  9e-05  0.093603  0.092527  9e-06  1.042388  0.0
H  H36  1  0.14046275  0.30688884  0.96796456  1  0.082096  0.000551  0.104145  0.111476  0.000308  1.018094  0.0
H  H37  1  0.86752943  0.35631865  0.09347755  1  0.101378  0.000319  0.101742  0.099238  0.000144  1.035305  0.0
H  H38  1  0.80912928  0.44506485  0.97090467  1  0.042064  9.8e-05  0.104471  0.101571  5.1e-05  0.993192  0.0
H  H39  1  0.91560697  0.46389331  0.84712513  1  0.093827  -0.000105  0.098381  0.094207  -0.000153  1.042442  0.0
H  H40  1  0.29229113  0.11511899  0.86716788  1  0.156071  0.000391  0.135747  0.110253  -9.6e-05  0.999812  0.0
H  H41  1  0.18853692  0.92392604  0.67409547  1  0.136495  0.000856  0.126711  0.131116  0.000351  0.997021  0.0
H  H42  1  0.26155159  0.10691016  0.61006227  1  0.151594  0.000602  0.122218  0.120697  7.1e-05  0.998509  0.0
H  H43  1  0.13656086  0.87803368  0.83263719  1  0.109234  8.4e-05  0.115432  0.111492  -7.1e-05  0.998739  0.0
H  H44  1  0.20618425  0.95098177  0.90766853  1  0.072672  3.9e-05  0.114097  0.097803  1.7e-05  0.969761  0.0
H  H45  1  0.40759070  0.95290794  0.89556468  1  0.075271  -7e-06  0.099848  0.099804  -1.5e-05  1.005802  0.0
H  H46  1  0.54143662  0.84016294  0.88607320  1  0.088159  -0.000102  0.101211  0.104299  -0.000145  1.001057  0.0
H  H47  1  0.32850811  0.61856287  0.77961798  1  0.095242  -7.5e-05  0.096657  0.094861  -0.000147  1.045152  0.0
H  H48  1  0.19421980  0.73157642  0.78904007  1  0.124627  0.000136  0.101088  0.110961  6.5e-05  1.025981  0.0
H  H49  1  0.59881226  0.69514815  0.81157571  1  0.117977  0.000102  0.114112  0.105071  -9.1e-05  0.998531  0.0
H  H50  1  0.53840588  0.62579595  0.89238176  1  0.133632  0.000163  0.124576  0.131641  9.8e-05  0.969355  0.0
H  H51  1  0.45922248  0.45715524  0.86215413  1  0.207114  0.000211  0.137324  0.119007  -0.000227  1.024883  0.0
H  H52  1  0.46428340  0.45191527  0.60307439  1  0.094483  0.000676  0.116734  0.112909  0.00012  1.001166  0.001
H  H53  1  0.53139671  0.64135275  0.65690631  1  0.113663  0.000821  0.122631  0.124288  0.000305  1.008255  0.0
H  H54  1  0.77133952  0.93316409  0.86546530  1  0.103146  0.001603  0.116057  0.08906  0.000538  1.017673  0.001
H  H55  1  0.68961428  0.78081409  0.65384016  1  0.08188  0.001611  0.115286  0.082651  0.000326  1.025905  0.001
H  H56  1  0.54514009  0.04185874  0.70940580  1  0.108474  -7.6e-05  0.109849  0.11842  -0.000276  1.026129  0.0
H  H57  1  0.80367334  0.08129830  0.89573960  1  0.05117  -2.9e-05  0.092781  0.082979  -7.3e-05  1.054654  0.0
H  H58  1  0.49960504  0.11651937  0.81549525  1  0.109106  -0.000145  0.102234  0.103938  -0.000262  1.044166  0.0
H  H59  1  0.64481716  0.31570251  0.99108042  1  0.090403  0.000146  0.10194  0.102786  7.9e-05  1.017518  0.0
H  H60  1  0.79904279  0.22476995  0.98599525  1  0.087714  9e-05  0.093575  0.092499  9e-06  1.042438  0.0
H  H61  1  0.64045720  0.80688503  0.53203895  1  0.082468  0.000551  0.104114  0.111452  0.000308  1.018147  0.0
H  H62  1  0.36752989  0.85632093  0.40651952  1  0.101457  0.000319  0.101733  0.099198  0.000144  1.03529  0.0
H  H63  1  0.30912797  0.94506378  0.52909408  1  0.04205  9.8e-05  0.104483  0.101593  5.1e-05  0.993162  0.0
H  H64  1  0.41560175  0.96388846  0.65287550  1  0.093397  -0.000105  0.098365  0.09416  -0.000153  1.042499  0.0
H  H65  1  0.79229192  0.61511672  0.63283000  1  0.156146  0.000391  0.135734  0.110253  -9.6e-05  0.99982  0.0
H  H66  1  0.68853995  0.42392442  0.82590445  1  0.136512  0.000856  0.126697  0.131075  0.000351  0.996959  0.0
H  H67  1  0.76155380  0.60690985  0.88993377  1  0.151536  0.000602  0.122262  0.120772  7.2e-05  0.998438  0.0
H  H68  1  0.63656282  0.37803165  0.66736413  1  0.109276  8.3e-05  0.115449  0.111534  -7.1e-05  0.998714  0.0
H  H69  1  0.70618590  0.45097804  0.59233067  1  0.072703  3.9e-05  0.114085  0.097799  1.7e-05  0.969735  0.0
H  H70  1  0.90759483  0.45290633  0.60444213  1  0.075348  -7e-06  0.099857  0.099814  -1.5e-05  1.005813  0.0
H  H71  1  0.04144118  0.34016325  0.61393739  1  0.088273  -0.000102  0.101229  0.104294  -0.000145  1.001019  0.0
H  H72  1  0.82850901  0.11855681  0.72038054  1  0.095094  -7.5e-05  0.096688  0.094904  -0.000147  1.045175  0.0
H  H73  1  0.69422062  0.23156970  0.71095527  1  0.124639  0.000136  0.101068  0.110992  6.5e-05  1.025971  0.0
H  H74  1  0.09881558  0.19514209  0.68842768  1  0.117888  0.000102  0.114105  0.10506  -9.1e-05  0.998622  0.0
H  H75  1  0.03840549  0.12579188  0.60762373  1  0.133769  0.000163  0.12451  0.131561  9.8e-05  0.969367  0.0
H  H76  1  0.95922546  0.95715221  0.63785028  1  0.2072  0.000211  0.137366  0.118949  -0.000227  1.024968  0.0
H  H77  1  0.96427849  0.95191122  0.89692943  1  0.09437  0.000676  0.116697  0.112937  0.00012  1.001192  0.001
H  H78  1  0.03139524  0.14134858  0.84309910  1  0.113769  0.000821  0.122655  0.124378  0.000305  1.008204  0.0
H  H79  1  0.72865885  0.56683143  0.36546568  1  0.103159  0.001604  0.116068  0.089033  0.000538  1.017704  0.001
H  H80  1  0.81037868  0.71917623  0.15383377  1  0.08235  0.001611  0.115243  0.082569  0.000326  1.02592  0.001
H  H81  1  0.95485106  0.45813167  0.20940150  1  0.108211  -7.7e-05  0.109865  0.118443  -0.000276  1.026181  0.0
H  H82  1  0.69632840  0.41868942  0.39573762  1  0.050847  -2.9e-05  0.092829  0.083059  -7.3e-05  1.054673  0.0
H  H83  1  0.00039767  0.38347747  0.31549565  1  0.109176  -0.000145  0.102235  0.103969  -0.000262  1.044101  0.0
H  H84  1  0.85518842  0.18429193  0.49108408  1  0.090265  0.000146  0.101978  0.102904  7.9e-05  1.017444  0.0
H  H85  1  0.70095956  0.27522231  0.48599705  1  0.087648  9e-05  0.0936  0.092553  9e-06  1.042384  0.0
H  H86  1  0.85953719  0.69310684  0.03203090  1  0.082107  0.000551  0.104155  0.111474  0.000308  1.018169  0.0
H  H87  1  0.13247478  0.64368218  0.90652344  1  0.101528  0.000319  0.101715  0.099211  0.000144  1.035274  0.0
H  H88  1  0.19087207  0.55493743  0.02909877  1  0.042177  9.8e-05  0.104458  0.10156  5.1e-05  0.99322  0.0
H  H89  1  0.08439191  0.53610678  0.15287647  1  0.09379  -0.000105  0.098387  0.09424  -0.000153  1.042404  0.0
H  H90  1  0.70771781  0.88488406  0.13283004  1  0.156146  0.000391  0.135695  0.11021  -9.6e-05  0.999855  0.0
H  H91  1  0.81145481  0.07607769  0.32590736  1  0.136446  0.000856  0.126703  0.131132  0.000351  0.996994  0.0
H  H92  1  0.73844940  0.89308846  0.38993688  1  0.151622  0.000602  0.122235  0.120708  7.1e-05  0.998509  0.0
H  H93  1  0.86343559  0.12197226  0.16736380  1  0.109256  8.4e-05  0.115454  0.111542  -7.1e-05  0.998796  0.0
H  H94  1  0.79381499  0.04902198  0.09233184  1  0.072658  3.9e-05  0.114077  0.097789  1.7e-05  0.969673  0.0
H  H95  1  0.59240704  0.04709581  0.10443262  1  0.075487  -7e-06  0.099873  0.099872  -1.5e-05  1.005778  0.0
H  H96  1  0.45856262  0.15984081  0.11392349  1  0.088177  -0.000102  0.101217  0.104296  -0.000145  1.001122  0.0
H  H97  1  0.67148781  0.38144527  0.22037196  1  0.095211  -7.5e-05  0.096648  0.09473  -0.000147  1.045268  0.0
H  H98  1  0.80577611  0.26843172  0.21095109  1  0.124651  0.000136  0.10107  0.11101  6.5e-05  1.025977  0.0
H  H99  1  0.40118226  0.30485338  0.18842651  1  0.118161  0.000102  0.114089  0.105055  -9.1e-05  0.998565  0.0
H  H100  1  0.46158599  0.37420925  0.10762107  1  0.133734  0.000164  0.124536  0.131579  9.8e-05  0.969401  0.0
H  H101  1  0.54077265  0.54284483  0.13784625  1  0.207725  0.000211  0.137346  0.118967  -0.000227  1.024931  0.0
H  H102  1  0.53571667  0.54808922  0.39692721  1  0.094441  0.000676  0.116725  0.112941  0.00012  1.001182  0.001
H  H103  1  0.46860117  0.35865246  0.34309775  1  0.113558  0.000821  0.122654  0.124332  0.000305  1.008191  0.0
C  C104  1  0.27608263  0.07021231  0.18913929  1  0.458196  -0.008191  0.041286  0.025297  -0.009066  3.91024  -0.005
C  C105  1  0.32330112  0.15710872  0.30701036  1  0.45093  -0.00909  0.043961  0.027973  -0.010165  3.925629  -0.005
C  C106  1  0.39727803  0.09450351  0.32572898  1  0.016531  0.004895  -0.001448  0.039875  0.002274  4.008515  0.004
C  C107  1  0.40439134  0.01324709  0.27452126  1  0.011022  -0.014813  -0.068655  -0.137766  -0.016002  3.88345  -0.009
C  C108  1  0.34419710  0.00017796  0.20404841  1  -0.072372  0.005829  -0.001649  0.036226  0.00265  4.004958  0.005
C  C109  1  0.34914147  0.91461953  0.14928603  1  -0.027435  0.000292  -0.013882  0.055855  7.5e-05  4.002781  0.0
C  C110  1  0.26514155  0.88185147  0.10067123  1  -0.122857  0.001131  -0.093847  -0.131042  0.000552  3.986415  0.001
C  C111  1  0.43444166  0.86160103  0.14676435  1  -0.065707  0.000824  -0.082406  -0.132784  0.000336  3.911313  0.001
C  C112  1  0.43638998  0.77845272  0.09685409  1  -0.066413  0.002924  -0.020611  -0.035787  0.001327  3.961477  0.002
C  C113  1  0.35204751  0.74823492  0.04831174  1  -0.010893  0.002054  -0.084031  -0.095234  0.001092  3.980941  0.001
C  C114  1  0.26700754  0.79986672  0.05058289  1  0.023617  9.4e-05  -0.097449  -0.079182  -1.6e-05  4.036382  0.0
C  C115  1  0.52658753  0.71910244  0.09386944  1  1.551996  0.005338  0.199207  0.567602  0.003286  4.216427  0.004
C  C116  1  0.46340176  0.11222485  0.39783885  1  0.007868  0.001018  -0.01056  0.062155  0.00049  4.02477  0.001
C  C117  1  0.43301166  0.16431585  0.46602240  1  -0.001386  -0.000117  -0.086182  -0.154234  -0.000445  3.946526  0.0
C  C118  1  0.49400234  0.17604973  0.53592911  1  -0.071988  0.002553  -0.023615  -0.033881  0.001292  4.013337  0.002
C  C119  1  0.58637782  0.13524970  0.53822578  1  -0.084084  -0.000349  -0.081618  -0.090182  -0.000683  3.964565  0.0
C  C120  1  0.61823438  0.08529558  0.46995749  1  0.028214  0.000648  -0.085555  -0.072833  0.000242  4.015276  0.001
C  C121  1  0.55778103  0.07436481  0.40025034  1  -0.101128  -0.001745  -0.081275  -0.110711  -0.00192  3.950483  -0.001
C  C122  1  0.45646444  0.22561376  0.60962736  1  1.526404  -0.005553  0.187974  0.535838  -0.007197  4.221391  -0.006
C  C123  1  0.22695812  0.41057349  0.30564099  1  0.936899  -0.005109  0.13209  0.072578  -0.005957  3.947212  -0.003
C  C124  1  0.27965156  0.50905591  0.20354791  1  0.366749  0.00283  0.003055  -0.101749  0.001404  3.909758  0.002
C  C125  1  0.24271470  0.41885516  0.17301616  1  0.314054  -0.001387  -0.000617  -0.0305  -0.001935  3.994417  -0.001
C  C126  1  0.28967566  0.58252925  0.34656029  1  0.27601  0.000999  -0.047008  -0.120199  0.000526  3.917984  0.001
C  C127  1  0.20807820  0.65099541  0.34304960  1  0.045816  -0.00021  -0.019455  0.078916  -0.000243  4.002766  0.0
C  C128  1  0.11001498  0.62042656  0.36990284  1  -0.111446  8.3e-05  -0.092013  -0.127657  -2.4e-05  3.99595  0.0
C  C129  1  0.03469309  0.68345749  0.36450399  1  -0.103501  -0.000138  -0.08895  -0.121999  -0.000186  3.98504  0.0
C  C130  1  0.05601131  0.77799465  0.33225988  1  -0.011408  0.000246  -0.009606  0.09629  0.000125  3.971585  0.0
C  C131  1  0.15373281  0.80830509  0.30528322  1  -0.05792  -3.1e-05  -0.097824  -0.138379  -6.3e-05  3.992944  0.0
C  C132  1  0.22938946  0.74498842  0.31041496  1  -0.111681  0.000247  -0.091697  -0.128612  0.000142  3.978416  0.0
C  C133  1  0.97287436  0.84518708  0.33034571  1  0.268306  0.000925  -0.044306  -0.126302  0.000526  3.900117  0.001
C  C134  1  0.03077334  0.01998027  0.29835807  1  0.934427  -0.004229  0.14253  0.089294  -0.005188  3.887429  -0.003
C  C135  1  0.02677457  0.01854989  0.16474894  1  0.395087  0.000168  -0.008781  -0.050962  -0.000385  4.04694  0.0
C  C136  1  0.99299894  0.92526778  0.19028652  1  0.3153  0.00183  -0.001502  -0.111196  0.000628  3.938892  0.001
C  C137  1  0.22391796  0.42978830  0.68913517  1  0.458112  -0.008187  0.041283  0.0252  -0.009062  3.910311  -0.005
C  C138  1  0.17670269  0.34289184  0.80700661  1  0.450601  -0.009088  0.043977  0.027934  -0.010163  3.925589  -0.005
C  C139  1  0.10272519  0.40549840  0.82572606  1  0.016408  0.004894  -0.00146  0.039836  0.002274  4.008581  0.004
C  C140  1  0.09561003  0.48675222  0.77451916  1  0.011201  -0.014806  -0.068644  -0.137673  -0.015995  3.883483  -0.009
C  C141  1  0.15580186  0.49982109  0.70404632  1  -0.072373  0.005829  -0.001636  0.036247  0.00265  4.004928  0.005
C  C142  1  0.15085577  0.58538161  0.64928043  1  -0.027178  0.000292  -0.014025  0.055653  7.5e-05  4.002757  0.0
C  C143  1  0.23485782  0.61814927  0.60066926  1  -0.122672  0.00113  -0.09392  -0.131096  0.000551  3.986446  0.001
C  C144  1  0.06555333  0.63840012  0.64676023  1  -0.065459  0.000824  -0.082308  -0.132568  0.000336  3.911318  0.001
C  C145  1  0.06360352  0.72154949  0.59685263  1  -0.066085  0.002923  -0.020644  -0.035862  0.001327  3.961553  0.002
C  C146  1  0.14794954  0.75176616  0.54831085  1  -0.011237  0.002053  -0.084049  -0.095279  0.001091  3.981113  0.001
C  C147  1  0.23298644  0.70013360  0.55058114  1  0.023571  9.4e-05  -0.097417  -0.079172  -1.5e-05  4.036424  0.0
C  C148  1  0.97341274  0.78090224  0.59386575  1  1.551941  0.005337  0.199293  0.567794  0.003284  4.216505  0.004
C  C149  1  0.03660276  0.38777365  0.89783655  1  0.008031  0.001019  -0.010588  0.061998  0.00049  4.024638  0.001
C  C150  1  0.06699363  0.33568146  0.96602039  1  -0.002003  -0.000117  -0.086125  -0.154119  -0.000445  3.946238  0.0
C  C151  1  0.00600344  0.32394532  0.03592797  1  -0.0719  0.002553  -0.02351  -0.033754  0.001292  4.013231  0.002
C  C152  1  0.91362830  0.36474336  0.03822433  1  -0.083614  -0.00035  -0.081759  -0.090377  -0.000684  3.964753  0.0
C  C153  1  0.88176899  0.41469972  0.96995671  1  0.028631  0.000648  -0.08562  -0.073008  0.000242  4.015572  0.001
C  C154  1  0.94222098  0.42563315  0.90024959  1  -0.102151  -0.001745  -0.081262  -0.110547  -0.001921  3.950318  -0.001
C  C155  1  0.04354457  0.27438227  0.10962344  1  1.525875  -0.005552  0.187973  0.535815  -0.007197  4.221385  -0.006
C  C156  1  0.27304455  0.08943075  0.80564289  1  0.936837  -0.005109  0.132008  0.072447  -0.005957  3.9472  -0.003
C  C157  1  0.22034572  0.99095220  0.70354780  1  0.366396  0.00283  0.003042  -0.101658  0.001404  3.909581  0.002
C  C158  1  0.25728427  0.08115216  0.67301502  1  0.314004  -0.001387  -0.000591  -0.030588  -0.001935  3.994183  -0.001
C  C159  1  0.21032254  0.91747790  0.84656174  1  0.275748  0.001  -0.047013  -0.120105  0.000526  3.918112  0.001
C  C160  1  0.29192046  0.84900884  0.84305149  1  0.046473  -0.00021  -0.019458  0.078765  -0.000243  4.002753  0.0
C  C161  1  0.38998453  0.87957824  0.86990900  1  -0.111462  8.3e-05  -0.09202  -0.127596  -2.4e-05  3.995996  0.0
C  C162  1  0.46530477  0.81654588  0.86450994  1  -0.103823  -0.000138  -0.088853  -0.122036  -0.000186  3.984935  0.0
C  C163  1  0.44398733  0.72200967  0.83226074  1  -0.01151  0.000246  -0.009578  0.096464  0.000125  3.971445  0.0
C  C164  1  0.34626917  0.69170309  0.80528103  1  -0.0573  -3.1e-05  -0.097837  -0.138387  -6.3e-05  3.992813  0.0
C  C165  1  0.27061110  0.75502045  0.81041421  1  -0.112628  0.000247  -0.091638  -0.128512  0.000142  3.978351  0.0
C  C166  1  0.52712244  0.65481601  0.83034576  1  0.269138  0.000925  -0.04447  -0.126543  0.000526  3.900309  0.001
C  C167  1  0.46922706  0.48002401  0.79835893  1  0.934421  -0.004229  0.142438  0.089104  -0.005187  3.887453  -0.003
C  C168  1  0.47322711  0.48145456  0.66474980  1  0.395173  0.000168  -0.008698  -0.050644  -0.000386  4.046784  0.0
C  C169  1  0.50700002  0.57473698  0.69028816  1  0.315161  0.001831  -0.00155  -0.111359  0.000629  3.938944  0.001
C  C170  1  0.72391625  0.92978777  0.81086600  1  0.458042  -0.008186  0.041272  0.025217  -0.009061  3.910359  -0.005
C  C171  1  0.67669876  0.84288623  0.69299677  1  0.45153  -0.009092  0.043921  0.027787  -0.010166  3.925774  -0.005
C  C172  1  0.60271988  0.90549437  0.67427692  1  0.016611  0.004895  -0.001436  0.039861  0.002274  4.008581  0.004
C  C173  1  0.59560477  0.98674785  0.72548280  1  0.011394  -0.014809  -0.06862  -0.137585  -0.015998  3.883436  -0.009
C  C174  1  0.65580134  0.99981772  0.79595565  1  -0.072738  0.005828  -0.001673  0.036077  0.002649  4.005094  0.005
C  C175  1  0.65085351  0.08537908  0.85071619  1  -0.027088  0.000292  -0.013914  0.055853  7.5e-05  4.002979  0.0
C  C176  1  0.73485726  0.11814788  0.89932792  1  -0.123003  0.00113  -0.093887  -0.131209  0.000551  3.986402  0.001
C  C177  1  0.56555468  0.13839611  0.85323787  1  -0.065748  0.000824  -0.082292  -0.132571  0.000336  3.911495  0.001
C  C178  1  0.56361040  0.22154737  0.90314628  1  -0.066503  0.002924  -0.020636  -0.03586  0.001327  3.961543  0.002
C  C179  1  0.64795294  0.25176590  0.95168495  1  -0.010863  0.002052  -0.084054  -0.095265  0.001091  3.98111  0.001
C  C180  1  0.73299156  0.20013556  0.94941441  1  0.023449  9.4e-05  -0.09741  -0.079046  -1.5e-05  4.036325  0.0
C  C181  1  0.47341217  0.28089838  0.90613278  1  1.552156  0.005336  0.199234  0.567712  0.003284  4.216498  0.004
C  C182  1  0.53659647  0.88776863  0.60216521  1  0.007993  0.001018  -0.010591  0.061959  0.00049  4.024747  0.001
C  C183  1  0.56699259  0.83567765  0.53398165  1  -0.002247  -0.000118  -0.086128  -0.154119  -0.000446  3.94625  0.0
C  C184  1  0.50600566  0.82394377  0.46407372  1  -0.072062  0.002553  -0.023508  -0.033713  0.001292  4.013055  0.002
C  C185  1  0.41362882  0.86474527  0.46177644  1  -0.083678  -0.000349  -0.081757  -0.090332  -0.000683  3.964661  0.0
C  C186  1  0.38176685  0.91469791  0.53004105  1  0.028618  0.000649  -0.085683  -0.07314  0.000242  4.015429  0.001
C  C187  1  0.44221885  0.92563014  0.59975187  1  -0.101708  -0.001746  -0.081154  -0.110355  -0.001921  3.950289  -0.001
C  C188  1  0.54354617  0.77438342  0.39037731  1  1.526053  -0.005554  0.187924  0.535752  -0.007198  4.221461  -0.006
C  C189  1  0.77304631  0.58942954  0.69435447  1  0.937022  -0.005107  0.13201  0.07241  -0.005956  3.947338  -0.003
C  C190  1  0.72034894  0.49095297  0.79645123  1  0.364392  0.002831  0.003083  -0.101581  0.001404  3.909454  0.002
C  C191  1  0.75728641  0.58115226  0.82698176  1  0.316212  -0.001388  -0.000651  -0.03067  -0.001935  3.994241  -0.001
C  C192  1  0.71032591  0.41747524  0.65343886  1  0.275649  0.001  -0.047008  -0.120147  0.000526  3.918065  0.001
C  C193  1  0.79192218  0.34900468  0.65694832  1  0.046261  -0.00021  -0.019456  0.078851  -0.000243  4.002782  0.0
C  C194  1  0.88998795  0.37957646  0.63009815  1  -0.111614  8.3e-05  -0.092025  -0.127667  -2.4e-05  3.996002  0.0
C  C195  1  0.96530894  0.31654407  0.63549822  1  -0.103825  -0.000138  -0.088941  -0.12201  -0.000186  3.98502  0.0
C  C196  1  0.94398936  0.22200837  0.66774418  1  -0.011449  0.000246  -0.009575  0.096306  0.000125  3.971535  0.0
C  C197  1  0.84626997  0.19169647  0.69471961  1  -0.057561  -3.1e-05  -0.097797  -0.138335  -6.3e-05  3.99279  0.0
C  C198  1  0.77061204  0.25501533  0.68958542  1  -0.112078  0.000247  -0.091705  -0.128649  0.000142  3.978397  0.0
C  C199  1  0.02712671  0.15481228  0.66965773  1  0.268912  0.000925  -0.04433  -0.126271  0.000526  3.900089  0.001
C  C200  1  0.96922689  0.98001835  0.70164476  1  0.934483  -0.00423  0.142526  0.089338  -0.005188  3.887378  -0.003
C  C201  1  0.97322506  0.98145020  0.83525512  1  0.394808  0.000168  -0.008687  -0.050716  -0.000386  4.046976  0.0
C  C202  1  0.00699912  0.07473156  0.80971815  1  0.315057  0.001831  -0.001531  -0.111457  0.000629  3.938988  0.001
C  C203  1  0.77608048  0.57020738  0.31086213  1  0.45958  -0.008202  0.041244  0.025131  -0.009066  3.91043  -0.005
C  C204  1  0.82329582  0.65710457  0.19299192  1  0.450308  -0.009088  0.043984  0.027934  -0.010163  3.925606  -0.005
C  C205  1  0.89727061  0.59450094  0.17427186  1  0.016729  0.004895  -0.001399  0.039936  0.002274  4.008453  0.004
C  C206  1  0.90438842  0.51324346  0.22547815  1  0.011194  -0.014811  -0.068677  -0.137786  -0.016001  3.883461  -0.009
C  C207  1  0.84419584  0.50017459  0.29595282  1  -0.07243  0.005829  -0.001554  0.036386  0.00265  4.004948  0.005
C  C208  1  0.84914350  0.41461480  0.35071749  1  -0.027078  0.000292  -0.014031  0.05564  7.5e-05  4.002892  0.0
C  C209  1  0.76514206  0.38184568  0.39932805  1  -0.122606  0.00113  -0.093894  -0.131106  0.000552  3.98643  0.001
C  C210  1  0.93444609  0.36159776  0.35323953  1  -0.065543  0.000824  -0.082345  -0.132672  0.000336  3.911354  0.001
C  C211  1  0.93639590  0.27844839  0.40314651  1  -0.068986  0.002925  -0.020632  -0.035794  0.001327  3.961635  0.002
C  C212  1  0.85205094  0.24822732  0.45168707  1  -0.008313  0.002052  -0.084053  -0.095321  0.001092  3.981084  0.001
C  C213  1  0.76701240  0.29985841  0.44941555  1  0.023425  9.4e-05  -0.097447  -0.079252  -1.5e-05  4.036429  0.0
C  C214  1  0.02658997  0.21909859  0.40613155  1  1.551916  0.005337  0.199285  0.567714  0.003285  4.216555  0.004
C  C215  1  0.96339733  0.61222351  0.10216260  1  0.007807  0.001019  -0.010646  0.061984  0.00049  4.024654  0.001
C  C216  1  0.93300579  0.66431642  0.03397630  1  -0.001711  -0.000118  -0.086147  -0.15421  -0.000446  3.946503  0.0
C  C217  1  0.99399673  0.67605257  0.96407179  1  -0.071941  0.002553  -0.02348  -0.033617  0.001292  4.013214  0.002
C  C218  1  0.08637420  0.63525526  0.96177604  1  -0.084048  -0.000349  -0.081741  -0.090351  -0.000683  3.964563  0.0
C  C219  1  0.11823139  0.58530036  0.03004366  1  0.02881  0.000648  -0.085689  -0.073131  0.000242  4.015571  0.001
C  C220  1  0.05777640  0.57436693  0.09975078  1  -0.102163  -0.001745  -0.081154  -0.110451  -0.00192  3.950312  -0.001
C  C221  1  0.95645778  0.72561488  0.89037448  1  1.526212  -0.005554  0.187941  0.535731  -0.007197  4.221586  -0.006
C  C222  1  0.72696124  0.91057081  0.19435687  1  0.936887  -0.005109  0.13208  0.072533  -0.005957  3.947182  -0.003
C  C223  1  0.77964833  0.00905227  0.29645258  1  0.366413  0.00283  0.003086  -0.101678  0.001404  3.909643  0.002
C  C224  1  0.74271618  0.91884866  0.32698352  1  0.313998  -0.001388  -0.000576  -0.030521  -0.001935  3.994024  -0.001
C  C225  1  0.78967609  0.08252731  0.15343986  1  0.276042  0.000999  -0.047026  -0.120187  0.000526  3.918038  0.001
C  C226  1  0.70807592  0.15099637  0.15694582  1  0.046064  -0.00021  -0.019465  0.078821  -0.000243  4.002706  0.0
C  C227  1  0.61001034  0.12042696  0.13008830  1  -0.111815  8.3e-05  -0.092071  -0.127693  -2.4e-05  3.996043  0.0
C  C228  1  0.53469146  0.18345786  0.13548675  1  -0.103751  -0.000138  -0.088896  -0.122049  -0.000186  3.985285  0.0
C  C229  1  0.55600861  0.27799114  0.16773472  1  -0.011192  0.000246  -0.009631  0.096204  0.000125  3.971494  0.0
C  C230  1  0.65372968  0.30830433  0.19471136  1  -0.057982  -3.1e-05  -0.097737  -0.138028  -6.3e-05  3.992632  0.0
C  C231  1  0.72938625  0.24498696  0.18957880  1  -0.111813  0.000247  -0.091649  -0.128676  0.000142  3.978333  0.0
C  C232  1  0.47287147  0.34518699  0.16965645  1  0.268872  0.000925  -0.044306  -0.126255  0.000526  3.90006  0.001
C  C233  1  0.53077039  0.51997680  0.20164329  1  0.933686  -0.004227  0.14247  0.089273  -0.005188  3.887422  -0.003
C  C234  1  0.52677138  0.51854919  0.33525180  1  0.395385  0.000168  -0.008744  -0.050754  -0.000386  4.046766  0.0
C  C235  1  0.49299675  0.42526456  0.30971467  1  0.314981  0.001831  -0.001532  -0.111324  0.000629  3.938889  0.001
N  N236  1  0.26307031  0.14451540  0.24095984  1  -1.228775  0.061363  -0.328753  -0.235597  0.03335  3.634837  0.049
N  N237  1  0.20967423  0.35803931  0.23736530  1  -1.189298  0.047093  -0.352831  -0.307278  0.025098  3.60559  0.043
N  N238  1  0.26982723  0.50214936  0.28773905  1  -1.262974  0.000396  -0.245306  0.038951  -0.000289  3.805536  0.0
N  N239  1  0.99521564  0.92784366  0.27501616  1  -1.270901  0.001843  -0.245112  0.043675  0.000768  3.817142  0.002
N  N240  1  0.04998652  0.07701960  0.23275813  1  -1.203334  0.0492  -0.357216  -0.309496  0.026946  3.625855  0.042
N  N241  1  0.23692974  0.35548633  0.74095794  1  -1.228353  0.061362  -0.328714  -0.235519  0.03335  3.634841  0.049
N  N242  1  0.29032835  0.14196538  0.73736759  1  -1.189372  0.047098  -0.352871  -0.30731  0.025099  3.605256  0.043
N  N243  1  0.23017241  0.99785820  0.78774321  1  -1.26243  0.000395  -0.245229  0.03903  -0.000289  3.805603  0.0
N  N244  1  0.50478199  0.57216126  0.77501658  1  -1.271291  0.001843  -0.244941  0.043883  0.000767  3.817137  0.002
N  N245  1  0.45001681  0.42298512  0.73275740  1  -1.20322  0.049199  -0.357288  -0.309636  0.026945  3.626074  0.042
N  N246  1  0.73692760  0.85548248  0.75904361  1  -1.228942  0.061363  -0.32873  -0.235484  0.03335  3.634815  0.049
N  N247  1  0.79032847  0.64196151  0.76262770  1  -1.189285  0.047097  -0.352876  -0.307285  0.0251  3.605433  0.043
N  N248  1  0.73017620  0.49785880  0.71225457  1  -1.262863  0.000395  -0.245237  0.038985  -0.000289  3.805524  0.0
N  N249  1  0.00478242  0.07215568  0.72498729  1  -1.271015  0.001843  -0.245083  0.043759  0.000767  3.817084  0.002
N  N250  1  0.95001483  0.92298268  0.76724716  1  -1.203025  0.049199  -0.357301  -0.309671  0.026945  3.626188  0.042
N  N251  1  0.76306735  0.64451081  0.25904059  1  -1.229781  0.061374  -0.328738  -0.235484  0.03335  3.634746  0.049
N  N252  1  0.70967647  0.85803398  0.26263095  1  -1.189398  0.047098  -0.352865  -0.307349  0.0251  3.605286  0.043
N  N253  1  0.76982630  0.00214775  0.21225901  1  -1.262769  0.000396  -0.245314  0.038952  -0.000289  3.805562  0.0
N  N254  1  0.49521320  0.42783954  0.22498686  1  -1.271407  0.001843  -0.245036  0.043731  0.000767  3.817175  0.002
N  N255  1  0.54998325  0.57701936  0.26724298  1  -1.202875  0.049194  -0.357267  -0.3097  0.026944  3.62599  0.042
O  O256  1  0.37517301  0.26839360  0.60442321  1  -1.156311  0.077451  -0.327846  -0.549142  0.040174  2.19822  0.066
O  O257  1  0.50281607  0.22129932  0.67794680  1  -1.154954  0.068429  -0.312124  -0.545062  0.035262  2.219667  0.06
O  O258  1  0.52896785  0.65314624  0.04096017  1  -1.157657  0.023469  -0.336304  -0.552392  0.01149  2.085076  0.02
O  O259  1  0.59771771  0.74075392  0.14747212  1  -1.16346  0.109112  -0.338517  -0.583857  0.056128  2.421205  0.09
O  O260  1  0.12483510  0.23160100  0.10442205  1  -1.155845  0.077453  -0.327796  -0.549105  0.040173  2.1985  0.066
O  O261  1  0.99719590  0.27869722  0.17794404  1  -1.154982  0.068438  -0.312196  -0.545069  0.035269  2.2193  0.06
O  O262  1  0.97103276  0.84685513  0.54095431  1  -1.157788  0.023465  -0.33644  -0.552573  0.011488  2.085067  0.02
O  O263  1  0.90228335  0.75925773  0.64747029  1  -1.163311  0.109113  -0.338488  -0.583876  0.05613  2.42133  0.09
O  O264  1  0.62483521  0.73160211  0.39558023  1  -1.156066  0.077452  -0.327823  -0.549129  0.040172  2.19856  0.066
O  O265  1  0.49719866  0.77870154  0.32205603  1  -1.154943  0.068442  -0.312119  -0.545011  0.03527  2.219323  0.06
O  O266  1  0.47103135  0.34684944  0.95904573  1  -1.157871  0.023466  -0.336342  -0.552461  0.011489  2.08503  0.02
O  O267  1  0.40228421  0.25925423  0.85252764  1  -1.163355  0.109107  -0.338525  -0.583911  0.056128  2.421366  0.09
O  O268  1  0.87516642  0.76839542  0.89557648  1  -1.156053  0.077456  -0.32777  -0.549072  0.040175  2.198533  0.066
O  O269  1  0.00280644  0.72129994  0.82205449  1  -1.155111  0.068435  -0.312177  -0.545079  0.035267  2.219547  0.06
O  O270  1  0.02897192  0.15314277  0.45904115  1  -1.157811  0.023468  -0.336361  -0.552463  0.01149  2.08507  0.02
O  O271  1  0.09771994  0.24074896  0.35252763  1  -1.163356  0.109117  -0.338538  -0.583918  0.056131  2.421345  0.09
