# generated using pymatgen
data_FeH14C20(N2O)2
_symmetry_space_group_name_H-M   'P 1'
_cell_length_a   7.73643547
_cell_length_b   8.10247690
_cell_length_c   13.05657166
_cell_angle_alpha   89.99924883
_cell_angle_beta   90.00126246
_cell_angle_gamma   96.23442800
_symmetry_Int_Tables_number   1
_chemical_formula_structural   FeH14C20(N2O)2
_chemical_formula_sum   'Fe2 H28 C40 N8 O4'
_cell_volume   813.60156326
_cell_formula_units_Z   2
loop_
 _symmetry_equiv_pos_site_id
 _symmetry_equiv_pos_as_xyz
  1  'x, y, z'
loop_
 _atom_site_type_symbol
 _atom_site_label
 _atom_site_symmetry_multiplicity
 _atom_site_fract_x
 _atom_site_fract_y
 _atom_site_fract_z
 _atom_site_occupancy
 _atom_site_hle17_bader_spin_density
 _atom_site_hle17_ddec_charge
 _atom_site_hle17_ddec_spin_density
 _atom_site_hle17_ddec_sum_bond_order
 _atom_site_hle17_magmom
 _atom_site_hse06_10hf_bader_spin_density
 _atom_site_hse06_10hf_ddec_charge
 _atom_site_hse06_10hf_ddec_spin_density
 _atom_site_hse06_10hf_ddec_sum_bond_order
 _atom_site_hse06_10hf_magmom
 _atom_site_hse06_bader_spin_density
 _atom_site_hse06_ddec_charge
 _atom_site_hse06_ddec_spin_density
 _atom_site_hse06_ddec_sum_bond_order
 _atom_site_hse06_magmom
 _atom_site_pbe_bader_spin_density
 _atom_site_pbe_cm5_charge
 _atom_site_pbe_ddec_charge
 _atom_site_pbe_ddec_spin_density
 _atom_site_pbe_ddec_sum_bond_order
 _atom_site_pbe_magmom
Fe  Fe0  1  0.99999870  0.99999860  0.50000077  1  0  0.506387  0  3.180851  0  0  0.494062  0  3.638111  0  0  0.522651  0  3.601294  0  0  0.778606  0.482215  0  3.654183  0
Fe  Fe1  1  0.49999885  0.50000309  0.99999971  1  0  0.506201  0  3.181009  0  0  0.493825  0  3.638273  0  0  0.522462  0  3.601464  0  0  0.778544  0.481853  0  3.65436  0
H  H2  1  0.34949145  0.27183374  0.42171831  1  0  0.072054  0  0.968578  0  0  0.081093  0  1.037376  0  0  0.083079  0  1.034613  0  0  0.105285  0.079668  0  1.039131  0
H  H3  1  0.15048106  0.22814850  0.92172761  1  0  0.072084  0  0.968425  0  0  0.081146  0  1.03722  0  0  0.083133  0  1.034464  0  0  0.105254  0.079721  0  1.038967  0
H  H4  1  0.65050400  0.72815542  0.57828201  1  0  0.072034  0  0.968575  0  0  0.081079  0  1.037356  0  0  0.083066  0  1.034596  0  0  0.105288  0.079656  0  1.039103  0
H  H5  1  0.84952191  0.77185792  0.07827194  1  0  0.072064  0  0.968382  0  0  0.081135  0  1.037163  0  0  0.083124  0  1.034411  0  0  0.105256  0.079711  0  1.038911  0
H  H6  1  0.38304097  0.57354165  0.51801018  1  0  0.095689  0  0.998766  0  0  0.104767  0  1.064718  0  0  0.106455  0  1.065835  0  0  0.092334  0.1036  0  1.064239  0
H  H7  1  0.11697358  0.92644906  0.01804957  1  0  0.095652  0  0.998582  0  0  0.104758  0  1.064525  0  0  0.106444  0  1.065643  0  0  0.092294  0.103593  0  1.064041  0
H  H8  1  0.61696530  0.42645102  0.48199014  1  0  0.095786  0  0.998826  0  0  0.104842  0  1.064794  0  0  0.106532  0  1.065911  0  0  0.092359  0.103675  0  1.064316  0
H  H9  1  0.88302793  0.07355614  0.98195075  1  0  0.09559  0  0.998626  0  0  0.104701  0  1.064573  0  0  0.106388  0  1.065691  0  0  0.09229  0.103537  0  1.064089  0
H  H10  1  0.11921558  0.56537141  0.65401613  1  0  0.09821  0  1.008844  0  0  0.105486  0  1.077163  0  0  0.106401  0  1.078656  0  0  0.092969  0.10483  0  1.075941  0
H  H11  1  0.38080517  0.93464963  0.15405989  1  0  0.098233  0  1.008437  0  0  0.105397  0  1.076947  0  0  0.106328  0  1.078391  0  0  0.092931  0.104739  0  1.075726  0
H  H12  1  0.88079248  0.43462495  0.34598725  1  0  0.098217  0  1.008798  0  0  0.105485  0  1.077154  0  0  0.106408  0  1.078617  0  0  0.092946  0.104828  0  1.075932  0
H  H13  1  0.61919745  0.06535431  0.84593890  1  0  0.098178  0  1.00853  0  0  0.10537  0  1.076992  0  0  0.106299  0  1.078441  0  0  0.092909  0.104712  0  1.075772  0
H  H14  1  0.53941690  0.25072678  0.64727095  1  0  0.109807  0  0.951898  0  0  0.118036  0  1.015614  0  0  0.121009  0  1.01474  0  0  0.108299  0.115924  0  1.016449  0
H  H15  1  0.96061392  0.24935082  0.14723923  1  0  0.109926  0  0.952218  0  0  0.118168  0  1.015935  0  0  0.121145  0  1.015051  0  0  0.108317  0.116061  0  1.016759  0
H  H16  1  0.46058119  0.74927228  0.35273013  1  0  0.109817  0  0.951928  0  0  0.118039  0  1.015643  0  0  0.121012  0  1.014772  0  0  0.108321  0.115926  0  1.01648  0
H  H17  1  0.03939240  0.75065180  0.85276185  1  0  0.109934  0  0.952167  0  0  0.118143  0  1.015906  0  0  0.121113  0  1.015042  0  0  0.108327  0.116036  0  1.016731  0
H  H18  1  0.39164541  0.36171654  0.79741799  1  0  0.089283  0  0.942067  0  0  0.094953  0  1.009222  0  0  0.098139  0  1.005461  0  0  0.120958  0.092608  0  1.011984  0
H  H19  1  0.10836757  0.13835611  0.29737920  1  0  0.089227  0  0.942062  0  0  0.095022  0  1.009092  0  0  0.098205  0  1.005332  0  0  0.12094  0.09268  0  1.011859  0
H  H20  1  0.60835559  0.63828495  0.20258157  1  0  0.089213  0  0.942087  0  0  0.094906  0  1.009224  0  0  0.098092  0  1.005464  0  0  0.120954  0.092561  0  1.011984  0
H  H21  1  0.89163258  0.86163917  0.70262112  1  0  0.089196  0  0.94206  0  0  0.094974  0  1.009112  0  0  0.098157  0  1.005352  0  0  0.12091  0.092633  0  1.011877  0
H  H22  1  0.85835132  0.47846744  0.95010731  1  0  0.087492  0  0.944142  0  0  0.094157  0  1.011271  0  0  0.097474  0  1.006762  0  0  0.121404  0.091664  0  1.014704  0
H  H23  1  0.64168202  0.02158817  0.45009786  1  0  0.087365  0  0.944027  0  0  0.093955  0  1.011209  0  0  0.097274  0  1.006701  0  0  0.121293  0.091447  0  1.01466  0
H  H24  1  0.14164582  0.52153412  0.04989224  1  0  0.087522  0  0.944092  0  0  0.094155  0  1.01126  0  0  0.097472  0  1.006751  0  0  0.121391  0.091661  0  1.014694  0
H  H25  1  0.35830928  0.97840854  0.54990093  1  0  0.087344  0  0.9441  0  0  0.093957  0  1.011252  0  0  0.097274  0  1.006745  0  0  0.121307  0.091451  0  1.0147  0
H  H26  1  0.02794031  0.38154028  0.80377060  1  0  0.108022  0  0.959572  0  0  0.116191  0  1.024154  0  0  0.119522  0  1.022775  0  0  0.108515  0.113759  0  1.025361  0
H  H27  1  0.47211111  0.11852769  0.30378031  1  0  0.107879  0  0.959522  0  0  0.116014  0  1.024143  0  0  0.119332  0  1.022785  0  0  0.108478  0.11358  0  1.025361  0
H  H28  1  0.97205829  0.61846250  0.19623048  1  0  0.108018  0  0.959582  0  0  0.116167  0  1.024183  0  0  0.119495  0  1.022809  0  0  0.108503  0.113736  0  1.025389  0
H  H29  1  0.52788877  0.88147506  0.69621541  1  0  0.107874  0  0.959538  0  0  0.115991  0  1.024192  0  0  0.119309  0  1.022837  0  0  0.108477  0.113559  0  1.025407  0
C  C30  1  0.26782457  0.31417897  0.48195791  1  0  0.060835  0  3.694208  0  0  0.026482  0  3.968365  0  0  0.034463  0  3.98352  0  0  0.007764  0.022427  0  3.957341  0
C  C31  1  0.23216177  0.18581902  0.98197983  1  0  0.06074  0  3.694045  0  0  0.026402  0  3.968179  0  0  0.034372  0  3.983355  0  0  0.007875  0.022353  0  3.957143  0
C  C32  1  0.73217250  0.68581264  0.51804394  1  0  0.060964  0  3.694106  0  0  0.026625  0  3.968241  0  0  0.03461  0  3.983383  0  0  0.007812  0.022572  0  3.957223  0
C  C33  1  0.76783862  0.81418746  0.01802126  1  0  0.060831  0  3.693972  0  0  0.026508  0  3.9681  0  0  0.034472  0  3.98328  0  0  0.007886  0.022458  0  3.957064  0
C  C34  1  0.28509381  0.47040992  0.53325588  1  0  -0.178239  0  3.793743  0  0  -0.194024  0  4.055974  0  0  -0.202792  0  4.080637  0  0  -0.129749  -0.189298  0  4.03954  0
C  C35  1  0.21490931  0.02959934  0.03329467  1  0  -0.178065  0  3.793373  0  0  -0.193841  0  4.05554  0  0  -0.202607  0  4.080206  0  0  -0.12976  -0.189112  0  4.039093  0
C  C36  1  0.71490276  0.52957797  0.46674750  1  0  -0.178318  0  3.793519  0  0  -0.194083  0  4.055737  0  0  -0.202853  0  4.080395  0  0  -0.12975  -0.189358  0  4.039306  0
C  C37  1  0.78509365  0.97040709  0.96670488  1  0  -0.178063  0  3.793401  0  0  -0.193851  0  4.055574  0  0  -0.202619  0  4.080242  0  0  -0.129802  -0.189125  0  4.039132  0
C  C38  1  0.15028314  0.46628662  0.60391460  1  0  -0.139469  0  3.752008  0  0  -0.164618  0  4.010099  0  0  -0.162512  0  4.033522  0  0  -0.115301  -0.164521  0  3.993583  0
C  C39  1  0.34972234  0.03371722  0.10393492  1  0  -0.139366  0  3.751447  0  0  -0.164505  0  4.00966  0  0  -0.16239  0  4.033097  0  0  -0.115235  -0.164405  0  3.993138  0
C  C40  1  0.84971814  0.53370739  0.39608572  1  0  -0.139537  0  3.751805  0  0  -0.1647  0  4.009892  0  0  -0.162585  0  4.033317  0  0  -0.115354  -0.164604  0  3.99338  0
C  C41  1  0.65028192  0.96628917  0.89606310  1  0  -0.13928  0  3.751469  0  0  -0.164423  0  4.009648  0  0  -0.162309  0  4.033078  0  0  -0.11522  -0.164324  0  3.993127  0
C  C42  1  0.05397263  0.30773707  0.59343549  1  0  0.027444  0  3.84509  0  0  0.024631  0  4.099363  0  0  0.015297  0  4.125635  0  0  0.043187  0.029617  0  4.082749  0
C  C43  1  0.44603785  0.19225944  0.09343685  1  0  0.027564  0  3.844761  0  0  0.024737  0  4.099112  0  0  0.015386  0  4.125408  0  0  0.043309  0.029725  0  4.082485  0
C  C44  1  0.94602898  0.69225942  0.40656637  1  0  0.02763  0  3.845073  0  0  0.024805  0  4.099351  0  0  0.015467  0  4.125628  0  0  0.04332  0.029789  0  4.08274  0
C  C45  1  0.55396461  0.80774326  0.90655657  1  0  0.027529  0  3.844847  0  0  0.0247  0  4.0992  0  0  0.015361  0  4.12548  0  0  0.043363  0.029686  0  4.082573  0
C  C46  1  0.89450310  0.23144187  0.63090264  1  0  0.290537  0  3.765681  0  0  0.278966  0  4.025298  0  0  0.308317  0  4.02616  0  0  0.122763  0.2589  0  4.02446  0
C  C47  1  0.60551653  0.26857783  0.13089911  1  0  0.290255  0  3.766282  0  0  0.278716  0  4.025861  0  0  0.308075  0  4.026718  0  0  0.122519  0.258653  0  4.025011  0
C  C48  1  0.10549336  0.76855473  0.36910074  1  0  0.290415  0  3.765844  0  0  0.278896  0  4.025444  0  0  0.308241  0  4.026318  0  0  0.122751  0.258832  0  4.024603  0
C  C49  1  0.39448884  0.73142729  0.86909891  1  0  0.290215  0  3.766361  0  0  0.278697  0  4.025905  0  0  0.308044  0  4.026777  0  0  0.122535  0.258637  0  4.025054  0
C  C50  1  0.79776659  0.30381210  0.71336537  1  0  0.05006  0  3.767204  0  0  0.061476  0  3.994204  0  0  0.064264  0  4.009152  0  0  0.004528  0.059486  0  3.984562  0
C  C51  1  0.70227099  0.19624641  0.21336329  1  0  0.050293  0  3.767882  0  0  0.061899  0  3.994672  0  0  0.064687  0  4.009617  0  0  0.004766  0.059897  0  3.985044  0
C  C52  1  0.20223279  0.69618693  0.28663572  1  0  0.050098  0  3.767112  0  0  0.061425  0  3.99421  0  0  0.064218  0  4.009157  0  0  0.004549  0.059435  0  3.984565  0
C  C53  1  0.29773163  0.80375753  0.78663626  1  0  0.050378  0  3.767808  0  0  0.061941  0  3.994624  0  0  0.064731  0  4.009569  0  0  0.004781  0.059939  0  3.984994  0
C  C54  1  0.61591498  0.29967693  0.71269806  1  0  -0.137664  0  3.710454  0  0  -0.153816  0  3.954687  0  0  -0.15788  0  3.970006  0  0  -0.076706  -0.152  0  3.945367  0
C  C55  1  0.88412697  0.20041386  0.21268109  1  0  -0.137982  0  3.710855  0  0  -0.154329  0  3.955223  0  0  -0.158392  0  3.97054  0  0  -0.07669  -0.152512  0  3.945912  0
C  C56  1  0.38408473  0.70032458  0.28729843  1  0  -0.13774  0  3.710653  0  0  -0.153849  0  3.95492  0  0  -0.157917  0  3.970243  0  0  -0.076815  -0.152033  0  3.945598  0
C  C57  1  0.11587661  0.79958757  0.78731923  1  0  -0.138035  0  3.71085  0  0  -0.154322  0  3.95522  0  0  -0.158385  0  3.97053  0  0  -0.076702  -0.152506  0  3.945909  0
C  C58  1  0.53214246  0.36097968  0.79622779  1  0  0.114448  0  3.654998  0  0  0.084446  0  3.909135  0  0  0.093775  0  3.920854  0  0  0.046578  0.078337  0  3.901655  0
C  C59  1  0.96788362  0.13907217  0.29620287  1  0  0.114473  0  3.654859  0  0  0.084554  0  3.90909  0  0  0.093877  0  3.920805  0  0  0.046458  0.07843  0  3.901637  0
C  C60  1  0.46785518  0.63902561  0.20377024  1  0  0.11451  0  3.655078  0  0  0.084526  0  3.909235  0  0  0.093856  0  3.920955  0  0  0.046645  0.078418  0  3.901753  0
C  C61  1  0.03211653  0.86092311  0.70379745  1  0  0.114594  0  3.654947  0  0  0.084663  0  3.909167  0  0  0.093988  0  3.920877  0  0  0.046505  0.078539  0  3.901714  0
C  C62  1  0.79397174  0.42889348  0.88088065  1  0  0.117796  0  3.665673  0  0  0.086599  0  3.920407  0  0  0.096637  0  3.931904  0  0  0.044116  0.079501  0  3.913682  0
C  C63  1  0.70607407  0.07113359  0.38086474  1  0  0.11797  0  3.665675  0  0  0.087032  0  3.920368  0  0  0.097061  0  3.931867  0  0  0.044452  0.080018  0  3.9135  0
C  C64  1  0.20602522  0.57110684  0.11912043  1  0  0.117695  0  3.665753  0  0  0.086564  0  3.920491  0  0  0.096602  0  3.931989  0  0  0.044099  0.079462  0  3.913772  0
C  C65  1  0.29392564  0.92886792  0.61913481  1  0  0.117944  0  3.665712  0  0  0.086978  0  3.920398  0  0  0.09701  0  3.931895  0  0  0.044403  0.079953  0  3.91355  0
C  C66  1  0.88675441  0.37387508  0.79942042  1  0  -0.150455  0  3.722125  0  0  -0.16522  0  3.964973  0  0  -0.170672  0  3.981584  0  0  -0.079777  -0.161937  0  3.954406  0
C  C67  1  0.61329457  0.12618244  0.29941851  1  0  -0.150403  0  3.722185  0  0  -0.165219  0  3.965007  0  0  -0.170669  0  3.981621  0  0  -0.079847  -0.161959  0  3.954474  0
C  C68  1  0.11324351  0.62612273  0.20057914  1  0  -0.150455  0  3.722143  0  0  -0.165174  0  3.964997  0  0  -0.170629  0  3.98161  0  0  -0.07975  -0.16189  0  3.954429  0
C  C69  1  0.38670481  0.87381659  0.70058028  1  0  -0.150384  0  3.722241  0  0  -0.165188  0  3.965085  0  0  -0.170638  0  3.981698  0  0  -0.079839  -0.161926  0  3.954547  0
N  N70  1  0.12923868  0.21737035  0.51795231  1  0  -0.307436  0  3.391639  0  0  -0.268836  0  3.68063  0  0  -0.286903  0  3.703131  0  0  -0.384868  -0.25777  0  3.664933  0
N  N71  1  0.37076470  0.28262680  0.01795314  1  0  -0.307498  0  3.391702  0  0  -0.268962  0  3.680824  0  0  -0.28703  0  3.703337  0  0  -0.384929  -0.257878  0  3.6651  0
N  N72  1  0.87075615  0.78262379  0.48205184  1  0  -0.307647  0  3.391823  0  0  -0.269062  0  3.680847  0  0  -0.287131  0  3.703357  0  0  -0.384966  -0.257997  0  3.665151  0
N  N73  1  0.62923938  0.71737835  0.98204489  1  0  -0.307519  0  3.391836  0  0  -0.269029  0  3.68101  0  0  -0.287099  0  3.703519  0  0  -0.384896  -0.257946  0  3.665296  0
N  N74  1  0.61835011  0.42229626  0.88076177  1  0  -0.212792  0  3.365562  0  0  -0.163174  0  3.635163  0  0  -0.178492  0  3.651864  0  0  -0.343419  -0.154027  0  3.622823  0
N  N75  1  0.88168543  0.07771236  0.38073165  1  0  -0.212803  0  3.36563  0  0  -0.163576  0  3.63563  0  0  -0.178879  0  3.652314  0  0  -0.3436  -0.154452  0  3.623327  0
N  N76  1  0.38164719  0.57770654  0.11923702  1  0  -0.21267  0  3.365526  0  0  -0.16316  0  3.635233  0  0  -0.17848  0  3.651936  0  0  -0.343448  -0.154012  0  3.622891  0
N  N77  1  0.11831086  0.92228300  0.61926867  1  0  -0.212836  0  3.365709  0  0  -0.163573  0  3.635685  0  0  -0.178877  0  3.652368  0  0  -0.343591  -0.154445  0  3.623378  0
O  O78  1  0.83266513  0.09011992  0.59162438  1  0  -0.448833  0  2.142086  0  0  -0.414517  0  2.404262  0  0  -0.4468  0  2.402291  0  0  -0.278206  -0.391765  0  2.403458  0
O  O79  1  0.66737141  0.40989412  0.09162229  1  0  -0.448578  0  2.142293  0  0  -0.414318  0  2.404429  0  0  -0.446616  0  2.402461  0  0  -0.278042  -0.391546  0  2.403605  0
O  O80  1  0.16733408  0.90987787  0.40837900  1  0  -0.448812  0  2.14218  0  0  -0.414495  0  2.404329  0  0  -0.446779  0  2.402362  0  0  -0.278234  -0.391743  0  2.403523  0
O  O81  1  0.33263190  0.59011478  0.90837803  1  0  -0.44864  0  2.142311  0  0  -0.414373  0  2.404455  0  0  -0.446667  0  2.402493  0  0  -0.278124  -0.391599  0  2.403628  0
