# generated using pymatgen
data_CuH24C22N7O4
_symmetry_space_group_name_H-M   'P 1'
_cell_length_a   8.06528137
_cell_length_b   9.86114793
_cell_length_c   14.85003024
_cell_angle_alpha   82.76813566
_cell_angle_beta   76.98428693
_cell_angle_gamma   89.21043611
_symmetry_Int_Tables_number   1
_chemical_formula_structural   CuH24C22N7O4
_chemical_formula_sum   'Cu2 H48 C44 N14 O8'
_cell_volume   1141.43898238
_cell_formula_units_Z   2
loop_
 _symmetry_equiv_pos_site_id
 _symmetry_equiv_pos_as_xyz
  1  'x, y, z'
loop_
 _atom_site_type_symbol
 _atom_site_label
 _atom_site_symmetry_multiplicity
 _atom_site_fract_x
 _atom_site_fract_y
 _atom_site_fract_z
 _atom_site_occupancy
 _atom_site_pbe_bader_charge
 _atom_site_pbe_bader_spin_density
 _atom_site_pbe_cm5_charge
 _atom_site_pbe_ddec_charge
 _atom_site_pbe_ddec_spin_density
 _atom_site_pbe_ddec_sum_bond_order
 _atom_site_pbe_magmom
Cu  Cu0  1  0.67364857  0.78682283  0.72903088  1  1.068976  -0.599642  0.774649  0.687684  -0.750809  2.415934  -0.597
Cu  Cu1  1  0.32637077  0.21317781  0.27095818  1  1.068814  -0.59965  0.774659  0.68774  -0.750791  2.415605  -0.597
H  H2  1  0.10529278  0.57864974  0.73878241  1  0.082468  -0.00128  0.105862  0.108874  -0.000605  1.038211  -0.001
H  H3  1  0.89472803  0.42136937  0.26120391  1  0.082038  -0.001281  0.105888  0.108965  -0.000605  1.038145  -0.001
H  H4  1  0.09716162  0.67220619  0.57411047  1  0.078705  -0.000192  0.103187  0.097918  -4.9e-05  1.024371  0.0
H  H5  1  0.90286703  0.32779589  0.42586906  1  0.07883  -0.000191  0.10319  0.097934  -4.9e-05  1.024374  0.0
H  H6  1  0.34952233  0.80942334  0.47575027  1  0.123959  -0.001557  0.108316  0.109138  -0.000828  1.032006  -0.001
H  H7  1  0.65050932  0.19058273  0.52423284  1  0.124279  -0.001557  0.10824  0.108889  -0.000828  1.03189  -0.001
H  H8  1  0.76222056  0.49995410  0.84263777  1  0.176441  -0.000454  0.146994  0.121781  -9.3e-05  0.968362  0.0
H  H9  1  0.23778085  0.50005016  0.15735968  1  0.176394  -0.000454  0.146968  0.121742  -9.3e-05  0.968408  0.0
H  H10  1  0.79351902  0.60107160  0.55484719  1  0.104242  -0.000879  0.120395  0.116246  -0.000343  1.009494  -0.001
H  H11  1  0.20649645  0.39893490  0.44514849  1  0.103862  -0.000878  0.120391  0.116261  -0.000342  1.009579  -0.001
H  H12  1  0.90872774  0.33377030  0.58777456  1  0.126919  -0.001129  0.130015  0.134561  -0.00056  0.997011  -0.001
H  H13  1  0.09127862  0.66622992  0.41222352  1  0.1271  -0.001128  0.130004  0.13449  -0.00056  0.997096  -0.001
H  H14  1  0.51431028  0.06860624  0.63851196  1  0.20869  -0.000461  0.135508  0.117605  -0.000115  1.065009  0.0
H  H15  1  0.48570015  0.93141226  0.36148933  1  0.208687  -0.000461  0.135443  0.117514  -0.000115  1.06514  0.0
H  H16  1  0.57872429  0.95450230  0.91236181  1  0.090927  -0.000803  0.117375  0.11358  -0.000293  1.005822  -0.001
H  H17  1  0.42129224  0.04546452  0.08763179  1  0.091148  -0.000803  0.117379  0.113486  -0.000293  1.005728  -0.001
H  H18  1  0.45249707  0.22123116  0.89739722  1  0.121446  -0.001116  0.129806  0.137175  -0.000547  0.987511  -0.001
H  H19  1  0.54747040  0.77872708  0.10262465  1  0.120522  -0.001116  0.12974  0.137091  -0.000547  0.987356  -0.001
H  H20  1  0.90129587  0.17337078  0.73771255  1  0.087107  -0.000313  0.112017  0.095505  -0.000143  0.99054  0.0
H  H21  1  0.09869617  0.82662817  0.26228861  1  0.086608  -0.000313  0.112046  0.095468  -0.000143  0.990567  0.0
H  H22  1  0.81900169  0.23591227  0.84509021  1  0.040652  1e-06  0.107491  0.081128  1.4e-05  1.006708  0.0
H  H23  1  0.18097177  0.76408447  0.15491031  1  0.040732  1e-06  0.107437  0.081008  1.4e-05  1.006679  0.0
H  H24  1  0.09717980  0.36108862  0.83117149  1  0.100632  -2e-05  0.092992  0.103801  -3e-06  1.023257  0.0
H  H25  1  0.90278733  0.63890966  0.16884222  1  0.100804  -2e-05  0.093015  0.103777  -3e-06  1.023324  0.0
H  H26  1  0.11646956  0.18169201  0.83474382  1  0.014604  -5.9e-05  0.087447  0.077828  -3.1e-05  1.043999  0.0
H  H27  1  0.88349845  0.81830110  0.16527221  1  0.014646  -5.9e-05  0.087439  0.077873  -3.1e-05  1.04383  0.0
H  H28  1  0.20097731  0.38684051  0.65700779  1  0.021412  -5.8e-05  0.087682  0.082941  -2.6e-05  1.023163  0.0
H  H29  1  0.79901088  0.61315569  0.34301345  1  0.021155  -5.8e-05  0.087711  0.08299  -2.6e-05  1.023158  0.0
H  H30  1  0.22276079  0.20850558  0.65939838  1  0.123195  -4.9e-05  0.093987  0.107101  -2.7e-05  1.035632  0.0
H  H31  1  0.77722506  0.79149186  0.34061549  1  0.123363  -4.9e-05  0.093933  0.107074  -2.7e-05  1.03556  0.0
H  H32  1  0.49422393  0.34206068  0.64881970  1  0.06465  2.9e-05  0.106274  0.083129  3.7e-05  0.993961  0.0
H  H33  1  0.50575451  0.65794526  0.35121237  1  0.064406  2.9e-05  0.106248  0.083136  3.7e-05  0.994031  0.0
H  H34  1  0.40859766  0.38523748  0.76276068  1  0.094436  -0.000345  0.111152  0.099552  -0.000161  1.006182  0.0
H  H35  1  0.59136782  0.61473860  0.23727634  1  0.094597  -0.000345  0.111237  0.099704  -0.000161  1.006073  0.0
H  H36  1  0.81404944  0.71710989  0.91594168  1  0.114288  -0.000634  0.145499  0.119289  -0.000203  0.975871  0.0
H  H37  1  0.18594347  0.28288738  0.08404870  1  0.114213  -0.000634  0.145486  0.119329  -0.000203  0.975846  0.0
H  H38  1  0.02333067  0.95574453  0.65888175  1  0.158137  -0.001029  0.129172  0.13716  -0.00044  0.986232  -0.001
H  H39  1  0.97669174  0.04425786  0.34111714  1  0.158016  -0.001029  0.129153  0.137144  -0.00044  0.986193  -0.001
H  H40  1  0.23901041  0.97010364  0.77972757  1  0.129657  -0.000912  0.125521  0.128012  -0.000406  1.029142  -0.001
H  H41  1  0.76098807  0.02990418  0.22028473  1  0.129677  -0.000912  0.125556  0.128088  -0.000405  1.029146  -0.001
H  H42  1  0.23516123  0.79436156  0.94611346  1  0.103136  -9.1e-05  0.112307  0.110926  -5.9e-05  0.991882  0.0
H  H43  1  0.76482088  0.20563709  0.05389380  1  0.102948  -9.1e-05  0.112345  0.110955  -5.9e-05  0.991802  0.0
H  H44  1  0.02349752  0.75210568  0.00806956  1  0.052038  -4.5e-05  0.11808  0.104847  -1.8e-05  0.968487  0.0
H  H45  1  0.97648205  0.24787781  0.99193283  1  0.052328  -4.5e-05  0.118165  0.104972  -1.8e-05  0.968528  0.0
H  H46  1  0.12380731  0.95646397  0.06326072  1  0.060757  -0.000146  0.093242  0.08701  -6.1e-05  1.022018  0.0
H  H47  1  0.87615547  0.04352006  0.93675087  1  0.061553  -0.000146  0.093211  0.087032  -6.1e-05  1.02185  0.0
H  H48  1  0.18431985  0.04021002  0.94905821  1  0.009425  -2e-05  0.084599  0.069  -1.1e-05  1.048123  0.0
H  H49  1  0.81564564  0.95978204  0.05095807  1  0.009448  -2e-05  0.084667  0.068978  -1.1e-05  1.048233  0.0
C  C50  1  0.35706397  0.62033957  0.83101790  1  1.635078  -0.002461  0.173523  0.518857  -0.001597  4.338432  -0.002
C  C51  1  0.64294984  0.37968240  0.16897208  1  1.635127  -0.00246  0.173586  0.518963  -0.001596  4.338336  -0.002
C  C52  1  0.34858485  0.66888989  0.72944362  1  0.465713  0.000469  0.107915  0.101341  0.001111  3.924721  0.001
C  C53  1  0.65144181  0.33113249  0.27053802  1  0.464821  0.000465  0.107947  0.101345  0.001109  3.924722  0.001
C  C54  1  0.21064969  0.63802590  0.69308810  1  -0.042225  -0.007053  -0.079198  -0.124757  -0.004596  3.949023  -0.006
C  C55  1  0.78937067  0.36198720  0.30689460  1  -0.041576  -0.00705  -0.079239  -0.124899  -0.004595  3.949273  -0.006
C  C56  1  0.20837299  0.68954919  0.60151586  1  -0.005303  0.004148  -0.071155  -0.033287  0.004781  3.961545  0.003
C  C57  1  0.79165466  0.31045496  0.39846224  1  -0.005175  0.004148  -0.071167  -0.033372  0.004781  3.961823  0.003
C  C58  1  0.34693764  0.76599921  0.54701155  1  -0.027401  -0.006832  -0.074195  -0.117054  -0.00445  3.935647  -0.005
C  C59  1  0.65309733  0.23400805  0.45296719  1  -0.027971  -0.006832  -0.074145  -0.116611  -0.00445  3.935793  -0.005
C  C60  1  0.48410498  0.79117092  0.58586909  1  0.473337  0.000526  0.115023  0.115391  0.001101  3.915922  0.0
C  C61  1  0.51592917  0.20884130  0.41411343  1  0.473114  0.000526  0.114861  0.114762  0.001101  3.917017  0.0
C  C62  1  0.64699780  0.86728029  0.53025376  1  1.640847  -0.002378  0.184294  0.523941  -0.001606  4.306372  -0.002
C  C63  1  0.35303383  0.13272884  0.46972914  1  1.64051  -0.002379  0.184261  0.524156  -0.001606  4.306367  -0.002
C  C64  1  0.78793753  0.49395721  0.76834855  1  0.940022  0.001447  0.146688  0.091537  0.001796  3.888033  0.0
C  C65  1  0.21205883  0.50604393  0.23164946  1  0.93996  0.001447  0.14674  0.091581  0.001796  3.888094  0.0
C  C66  1  0.80532121  0.54067546  0.61925634  1  0.351725  -0.00088  -0.002309  -0.040634  -0.000415  4.019479  -0.001
C  C67  1  0.19468742  0.45932270  0.38074308  1  0.352258  -0.00088  -0.002398  -0.040853  -0.000415  4.01946  -0.001
C  C68  1  0.86209252  0.40919831  0.63422077  1  0.348309  -0.003418  0.000658  -0.120431  -0.002227  3.936563  -0.002
C  C69  1  0.13790721  0.59081098  0.36577849  1  0.347791  -0.003419  0.00074  -0.120221  -0.002228  3.936074  -0.002
C  C70  1  0.52478429  0.07250538  0.70996575  1  0.939442  0.001708  0.138269  0.082691  0.002111  3.873681  0.001
C  C71  1  0.47522154  0.92749473  0.29003508  1  0.939056  0.001709  0.138318  0.082648  0.002112  3.873706  0.001
C  C72  1  0.54925218  0.01802822  0.85315818  1  0.445524  -0.001366  -0.007555  -0.04481  -0.001  4.026019  -0.001
C  C73  1  0.45075024  0.98193613  0.14684399  1  0.445354  -0.001369  -0.007491  -0.044733  -0.001002  4.026295  -0.001
C  C74  1  0.48549381  0.14859926  0.84730184  1  0.257992  -0.003349  -0.00386  -0.130927  -0.002083  3.949608  -0.002
C  C75  1  0.51448395  0.85136651  0.15271137  1  0.258804  -0.003346  -0.003762  -0.130571  -0.002082  3.949316  -0.002
C  C76  1  0.90984490  0.25836064  0.77778169  1  0.292224  -0.001192  -0.053785  -0.067849  -0.000841  3.893648  -0.001
C  C77  1  0.09013621  0.74163905  0.22222421  1  0.292262  -0.001192  -0.053625  -0.067559  -0.00084  3.893454  -0.001
C  C78  1  0.09025153  0.27489516  0.79146294  1  -0.066498  7.8e-05  -0.172189  -0.18651  0.000101  3.9497  0.0
C  C79  1  0.90971660  0.72510104  0.20855220  1  -0.065892  7.8e-05  -0.172403  -0.186675  0.000101  3.949797  0.0
C  C80  1  0.22546516  0.29341675  0.70062908  1  -0.049684  3.9e-05  -0.174258  -0.182068  5.5e-05  3.930703  0.0
C  C81  1  0.77452144  0.70657857  0.29938759  1  -0.049792  3.9e-05  -0.174104  -0.181938  5.5e-05  3.930721  0.0
C  C82  1  0.40540585  0.30884876  0.71546462  1  0.284743  -0.00116  -0.05425  -0.058333  -0.000818  3.848348  -0.001
C  C83  1  0.59457890  0.69114214  0.28456196  1  0.284455  -0.001159  -0.054241  -0.058571  -0.000818  3.848667  -0.001
C  C84  1  0.89804247  0.78432946  0.86178861  1  1.004934  0.001359  0.143079  0.07533  0.001651  3.911475  0.0
C  C85  1  0.10195330  0.21566667  0.13820640  1  1.005503  0.001356  0.143053  0.075215  0.00165  3.911551  0.0
C  C86  1  0.00907835  0.91154864  0.73097449  1  0.387584  -0.000438  0.006534  -0.023338  -0.000106  3.951974  -0.001
C  C87  1  0.99093534  0.08845265  0.26902438  1  0.388029  -0.000436  0.006531  -0.023272  -0.000105  3.952063  -0.001
C  C88  1  0.11667684  0.91979176  0.78999036  1  0.315592  -0.003448  0.005784  -0.0875  -0.002204  3.876966  -0.002
C  C89  1  0.88332438  0.08021021  0.21001472  1  0.314843  -0.003448  0.005753  -0.087623  -0.002203  3.87706  -0.002
C  C90  1  0.10330423  0.83047768  0.95882696  1  0.297921  -0.00108  -0.05139  -0.069004  -0.000786  3.846339  -0.001
C  C91  1  0.89667184  0.16951480  0.04117978  1  0.298159  -0.00108  -0.051578  -0.069281  -0.000786  3.846336  -0.001
C  C92  1  0.08852075  0.96937132  0.99535649  1  -0.042673  -0.000104  -0.169384  -0.181399  -5.3e-05  3.96773  0.0
C  C93  1  0.91144847  0.03061894  0.00465357  1  -0.018371  -0.000103  -0.169233  -0.181023  -5.3e-05  3.967382  0.0
N  N94  1  0.47883516  0.74555237  0.67559604  1  -1.210247  -0.103789  -0.341361  -0.243576  -0.06725  3.654835  -0.09
N  N95  1  0.52119405  0.25446186  0.32438600  1  -1.209324  -0.103799  -0.341137  -0.243204  -0.067256  3.654738  -0.09
N  N96  1  0.85038061  0.38121894  0.72895580  1  -1.223554  -0.002584  -0.244088  0.045393  -0.001319  3.769424  -0.002
N  N97  1  0.14961168  0.61878415  0.27104370  1  -1.223235  -0.002584  -0.244179  0.045401  -0.001319  3.769361  -0.002
N  N98  1  0.76083918  0.59227833  0.70341790  1  -1.176034  -0.083731  -0.355332  -0.270744  -0.05489  3.592806  -0.074
N  N99  1  0.23917123  0.40772403  0.29657840  1  -1.176006  -0.083726  -0.355275  -0.270742  -0.054887  3.59313  -0.074
N  N100  1  0.47066350  0.18130610  0.75619702  1  -1.23078  -0.002737  -0.245613  0.045669  -0.001469  3.752944  -0.002
N  N101  1  0.52932435  0.81867207  0.24381466  1  -1.230962  -0.002736  -0.24568  0.045541  -0.001469  3.753077  -0.002
N  N102  1  0.57316792  0.97238270  0.76711323  1  -1.203326  -0.082555  -0.359278  -0.276215  -0.054017  3.596685  -0.072
N  N103  1  0.42685117  0.02761483  0.23287741  1  -1.202682  -0.082534  -0.359387  -0.276337  -0.054005  3.596871  -0.072
N  N104  1  0.04523390  0.83870175  0.87197466  1  -1.225524  -0.002262  -0.243834  0.048364  -0.00106  3.774245  -0.002
N  N105  1  0.95476041  0.16129616  0.12802778  1  -1.225767  -0.002262  -0.243783  0.048462  -0.00106  3.774168  -0.002
N  N106  1  0.87371544  0.82650374  0.77691929  1  -1.201663  -0.07667  -0.37886  -0.279672  -0.049853  3.68972  -0.067
N  N107  1  0.12629603  0.17349880  0.22307151  1  -1.201721  -0.076668  -0.378835  -0.279638  -0.049854  3.68977  -0.067
O  O108  1  0.47205313  0.67648412  0.86073415  1  -1.189806  0.000514  -0.366214  -0.614205  0.001  2.19761  0.0
O  O109  1  0.52795803  0.32355130  0.13924898  1  -1.189606  0.000512  -0.366193  -0.614215  0.001  2.197303  0.0
O  O110  1  0.24850540  0.53078181  0.87467571  1  -1.1887  -0.003528  -0.365713  -0.585424  -0.002073  2.090706  -0.003
O  O111  1  0.75149101  0.46924124  0.12530724  1  -1.188777  -0.00353  -0.365889  -0.585557  -0.002074  2.090715  -0.003
O  O112  1  0.76320478  0.87874305  0.57426516  1  -1.174907  -0.001629  -0.356172  -0.585578  -0.000603  2.189801  -0.003
O  O113  1  0.23684025  0.12124285  0.42571506  1  -1.174974  -0.00163  -0.356119  -0.585453  -0.000604  2.190015  -0.003
O  O114  1  0.65230314  0.90873743  0.44583299  1  -1.192201  -0.004443  -0.331405  -0.557086  -0.002626  2.205503  -0.004
O  O115  1  0.34771133  0.09130694  0.55415811  1  -1.191744  -0.004446  -0.331418  -0.557272  -0.002628  2.204951  -0.004
