# generated using pymatgen
data_TbH21(C7O3)4
_symmetry_space_group_name_H-M   'P 1'
_cell_length_a   9.15559690
_cell_length_b   14.04764058
_cell_length_c   16.25820339
_cell_angle_alpha   85.21823490
_cell_angle_beta   77.46333149
_cell_angle_gamma   72.53469111
_symmetry_Int_Tables_number   1
_chemical_formula_structural   TbH21(C7O3)4
_chemical_formula_sum   'Tb2 H42 C56 O24'
_cell_volume   1946.71166435
_cell_formula_units_Z   2
loop_
 _symmetry_equiv_pos_site_id
 _symmetry_equiv_pos_as_xyz
  1  'x, y, z'
loop_
 _atom_site_type_symbol
 _atom_site_label
 _atom_site_symmetry_multiplicity
 _atom_site_fract_x
 _atom_site_fract_y
 _atom_site_fract_z
 _atom_site_occupancy
 _atom_site_hle17_bader_spin_density
 _atom_site_hle17_ddec_charge
 _atom_site_hle17_ddec_spin_density
 _atom_site_hle17_ddec_sum_bond_order
 _atom_site_hle17_magmom
 _atom_site_hse06_10hf_bader_spin_density
 _atom_site_hse06_10hf_ddec_charge
 _atom_site_hse06_10hf_ddec_spin_density
 _atom_site_hse06_10hf_ddec_sum_bond_order
 _atom_site_hse06_10hf_magmom
 _atom_site_hse06_bader_spin_density
 _atom_site_hse06_ddec_charge
 _atom_site_hse06_ddec_spin_density
 _atom_site_hse06_ddec_sum_bond_order
 _atom_site_hse06_magmom
 _atom_site_pbe_bader_spin_density
 _atom_site_pbe_cm5_charge
 _atom_site_pbe_ddec_charge
 _atom_site_pbe_ddec_spin_density
 _atom_site_pbe_ddec_sum_bond_order
 _atom_site_pbe_magmom
Tb  Tb0  1  0.22464452  0.53079402  0.49758412  1  0  2.28116  0  1.646483  0  0  2.135771  0  2.114252  0  0  2.253309  0  1.940463  0  0  1.505959  2.09883  0  2.148363  0
Tb  Tb1  1  0.77535744  0.46920957  0.50241421  1  0  2.281167  0  1.646397  0  0  2.135776  0  2.114161  0  0  2.253294  0  1.940413  0  0  1.505961  2.09884  0  2.148278  0
H  H2  1  0.23494559  0.72638019  0.51440108  1  0  0.429487  0  0.822441  0  0  0.412455  0  0.876375  0  0  0.421068  0  0.867258  0  0  0.32241  0.406382  0  0.883663  0
H  H3  1  0.76505055  0.27361893  0.48559829  1  0  0.429491  0  0.822432  0  0  0.412459  0  0.876371  0  0  0.421036  0  0.867327  0  0  0.322418  0.406378  0  0.883668  0
H  H4  1  0.39979869  0.67666091  0.45834060  1  0  0.436944  0  0.861177  0  0  0.404334  0  0.927676  0  0  0.415356  0  0.912103  0  0  0.29818  0.396629  0  0.938888  0
H  H5  1  0.60020208  0.32334043  0.54166111  1  0  0.43695  0  0.86116  0  0  0.404326  0  0.927689  0  0  0.41525  0  0.912054  0  0  0.29817  0.396622  0  0.9389  0
H  H6  1  0.09737963  0.68824384  0.37902965  1  0  0.441604  0  0.813443  0  0  0.427144  0  0.855618  0  0  0.435525  0  0.843698  0  0  0.330761  0.421471  0  0.863878  0
H  H7  1  0.90261780  0.31175978  0.62096494  1  0  0.441617  0  0.813377  0  0  0.427154  0  0.855589  0  0  0.43553  0  0.843679  0  0  0.330791  0.421491  0  0.863839  0
H  H8  1  0.99368514  0.61234263  0.38026761  1  0  0.444204  0  0.857514  0  0  0.41086  0  0.924435  0  0  0.422519  0  0.907601  0  0  0.299275  0.402859  0  0.936115  0
H  H9  1  0.00631444  0.38765873  0.61972871  1  0  0.444197  0  0.857515  0  0  0.410876  0  0.924392  0  0  0.422532  0  0.907565  0  0  0.299307  0.402878  0  0.936067  0
H  H10  1  0.60226952  0.53363684  0.76607799  1  0  0.112345  0  0.927246  0  0  0.122943  0  0.98173  0  0  0.126722  0  0.978915  0  0  0.113453  0.120349  0  0.983603  0
H  H11  1  0.39773582  0.46635181  0.23392281  1  0  0.112416  0  0.927163  0  0  0.123003  0  0.98166  0  0  0.126779  0  0.978848  0  0  0.11348  0.120411  0  0.983536  0
H  H12  1  0.14842268  0.65866658  0.70576550  1  0  0.112795  0  0.960453  0  0  0.118665  0  1.026388  0  0  0.122581  0  1.022977  0  0  0.108186  0.115963  0  1.028691  0
H  H13  1  0.85158887  0.34133552  0.29422804  1  0  0.112787  0  0.960452  0  0  0.118648  0  1.026395  0  0  0.122561  0  1.022988  0  0  0.108156  0.115931  0  1.028709  0
H  H14  1  0.12854802  0.29454409  0.74428856  1  0  0.102763  0  0.932314  0  0  0.114993  0  0.986059  0  0  0.118729  0  0.98299  0  0  0.109248  0.112362  0  0.98823  0
H  H15  1  0.87144476  0.70545504  0.25571123  1  0  0.102751  0  0.932231  0  0  0.114937  0  0.986036  0  0  0.11869  0  0.98295  0  0  0.109246  0.112304  0  0.988206  0
H  H16  1  0.51747839  0.18231110  0.54078583  1  0  0.093303  0  0.95467  0  0  0.104843  0  1.013559  0  0  0.108094  0  1.010719  0  0  0.104923  0.102557  0  1.015456  0
H  H17  1  0.48251918  0.81769246  0.45922044  1  0  0.093249  0  0.9547  0  0  0.104767  0  1.013624  0  0  0.108025  0  1.010764  0  0  0.104903  0.102492  0  1.015514  0
H  H18  1  0.49864822  0.60659823  0.91133784  1  0  0.113622  0  0.930284  0  0  0.125618  0  0.982709  0  0  0.129236  0  0.981423  0  0  0.108817  0.123107  0  0.983794  0
H  H19  1  0.50135621  0.39339491  0.08866152  1  0  0.113679  0  0.930265  0  0  0.12568  0  0.982678  0  0  0.1293  0  0.98139  0  0  0.108837  0.123173  0  0.983763  0
H  H20  1  0.04517594  0.73575071  0.84938780  1  0  0.125313  0  0.972052  0  0  0.130432  0  1.037987  0  0  0.134598  0  1.035212  0  0  0.10239  0.12744  0  1.040183  0
H  H21  1  0.95483415  0.26425213  0.15060588  1  0  0.125217  0  0.972161  0  0  0.130342  0  1.038085  0  0  0.134507  0  1.035314  0  0  0.102364  0.127367  0  1.040263  0
H  H22  1  0.17467212  0.12270449  0.80985175  1  0  0.113995  0  0.952759  0  0  0.123298  0  1.015902  0  0  0.126431  0  1.014974  0  0  0.106206  0.121084  0  1.016692  0
H  H23  1  0.82531607  0.87729986  0.19014825  1  0  0.113994  0  0.952685  0  0  0.123287  0  1.015825  0  0  0.12642  0  1.014895  0  0  0.106199  0.12108  0  1.016614  0
H  H24  1  0.56174678  0.01205963  0.60415017  1  0  0.113448  0  0.957728  0  0  0.12505  0  1.011947  0  0  0.12811  0  1.011877  0  0  0.106198  0.122961  0  1.012112  0
H  H25  1  0.43824789  0.98794542  0.39585697  1  0  0.113378  0  0.957646  0  0  0.124913  0  1.011976  0  0  0.127971  0  1.011911  0  0  0.106103  0.122822  0  1.012143  0
H  H26  1  0.34652149  0.83191731  0.86328838  1  0  0.11238  0  0.979531  0  0  0.117294  0  1.047854  0  0  0.120392  0  1.047954  0  0  0.102206  0.115094  0  1.047919  0
H  H27  1  0.65347878  0.16808255  0.13670981  1  0  0.11239  0  0.979593  0  0  0.117332  0  1.047855  0  0  0.120442  0  1.047939  0  0  0.102212  0.115125  0  1.047929  0
H  H28  1  0.07520279  0.79566385  0.10940882  1  0  0.113843  0  0.94074  0  0  0.125903  0  0.996257  0  0  0.129512  0  0.994611  0  0  0.108538  0.123355  0  0.997596  0
H  H29  1  0.92480689  0.20433004  0.89058800  1  0  0.113801  0  0.940577  0  0  0.125903  0  0.996065  0  0  0.129517  0  0.994415  0  0  0.108536  0.123355  0  0.997402  0
H  H30  1  0.67687665  0.91835939  0.77457035  1  0  0.127076  0  0.944882  0  0  0.136576  0  1.002831  0  0  0.140112  0  1.00113  0  0  0.10878  0.134064  0  1.004202  0
H  H31  1  0.32311908  0.08163822  0.22543287  1  0  0.12708  0  0.944871  0  0  0.136548  0  1.002847  0  0  0.140089  0  1.001149  0  0  0.108769  0.134047  0  1.004203  0
H  H32  1  0.36535412  0.83779265  0.64765152  1  0  0.115208  0  0.927272  0  0  0.127765  0  0.980022  0  0  0.131395  0  0.978525  0  0  0.109667  0.125224  0  0.981218  0
H  H33  1  0.63464549  0.16220871  0.35234726  1  0  0.115273  0  0.927261  0  0  0.127762  0  0.980064  0  0  0.131389  0  0.978569  0  0  0.109661  0.125232  0  0.98125  0
H  H34  1  0.35038882  0.99723247  0.90251966  1  0  0.102572  0  0.953813  0  0  0.110009  0  1.017865  0  0  0.113442  0  1.01482  0  0  0.105513  0.107541  0  1.020067  0
H  H35  1  0.64960696  0.00276741  0.09747786  1  0  0.102572  0  0.95377  0  0  0.110039  0  1.017795  0  0  0.113475  0  1.014746  0  0  0.105501  0.10757  0  1.019999  0
H  H36  1  0.07595181  0.96500928  0.14839447  1  0  0.101837  0  0.934134  0  0  0.112514  0  0.990486  0  0  0.116086  0  0.987671  0  0  0.10834  0.109942  0  0.992582  0
H  H37  1  0.92405307  0.03498535  0.85160535  1  0  0.101823  0  0.934129  0  0  0.112508  0  0.990471  0  0  0.116088  0  0.987648  0  0  0.10833  0.109933  0  0.99256  0
H  H38  1  0.89902125  0.78119275  0.70318658  1  0  0.105673  0  0.93936  0  0  0.117897  0  0.994956  0  0  0.120922  0  0.992766  0  0  0.109473  0.11581  0  0.996395  0
H  H39  1  0.10097495  0.21880635  0.29681771  1  0  0.105613  0  0.939468  0  0  0.117853  0  0.995051  0  0  0.120877  0  0.992861  0  0  0.109455  0.115768  0  0.996488  0
H  H40  1  0.58875876  0.69752650  0.57791719  1  0  0.104253  0  0.994685  0  0  0.109474  0  1.062701  0  0  0.112498  0  1.06158  0  0  0.109091  0.107106  0  1.064151  0
H  H41  1  0.41124330  0.30247933  0.42207974  1  0  0.104314  0  0.99457  0  0  0.109548  0  1.062588  0  0  0.112556  0  1.061496  0  0  0.10913  0.107184  0  1.064038  0
H  H42  1  0.27680966  0.20456982  0.01336430  1  0  0.402675  0  0.794977  0  0  0.389942  0  0.843395  0  0  0.399651  0  0.833087  0  0  0.346454  0.383032  0  0.850951  0
H  H43  1  0.72318548  0.79542925  0.98664504  1  0  0.40274  0  0.794966  0  0  0.389999  0  0.843395  0  0  0.399713  0  0.833079  0  0  0.346462  0.383093  0  0.850951  0
C  C44  1  0.44133787  0.55011260  0.64171776  1  0  0.732103  0  3.855314  0  0  0.684322  0  4.148289  0  0  0.72106  0  4.139957  0  0  0.236923  0.659718  0  4.155868  0
C  C45  1  0.55867853  0.44988127  0.35827883  1  0  0.732044  0  3.855479  0  0  0.684316  0  4.148357  0  0  0.721059  0  4.140024  0  0  0.236949  0.659724  0  4.155905  0
C  C46  1  0.29557661  0.34997600  0.59770498  1  0  0.658002  0  3.892322  0  0  0.607733  0  4.183728  0  0  0.641796  0  4.181265  0  0  0.206316  0.584173  0  4.188731  0
C  C47  1  0.70442346  0.65002683  0.40229487  1  0  0.658047  0  3.892229  0  0  0.607783  0  4.183624  0  0  0.641931  0  4.181097  0  0  0.206288  0.584236  0  4.188602  0
C  C48  1  0.38083948  0.59195152  0.72824484  1  0  -0.088388  0  3.753952  0  0  -0.068166  0  3.986949  0  0  -0.078121  0  4.010541  0  0  -0.021723  -0.061384  0  3.969878  0
C  C49  1  0.61916662  0.40804535  0.27175344  1  0  -0.088465  0  3.753956  0  0  -0.068224  0  3.986912  0  0  -0.078179  0  4.010499  0  0  -0.021756  -0.061444  0  3.969826  0
C  C50  1  0.32056716  0.24971889  0.63825555  1  0  -0.098058  0  3.788618  0  0  -0.078093  0  4.027475  0  0  -0.08837  0  4.05043  0  0  -0.031465  -0.071128  0  4.011295  0
C  C51  1  0.67942401  0.75028394  0.36174972  1  0  -0.098259  0  3.788796  0  0  -0.078359  0  4.027749  0  0  -0.088624  0  4.050659  0  0  -0.031573  -0.071381  0  4.011538  0
C  C52  1  0.48035430  0.57705540  0.78557116  1  0  -0.040461  0  3.7385  0  0  -0.063259  0  3.986027  0  0  -0.061766  0  4.006597  0  0  -0.075981  -0.063836  0  3.971517  0
C  C53  1  0.51964923  0.42293476  0.21442792  1  0  -0.040422  0  3.738492  0  0  -0.063229  0  3.986038  0  0  -0.061733  0  4.006607  0  0  -0.07595  -0.063816  0  3.971535  0
C  C54  1  0.22387417  0.64836526  0.75131779  1  0  -0.043993  0  3.723128  0  0  -0.065448  0  3.967839  0  0  -0.063949  0  3.987972  0  0  -0.078497  -0.065995  0  3.953507  0
C  C55  1  0.77613652  0.35163384  0.24867915  1  0  -0.043999  0  3.723047  0  0  -0.065472  0  3.967795  0  0  -0.06397  0  3.987921  0  0  -0.078508  -0.066022  0  3.953478  0
C  C56  1  0.22280892  0.23222076  0.71386078  1  0  -0.043713  0  3.757512  0  0  -0.067886  0  4.006564  0  0  -0.064462  0  4.025226  0  0  -0.081257  -0.069808  0  3.993519  0
C  C57  1  0.77718403  0.76778058  0.28614437  1  0  -0.043426  0  3.757176  0  0  -0.067665  0  4.006312  0  0  -0.064257  0  4.024978  0  0  -0.081187  -0.069584  0  3.993261  0
C  C58  1  0.44245909  0.16953206  0.59980820  1  0  -0.027097  0  3.757848  0  0  -0.050348  0  4.003814  0  0  -0.046249  0  4.022003  0  0  -0.07932  -0.052702  0  3.991003  0
C  C59  1  0.55753736  0.83047149  0.40019820  1  0  -0.026804  0  3.757634  0  0  -0.050092  0  4.003667  0  0  -0.045958  0  4.021805  0  0  -0.079189  -0.05244  0  3.990838  0
C  C60  1  0.42346889  0.61779281  0.86563130  1  0  -0.184229  0  3.762595  0  0  -0.205903  0  4.016547  0  0  -0.21221  0  4.03664  0  0  -0.099306  -0.201784  0  4.003057  0
C  C61  1  0.57653219  0.38220034  0.13436910  1  0  -0.184351  0  3.76253  0  0  -0.206019  0  4.016523  0  0  -0.212326  0  4.036616  0  0  -0.099333  -0.201896  0  4.003039  0
C  C62  1  0.16617064  0.69019058  0.83085934  1  0  -0.181033  0  3.740302  0  0  -0.200456  0  3.98863  0  0  -0.207272  0  4.009243  0  0  -0.099019  -0.195906  0  3.974746  0
C  C63  1  0.83383815  0.30980778  0.16913788  1  0  -0.180882  0  3.740297  0  0  -0.200299  0  3.988655  0  0  -0.207115  0  4.009273  0  0  -0.098952  -0.195754  0  3.974758  0
C  C64  1  0.24730730  0.13723082  0.75041453  1  0  -0.189303  0  3.744279  0  0  -0.211797  0  4.001284  0  0  -0.218885  0  4.020555  0  0  -0.103332  -0.207241  0  3.988387  0
C  C65  1  0.75267867  0.86277353  0.24958759  1  0  -0.189462  0  3.744539  0  0  -0.211961  0  4.001278  0  0  -0.219047  0  4.020548  0  0  -0.10343  -0.207402  0  3.988392  0
C  C66  1  0.46741626  0.07388491  0.63491053  1  0  -0.210919  0  3.778495  0  0  -0.228755  0  4.02517  0  0  -0.2369  0  4.045755  0  0  -0.109637  -0.223476  0  4.011334  0
C  C67  1  0.53257975  0.92611715  0.36509664  1  0  -0.210666  0  3.778184  0  0  -0.228619  0  4.024807  0  0  -0.236771  0  4.045388  0  0  -0.109555  -0.223326  0  4.010982  0
C  C68  1  0.26689805  0.67399595  0.88712819  1  0  0.270686  0  3.789589  0  0  0.26215  0  4.054251  0  0  0.272617  0  4.070817  0  0  0.081061  0.255077  0  4.04298  0
C  C69  1  0.73310973  0.32599718  0.11286952  1  0  0.270828  0  3.789369  0  0  0.262187  0  4.054096  0  0  0.272638  0  4.070675  0  0  0.081101  0.255116  0  4.042823  0
C  C70  1  0.36958260  0.05798505  0.71057719  1  0  0.300385  0  3.783802  0  0  0.288817  0  4.044985  0  0  0.302077  0  4.059654  0  0  0.094871  0.279831  0  4.034961  0
C  C71  1  0.63040608  0.94202078  0.28942634  1  0  0.299562  0  3.784901  0  0  0.2888  0  4.045252  0  0  0.302072  0  4.059916  0  0  0.094902  0.279798  0  4.035261  0
C  C72  1  0.21137660  0.80408740  0.98471515  1  0  0.307033  0  3.780655  0  0  0.295572  0  4.043052  0  0  0.309327  0  4.057521  0  0  0.096252  0.286287  0  4.033077  0
C  C73  1  0.78863073  0.19591171  0.01528220  1  0  0.30735  0  3.780771  0  0  0.295562  0  4.043536  0  0  0.309315  0  4.058005  0  0  0.09625  0.286266  0  4.033568  0
C  C74  1  0.51086306  0.88658739  0.71229897  1  0  0.261157  0  3.801919  0  0  0.252297  0  4.06663  0  0  0.262667  0  4.082787  0  0  0.08057  0.245309  0  4.055564  0
C  C75  1  0.48913176  0.11341471  0.28770221  1  0  0.26046  0  3.802775  0  0  0.252347  0  4.066673  0  0  0.262731  0  4.082819  0  0  0.080589  0.245349  0  4.055595  0
C  C76  1  0.28855421  0.86055110  0.92582243  1  0  -0.208701  0  3.753891  0  0  -0.229722  0  4.011525  0  0  -0.238143  0  4.031876  0  0  -0.110023  -0.224281  0  3.997904  0
C  C77  1  0.71145209  0.13945025  0.07417305  1  0  -0.208925  0  3.754199  0  0  -0.229805  0  4.011797  0  0  -0.23824  0  4.032145  0  0  -0.110069  -0.224359  0  3.998186  0
C  C78  1  0.13471624  0.84128488  0.06521374  1  0  -0.191368  0  3.751885  0  0  -0.214422  0  4.01038  0  0  -0.222342  0  4.030236  0  0  -0.10406  -0.209328  0  3.997012  0
C  C79  1  0.86528845  0.15871272  0.93478775  1  0  -0.191414  0  3.751486  0  0  -0.214423  0  4.010095  0  0  -0.222353  0  4.029957  0  0  -0.104077  -0.209316  0  3.996713  0
C  C80  1  0.65842934  0.87076439  0.73057897  1  0  -0.176627  0  3.742171  0  0  -0.199728  0  3.997068  0  0  -0.205605  0  4.016469  0  0  -0.096054  -0.195855  0  3.983988  0
C  C81  1  0.34156438  0.12923770  0.26942419  1  0  -0.176581  0  3.742315  0  0  -0.199722  0  3.997061  0  0  -0.205608  0  4.016467  0  0  -0.096104  -0.195841  0  3.98395  0
C  C82  1  0.48305371  0.82420619  0.65901498  1  0  -0.177457  0  3.755523  0  0  -0.199942  0  4.013612  0  0  -0.206088  0  4.033532  0  0  -0.096926  -0.19585  0  4.000027  0
C  C83  1  0.51694568  0.17579814  0.34098362  1  0  -0.177558  0  3.755774  0  0  -0.200019  0  4.013657  0  0  -0.206165  0  4.033572  0  0  -0.096945  -0.195915  0  4.000055  0
C  C84  1  0.28975379  0.95365581  0.94809808  1  0  -0.023311  0  3.736578  0  0  -0.052427  0  3.99437  0  0  -0.047697  0  4.012694  0  0  -0.080256  -0.05532  0  3.981826  0
C  C85  1  0.71024537  0.04634406  0.05190025  1  0  -0.023445  0  3.736658  0  0  -0.052506  0  3.99434  0  0  -0.047776  0  4.012667  0  0  -0.080231  -0.055399  0  3.9818  0
C  C86  1  0.13592195  0.93449740  0.08652462  1  0  -0.034748  0  3.756988  0  0  -0.058541  0  4.00597  0  0  -0.055137  0  4.026756  0  0  -0.077481  -0.060502  0  3.991709  0
C  C87  1  0.86407657  0.06549649  0.91347666  1  0  -0.034822  0  3.756842  0  0  -0.058641  0  4.005875  0  0  -0.055242  0  4.026658  0  0  -0.07751  -0.060618  0  3.991602  0
C  C88  1  0.78233656  0.79351993  0.69091558  1  0  -0.037642  0  3.723916  0  0  -0.060956  0  3.968017  0  0  -0.058924  0  3.987646  0  0  -0.07622  -0.061908  0  3.954236  0
C  C89  1  0.21765715  0.20648216  0.30908757  1  0  -0.037479  0  3.723901  0  0  -0.060874  0  3.968125  0  0  -0.058843  0  3.987756  0  0  -0.076136  -0.061819  0  3.954338  0
C  C90  1  0.60723180  0.74609646  0.62091278  1  0  -0.046602  0  3.733747  0  0  -0.072124  0  3.987374  0  0  -0.07118  0  4.008903  0  0  -0.078237  -0.072336  0  3.972229  0
C  C91  1  0.39276612  0.25390863  0.37908534  1  0  -0.046502  0  3.733531  0  0  -0.072103  0  3.987255  0  0  -0.071162  0  4.008794  0  0  -0.078218  -0.072316  0  3.972117  0
C  C92  1  0.21382931  0.99180172  0.02821938  1  0  -0.114134  0  3.81482  0  0  -0.095326  0  4.055073  0  0  -0.108597  0  4.082518  0  0  -0.03418  -0.08662  0  4.036497  0
C  C93  1  0.78616930  0.00819441  0.97178051  1  0  -0.113967  0  3.814824  0  0  -0.095157  0  4.055154  0  0  -0.108429  0  4.082605  0  0  -0.034146  -0.086443  0  4.036564  0
C  C94  1  0.75821176  0.73157149  0.63492053  1  0  -0.077903  0  3.743521  0  0  -0.055387  0  3.972824  0  0  -0.064668  0  3.995294  0  0  -0.018082  -0.049033  0  3.95651  0
C  C95  1  0.24178539  0.26843285  0.36507835  1  0  -0.07785  0  3.743394  0  0  -0.05546  0  3.972901  0  0  -0.064737  0  3.995371  0  0  -0.018071  -0.049086  0  3.956613  0
C  C96  1  0.21321288  0.09019748  0.05309383  1  0  0.636307  0  3.834865  0  0  0.588619  0  4.13976  0  0  0.622143  0  4.131141  0  0  0.225359  0.565784  0  4.145216  0
C  C97  1  0.78678353  0.90979864  0.94691002  1  0  0.636328  0  3.834586  0  0  0.588524  0  4.139677  0  0  0.622045  0  4.131066  0  0  0.22532  0.565688  0  4.145128  0
C  C98  1  0.89330253  0.65304449  0.58847874  1  0  0.708751  0  3.879632  0  0  0.66513  0  4.164823  0  0  0.701254  0  4.158967  0  0  0.227598  0.640766  0  4.172009  0
C  C99  1  0.10669985  0.34696060  0.41151697  1  0  0.708896  0  3.879752  0  0  0.665323  0  4.164906  0  0  0.701439  0  4.159055  0  0  0.227641  0.640943  0  4.172133  0
O  O100  1  0.34656969  0.56888133  0.59194335  1  0  -0.769913  0  2.14697  0  0  -0.720226  0  2.418917  0  0  -0.756485  0  2.40384  0  0  -0.421821  -0.702192  0  2.427376  0
O  O101  1  0.65342439  0.43112229  0.40805289  1  0  -0.769739  0  2.14735  0  0  -0.720116  0  2.419334  0  0  -0.756407  0  2.40429  0  0  -0.421722  -0.702121  0  2.427809  0
O  O102  1  0.28467223  0.69468216  0.46021940  1  0  -0.866683  0  1.820363  0  0  -0.821576  0  1.991823  0  0  -0.846748  0  1.960903  0  0  -0.615848  -0.80857  0  2.01087  0
O  O103  1  0.71532773  0.30531844  0.53978000  1  0  -0.866702  0  1.820343  0  0  -0.821593  0  1.991797  0  0  -0.84648  0  1.961195  0  0  -0.615812  -0.80857  0  2.01085  0
O  O104  1  0.03074319  0.65973511  0.58311432  1  0  -0.719464  0  2.009838  0  0  -0.672739  0  2.25229  0  0  -0.705049  0  2.237572  0  0  -0.381968  -0.655872  0  2.260718  0
O  O105  1  0.96926175  0.34027670  0.41687876  1  0  -0.719536  0  2.010094  0  0  -0.672812  0  2.25252  0  0  -0.70512  0  2.237812  0  0  -0.381869  -0.655796  0  2.260902  0
O  O106  1  0.09498188  0.61962104  0.38913526  1  0  -0.903921  0  1.863093  0  0  -0.859126  0  2.043736  0  0  -0.885233  0  2.006707  0  0  -0.638146  -0.846431  0  2.065178  0
O  O107  1  0.90502485  0.38038181  0.61085884  1  0  -0.903934  0  1.863066  0  0  -0.859142  0  2.043755  0  0  -0.885257  0  2.006746  0  0  -0.638201  -0.846439  0  2.065185  0
O  O108  1  0.16479392  0.41797487  0.61831560  1  0  -0.695043  0  2.005188  0  0  -0.638818  0  2.230562  0  0  -0.670728  0  2.219353  0  0  -0.357554  -0.621299  0  2.237237  0
O  O109  1  0.83520247  0.58202871  0.38168589  1  0  -0.695014  0  2.005304  0  0  -0.638762  0  2.230669  0  0  -0.670664  0  2.219423  0  0  -0.357487  -0.621245  0  2.237337  0
O  O110  1  0.41569086  0.50001099  0.37828332  1  0  -0.729218  0  2.033095  0  0  -0.680335  0  2.290741  0  0  -0.715599  0  2.274167  0  0  -0.410819  -0.662717  0  2.299117  0
O  O111  1  0.58431098  0.49998291  0.62171447  1  0  -0.729134  0  2.033499  0  0  -0.680236  0  2.291167  0  0  -0.715521  0  2.274636  0  0  -0.410708  -0.662632  0  2.299567  0
O  O112  1  0.40306448  0.36855981  0.53937919  1  0  -0.705068  0  2.078591  0  0  -0.648503  0  2.317768  0  0  -0.680363  0  2.308738  0  0  -0.34574  -0.63097  0  2.324129  0
O  O113  1  0.59693259  0.63144227  0.46062293  1  0  -0.705112  0  2.078508  0  0  -0.648564  0  2.317717  0  0  -0.680575  0  2.308757  0  0  -0.345794  -0.63108  0  2.324077  0
O  O114  1  0.13064266  0.41769516  0.44617056  1  0  -0.792743  0  2.112875  0  0  -0.739047  0  2.374203  0  0  -0.779543  0  2.362033  0  0  -0.410902  -0.720326  0  2.381377  0
O  O115  1  0.86936345  0.58230916  0.55382782  1  0  -0.792643  0  2.112836  0  0  -0.738931  0  2.374171  0  0  -0.779423  0  2.361991  0  0  -0.410914  -0.720273  0  2.381359  0
O  O116  1  0.20582076  0.71107883  0.96875842  1  0  -0.299731  0  2.312396  0  0  -0.237027  0  2.533574  0  0  -0.254006  0  2.532428  0  0  -0.158111  -0.224775  0  2.53381  0
O  O117  1  0.79418732  0.28891357  0.03123623  1  0  -0.299858  0  2.312345  0  0  -0.236954  0  2.533558  0  0  -0.25391  0  2.532392  0  0  -0.158095  -0.224701  0  2.533794  0
O  O118  1  0.38611328  0.96576748  0.74940703  1  0  -0.301911  0  2.348881  0  0  -0.231507  0  2.572344  0  0  -0.249804  0  2.57348  0  0  -0.150498  -0.218395  0  2.570999  0
O  O119  1  0.61387430  0.03423089  0.25059900  1  0  -0.301101  0  2.34929  0  0  -0.231441  0  2.572629  0  0  -0.249754  0  2.573772  0  0  -0.150402  -0.218307  0  2.571278  0
O  O120  1  0.15810251  0.12538456  0.12383856  1  0  -0.557169  0  1.937632  0  0  -0.520786  0  2.152221  0  0  -0.540248  0  2.142125  0  0  -0.2908  -0.507475  0  2.158976  0
O  O121  1  0.84188782  0.87461010  0.87616247  1  0  -0.557265  0  1.937402  0  0  -0.52083  0  2.152038  0  0  -0.540294  0  2.141948  0  0  -0.29081  -0.507487  0  2.158782  0
O  O122  1  0.28142695  0.14202578  0.98904859  1  0  -0.544524  0  2.026384  0  0  -0.500264  0  2.218936  0  0  -0.519096  0  2.203432  0  0  -0.340041  -0.487093  0  2.229508  0
O  O123  1  0.71857935  0.85797328  0.01095689  1  0  -0.544545  0  2.026352  0  0  -0.500252  0  2.218942  0  0  -0.519087  0  2.203442  0  0  -0.339996  -0.487079  0  2.229511  0
