# generated using pymatgen
data_SmH7C11N3O7
_symmetry_space_group_name_H-M   'P 1'
_cell_length_a   6.79540226
_cell_length_b   14.55679427
_cell_length_c   14.84102017
_cell_angle_alpha   69.84102922
_cell_angle_beta   76.80958809
_cell_angle_gamma   76.54742427
_symmetry_Int_Tables_number   1
_chemical_formula_structural   SmH7C11N3O7
_chemical_formula_sum   'Sm4 H28 C44 N12 O28'
_cell_volume   1322.58620898
_cell_formula_units_Z   4
loop_
 _symmetry_equiv_pos_site_id
 _symmetry_equiv_pos_as_xyz
  1  'x, y, z'
loop_
 _atom_site_type_symbol
 _atom_site_label
 _atom_site_symmetry_multiplicity
 _atom_site_fract_x
 _atom_site_fract_y
 _atom_site_fract_z
 _atom_site_occupancy
 _atom_site_pbe_bader_charge
 _atom_site_pbe_bader_spin_density
 _atom_site_pbe_cm5_charge
 _atom_site_pbe_ddec_charge
 _atom_site_pbe_ddec_spin_density
 _atom_site_pbe_ddec_sum_bond_order
 _atom_site_pbe_magmom
Sm  Sm0  1  0.68110147  0.55625199  0.85962974  1  2.221452  0  1.497626  2.070157  0  2.098691  0
Sm  Sm1  1  0.09716611  0.94377607  0.64040971  1  2.224976  0  1.49684  2.070073  0  2.097741  0
Sm  Sm2  1  0.31890376  0.44374771  0.14036738  1  2.221468  0  1.49757  2.070165  0  2.098759  0
Sm  Sm3  1  0.90283770  0.05622367  0.35959227  1  2.224999  0  1.496827  2.070031  0  2.097676  0
H  H4  1  0.26127570  0.61085065  0.89584822  1  0.602587  0  0.316458  0.396038  0  0.921751  0
H  H5  1  0.76789422  0.88921574  0.60414349  1  0.638404  0  0.316629  0.396268  0  0.921328  0
H  H6  1  0.73873039  0.38914685  0.10415361  1  0.602826  0  0.316434  0.395988  0  0.921874  0
H  H7  1  0.23210878  0.11078621  0.39585580  1  0.638389  0  0.316594  0.39619  0  0.921381  0
H  H8  1  0.20462055  0.57976241  0.81427777  1  0.641236  0  0.309657  0.416934  0  0.905806  0
H  H9  1  0.59895771  0.92017805  0.68578573  1  0.652414  0  0.30994  0.418104  0  0.904001  0
H  H10  1  0.79539334  0.42023434  0.18572280  1  0.641131  0  0.309646  0.416923  0  0.905847  0
H  H11  1  0.40104706  0.07982316  0.31421362  1  0.652724  0  0.309921  0.418097  0  0.904014  0
H  H12  1  0.31527092  0.97331925  0.85894840  1  0.492771  0  0.342239  0.301735  0  0.898835  0
H  H13  1  0.14731784  0.52659820  0.64109407  1  0.494884  0  0.342028  0.30121  0  0.899527  0
H  H14  1  0.68471996  0.02668270  0.14105086  1  0.492789  0  0.342306  0.301807  0  0.898786  0
H  H15  1  0.85267561  0.47340079  0.35890728  1  0.49492  0  0.342024  0.301237  0  0.899482  0
H  H16  1  0.29199322  0.10612228  0.90314155  1  0.107889  0  0.116459  0.115529  0  0.97072  0
H  H17  1  0.30080418  0.39387454  0.59692742  1  0.067427  0  0.116352  0.115363  0  0.970394  0
H  H18  1  0.70799996  0.89387744  0.09685890  1  0.107731  0  0.116464  0.115566  0  0.9707  0
H  H19  1  0.69918671  0.60612741  0.40307251  1  0.067426  0  0.116367  0.115353  0  0.970397  0
H  H20  1  0.13863614  0.91712327  0.19834534  1  0.17688  0  0.1281  0.114439  0  1.012772  0
H  H21  1  0.25484942  0.58288591  0.30163691  1  0.177642  0  0.1283  0.114585  0  1.013751  0
H  H22  1  0.86135621  0.08287866  0.80165174  1  0.177028  0  0.12807  0.114418  0  1.012766  0
H  H23  1  0.74513868  0.41711530  0.69836224  1  0.17727  0  0.128332  0.114622  0  1.013738  0
H  H24  1  0.17534787  0.25150936  0.96637155  1  0.133321  0  0.117706  0.138281  0  0.98627  0
H  H25  1  0.39305018  0.24850526  0.53366629  1  0.13733  0  0.11758  0.138588  0  0.985351  0
H  H26  1  0.82465316  0.74848963  0.03363032  1  0.133302  0  0.117689  0.138252  0  0.986285  0
H  H27  1  0.60695255  0.75149743  0.46633210  1  0.137287  0  0.117574  0.138597  0  0.985368  0
H  H28  1  0.04988703  0.22241169  0.14307777  1  0.122364  0  0.121757  0.090801  0  1.032074  0
H  H29  1  0.41548675  0.27758555  0.35690260  1  0.137903  0  0.121884  0.090939  0  1.032302  0
H  H30  1  0.95011526  0.77758804  0.85692371  1  0.122388  0  0.121718  0.090734  0  1.032139  0
H  H31  1  0.58451874  0.72241788  0.64309523  1  0.137855  0  0.121869  0.090951  0  1.032279  0
C  C32  1  0.95775948  0.54969728  0.01190403  1  1.57324  0  0.203842  0.483263  0  4.280921  0
C  C33  1  0.51911507  0.95028568  0.48812601  1  1.602818  0  0.203433  0.48242  0  4.282459  0
C  C34  1  0.04223951  0.45030237  0.98808368  1  1.598618  0  0.203895  0.483392  0  4.281035  0
C  C35  1  0.48089702  0.04971180  0.51187315  1  1.578919  0  0.203345  0.482253  0  4.282646  0
C  C36  1  0.38262054  0.64948573  0.05346551  1  1.604636  0  0.219326  0.619613  0  4.16884  0
C  C37  1  0.08511542  0.85045469  0.44662292  1  1.600722  0  0.219673  0.620935  0  4.17111  0
C  C38  1  0.61738772  0.35051398  0.94653195  1  1.604809  0  0.219223  0.619508  0  4.169115  0
C  C39  1  0.91489217  0.14954727  0.55337856  1  1.60069  0  0.219653  0.620847  0  4.171253  0
C  C40  1  0.43361610  0.80653308  0.81658009  1  1.600758  0  0.240967  0.630908  0  4.185841  0
C  C41  1  0.05645662  0.69339469  0.68352017  1  1.595398  0  0.241544  0.63162  0  4.181217  0
C  C42  1  0.56639698  0.19346143  0.18341796  1  1.600675  0  0.241079  0.631007  0  4.18553  0
C  C43  1  0.94354765  0.30660354  0.31647958  1  1.595254  0  0.241542  0.631662  0  4.181205  0
C  C44  1  0.36623892  0.75845872  0.01266338  1  0.481377  0  0.099238  0.030867  0  3.952462  0
C  C45  1  0.13697978  0.74149080  0.48744985  1  0.488849  0  0.098942  0.029666  0  3.954789  0
C  C46  1  0.63376364  0.24154027  0.98733899  1  0.481198  0  0.099217  0.030907  0  3.952398  0
C  C47  1  0.86302002  0.25850745  0.51255308  1  0.488981  0  0.098957  0.029647  0  3.954825  0
C  C48  1  0.38186112  0.81836775  0.91490958  1  0.387554  0  0.0977  -0.003334  0  3.898003  0
C  C49  1  0.11485053  0.68156402  0.58519739  1  0.359975  0  0.096976  -0.003383  0  3.897444  0
C  C50  1  0.61813735  0.18162974  0.08509038  1  0.387523  0  0.097757  -0.003318  0  3.898033  0
C  C51  1  0.88515319  0.31843569  0.41479990  1  0.359867  0  0.096965  -0.0034  0  3.897371  0
C  C52  1  0.28432953  0.91058438  0.01510345  1  0.990704  0  0.21675  0.275301  0  4.081246  0
C  C53  1  0.20988694  0.58938512  0.48496290  1  0.987812  0  0.216594  0.274856  0  4.082114  0
C  C54  1  0.71566011  0.08941683  0.98489687  1  0.990556  0  0.216885  0.275428  0  4.08112  0
C  C55  1  0.79010169  0.41061460  0.51503737  1  0.987945  0  0.2166  0.274987  0  4.081898  0
C  C56  1  0.22250655  0.99907755  0.04623785  1  -0.037456  0  -0.008328  -0.039667  0  4.037873  0
C  C57  1  0.26797370  0.50090302  0.45377907  1  -0.025967  0  -0.008375  -0.040922  0  4.037502  0
C  C58  1  0.77748435  0.00092440  0.95376207  1  -0.037973  0  -0.008394  -0.039698  0  4.037854  0
C  C59  1  0.73201468  0.49909744  0.54622164  1  -0.025931  0  -0.008381  -0.040906  0  4.037405  0
C  C60  1  0.23232134  0.09461807  0.98026584  1  -0.081841  0  -0.066354  -0.071389  0  3.934258  0
C  C61  1  0.30709676  0.40537443  0.51977591  1  -0.039412  0  -0.06556  -0.069078  0  3.933215  0
C  C62  1  0.76767160  0.90538240  0.01973506  1  -0.080933  0  -0.066336  -0.071454  0  3.934213  0
C  C63  1  0.69289589  0.59462677  0.48022341  1  -0.039523  0  -0.065533  -0.06903  0  3.933089  0
C  C64  1  0.14752413  0.99009589  0.14477936  1  0.457613  0  0.053661  0.065394  0  3.900529  0
C  C65  1  0.28292563  0.50988972  0.35519700  1  0.454251  0  0.054011  0.06663  0  3.899334  0
C  C66  1  0.85247559  0.00990234  0.85522021  1  0.457738  0  0.053689  0.06536  0  3.900614  0
C  C67  1  0.71706376  0.49011224  0.64480309  1  0.454689  0  0.053952  0.066505  0  3.899488  0
C  C68  1  0.16917790  0.17611085  0.01447035  1  0.001831  0  -0.074745  -0.096224  0  3.933088  0
C  C69  1  0.35965079  0.32390112  0.48553707  1  0.046123  0  -0.07548  -0.099145  0  3.932679  0
C  C70  1  0.83081682  0.82388888  0.98553128  1  0.001668  0  -0.074748  -0.096213  0  3.933056  0
C  C71  1  0.64034489  0.67610008  0.51446193  1  0.046142  0  -0.075501  -0.099191  0  3.932794  0
C  C72  1  0.09743472  0.16036156  0.11343902  1  0.471522  0  0.047797  0.092514  0  3.95017  0
C  C73  1  0.37140974  0.33965243  0.38651845  1  0.399287  0  0.047917  0.093533  0  3.949905  0
C  C74  1  0.90256250  0.83963966  0.88656182  1  0.471558  0  0.047834  0.092579  0  3.950157  0
C  C75  1  0.62858693  0.66035026  0.61347992  1  0.399453  0  0.047866  0.093495  0  3.950009  0
N  N76  1  0.08507883  0.06915842  0.17773529  1  -1.232009  0  -0.375184  -0.354781  0  3.510779  0
N  N77  1  0.33250971  0.43084047  0.32220683  1  -1.229814  0  -0.375822  -0.355618  0  3.511978  0
N  N78  1  0.91491516  0.93084355  0.82226767  1  -1.232272  0  -0.375139  -0.354685  0  3.510832  0
N  N79  1  0.66748368  0.56916296  0.67779164  1  -1.229946  0  -0.375733  -0.355541  0  3.511973  0
N  N80  1  0.30544243  0.81677717  0.07281829  1  -1.121414  0  -0.320528  -0.344104  0  3.181566  0
N  N81  1  0.19474223  0.68319632  0.42727249  1  -1.123777  0  -0.320199  -0.343448  0  3.184165  0
N  N82  1  0.69454998  0.18322478  0.92718148  1  -1.121312  0  -0.320557  -0.344126  0  3.181503  0
N  N83  1  0.80525271  0.31680266  0.57272735  1  -1.12382  0  -0.320213  -0.343465  0  3.18414  0
N  N84  1  0.32752571  0.91367958  0.91963381  1  -1.245387  0  -0.371813  -0.278317  0  3.674625  0
N  N85  1  0.16064611  0.58625894  0.58044385  1  -1.220395  0  -0.370836  -0.277191  0  3.674594  0
N  N86  1  0.67246771  0.08631939  0.08036619  1  -1.245272  0  -0.371982  -0.278504  0  3.674692  0
N  N87  1  0.83934582  0.41374005  0.41955766  1  -1.220433  0  -0.370804  -0.277284  0  3.674606  0
O  O88  1  0.83267939  0.61222036  0.95997412  1  -1.188129  0  -0.375398  -0.598491  0  2.338108  0
O  O89  1  0.40454355  0.88779396  0.54010342  1  -1.187412  0  -0.375179  -0.598373  0  2.340808  0
O  O90  1  0.16731582  0.38777342  0.04002681  1  -1.188415  0  -0.375411  -0.598606  0  2.337792  0
O  O91  1  0.59546102  0.11220354  0.45989858  1  -1.187431  0  -0.37512  -0.59825  0  2.34104  0
O  O92  1  0.42309495  0.59625464  0.99527369  1  -1.197828  0  -0.423155  -0.743945  0  2.441818  0
O  O93  1  0.01427753  0.90372377  0.50476854  1  -1.200227  0  -0.423015  -0.744696  0  2.443776  0
O  O94  1  0.57690858  0.40374583  0.00472672  1  -1.197906  0  -0.423126  -0.743869  0  2.441696  0
O  O95  1  0.98573060  0.09627671  0.49523473  1  -1.200137  0  -0.423098  -0.744805  0  2.443846  0
O  O96  1  0.54576945  0.72953893  0.80145332  1  -1.190933  0  -0.375168  -0.621717  0  2.310116  0
O  O97  1  0.07650320  0.77042277  0.69869330  1  -1.186527  0  -0.375529  -0.622542  0  2.310037  0
O  O98  1  0.45423350  0.27046300  0.19854329  1  -1.190737  0  -0.3753  -0.621854  0  2.309809  0
O  O99  1  0.92349779  0.22958067  0.30130636  1  -1.186513  0  -0.375495  -0.622494  0  2.31013  0
O  O100  1  0.31467400  0.57096774  0.85167229  1  -1.228213  0  -0.627156  -0.829102  0  2.105923  0
O  O101  1  0.73750475  0.92899917  0.64840934  1  -1.274335  0  -0.627486  -0.830143  0  2.102693  0
O  O102  1  0.68533261  0.42902828  0.14833067  1  -1.228394  0  -0.627125  -0.829032  0  2.105957  0
O  O103  1  0.26249903  0.07100056  0.35159130  1  -1.27456  0  -0.62744  -0.830035  0  2.102656  0
O  O104  1  0.02401236  0.56137773  0.07968178  1  -1.176764  0  -0.382104  -0.597126  0  2.285036  0
O  O105  1  0.66448910  0.93858901  0.42033766  1  -1.186729  0  -0.381855  -0.596198  0  2.283035  0
O  O106  1  0.97599291  0.43861753  0.92031687  1  -1.177233  0  -0.382099  -0.597089  0  2.285488  0
O  O107  1  0.33551697  0.06140849  0.57966350  1  -1.186622  0  -0.381854  -0.596191  0  2.28298  0
O  O108  1  0.34448584  0.60922479  0.14415233  1  -1.165502  0  -0.352671  -0.57733  0  2.205293  0
O  O109  1  0.09728770  0.89068500  0.35593266  1  -1.167562  0  -0.352616  -0.577782  0  2.205122  0
O  O110  1  0.65552514  0.39077200  0.85585460  1  -1.165616  0  -0.352596  -0.577249  0  2.205682  0
O  O111  1  0.90272468  0.10931622  0.64406855  1  -1.167571  0  -0.352526  -0.577619  0  2.20519  0
O  O112  1  0.36499798  0.88308168  0.74895539  1  -1.215562  0  -0.37652  -0.686196  0  2.287802  0
O  O113  1  0.99684529  0.61681643  0.75111496  1  -1.211249  0  -0.376833  -0.686359  0  2.284368  0
O  O114  1  0.63500252  0.11691879  0.25104535  1  -1.215613  0  -0.376526  -0.68621  0  2.287876  0
O  O115  1  0.00316428  0.38318403  0.24888412  1  -1.211156  0  -0.376842  -0.686357  0  2.28421  0
