# generated using pymatgen
data_CrH9C8NO4
_symmetry_space_group_name_H-M   'P 1'
_cell_length_a   7.19738557
_cell_length_b   8.01718758
_cell_length_c   8.39463279
_cell_angle_alpha   103.92456768
_cell_angle_beta   99.35664617
_cell_angle_gamma   101.37727977
_symmetry_Int_Tables_number   1
_chemical_formula_structural   CrH9C8NO4
_chemical_formula_sum   'Cr2 H18 C16 N2 O8'
_cell_volume   449.54963860
_cell_formula_units_Z   2
loop_
 _symmetry_equiv_pos_site_id
 _symmetry_equiv_pos_as_xyz
  1  'x, y, z'
loop_
 _atom_site_type_symbol
 _atom_site_label
 _atom_site_symmetry_multiplicity
 _atom_site_fract_x
 _atom_site_fract_y
 _atom_site_fract_z
 _atom_site_occupancy
 _atom_site_hle17_bader_spin_density
 _atom_site_hle17_ddec_charge
 _atom_site_hle17_ddec_spin_density
 _atom_site_hle17_ddec_sum_bond_order
 _atom_site_hle17_magmom
 _atom_site_hse06_10hf_bader_spin_density
 _atom_site_hse06_10hf_ddec_charge
 _atom_site_hse06_10hf_ddec_spin_density
 _atom_site_hse06_10hf_ddec_sum_bond_order
 _atom_site_hse06_10hf_magmom
 _atom_site_hse06_bader_spin_density
 _atom_site_hse06_ddec_charge
 _atom_site_hse06_ddec_spin_density
 _atom_site_hse06_ddec_sum_bond_order
 _atom_site_hse06_magmom
 _atom_site_pbe_bader_spin_density
 _atom_site_pbe_cm5_charge
 _atom_site_pbe_ddec_charge
 _atom_site_pbe_ddec_spin_density
 _atom_site_pbe_ddec_sum_bond_order
 _atom_site_pbe_magmom
Cr  Cr0  1  0.40113706  0.92071471  0.41202976  1  0  0.920048  0  2.869434  0  0  0.878231  0  3.381339  0  0  0.916327  0  3.368401  0  0  0.727788  0.850427  0  3.393816  0
Cr  Cr1  1  0.59884882  0.07927941  0.58796631  1  0  0.91905  0  2.869838  0  0  0.87715  0  3.381842  0  0  0.915363  0  3.368869  0  0  0.727566  0.849954  0  3.394132  0
H  H2  1  0.95436067  0.87617343  0.28953290  1  0  0.082901  0  0.947924  0  0  0.091415  0  1.010601  0  0  0.094803  0  1.00732  0  0  0.118198  0.088893  0  1.013081  0
H  H3  1  0.04564001  0.12382899  0.71044574  1  0  0.082969  0  0.947899  0  0  0.091494  0  1.010545  0  0  0.09488  0  1.007271  0  0  0.118279  0.088973  0  1.013022  0
H  H4  1  0.71581076  0.48775228  0.40580901  1  0  0.140075  0  0.941648  0  0  0.159612  0  0.996455  0  0  0.161926  0  0.995789  0  0  0.097688  0.157917  0  0.99703  0
H  H5  1  0.28417766  0.51224553  0.59420379  1  0  0.140096  0  0.941578  0  0  0.15964  0  0.996395  0  0  0.161938  0  0.995746  0  0  0.097708  0.157947  0  0.996969  0
H  H6  1  0.93862850  0.65352119  0.51000406  1  0  0.154695  0  0.960949  0  0  0.170967  0  1.022588  0  0  0.174287  0  1.021507  0  0  0.102091  0.168546  0  1.023487  0
H  H7  1  0.06136627  0.34648508  0.48998308  1  0  0.154656  0  0.9611  0  0  0.170938  0  1.022731  0  0  0.174262  0  1.021644  0  0  0.102119  0.168521  0  1.02362  0
H  H8  1  0.78062887  0.56612523  0.62828280  1  0  0.150346  0  0.93653  0  0  0.167168  0  0.998241  0  0  0.169978  0  0.997267  0  0  0.103413  0.165152  0  0.998994  0
H  H9  1  0.21937833  0.43389002  0.37172251  1  0  0.150222  0  0.936527  0  0  0.167111  0  0.998199  0  0  0.169921  0  0.997227  0  0  0.10338  0.16509  0  0.99896  0
H  H10  1  0.71258640  0.08113173  0.02504112  1  0  0.158808  0  0.950339  0  0  0.173338  0  1.011033  0  0  0.177071  0  1.00874  0  0  0.100757  0.170648  0  1.012741  0
H  H11  1  0.28743760  0.91887263  0.97497450  1  0  0.158763  0  0.950522  0  0  0.17333  0  1.011159  0  0  0.177061  0  1.008866  0  0  0.100735  0.170631  0  1.012878  0
H  H12  1  0.81718137  0.29144633  0.17755356  1  0  0.135911  0  0.947948  0  0  0.153226  0  1.009172  0  0  0.155036  0  1.01028  0  0  0.098896  0.151878  0  1.008514  0
H  H13  1  0.18282618  0.70856463  0.82246742  1  0  0.135938  0  0.947943  0  0  0.153285  0  1.009109  0  0  0.155087  0  1.010223  0  0  0.098928  0.151938  0  1.008449  0
H  H14  1  0.93793647  0.12005540  0.17445727  1  0  0.150888  0  0.937023  0  0  0.167231  0  0.998561  0  0  0.170326  0  0.997539  0  0  0.103772  0.164977  0  0.999372  0
H  H15  1  0.06209297  0.87996335  0.82557333  1  0  0.150803  0  0.937144  0  0  0.167166  0  0.998664  0  0  0.170256  0  0.997645  0  0  0.103731  0.164914  0  0.999471  0
H  H16  1  0.38702594  0.54522047  0.14815532  1  0  0.119137  0  0.97528  0  0  0.128152  0  1.038828  0  0  0.132458  0  1.035319  0  0  0.113142  0.12492  0  1.041576  0
H  H17  1  0.61297533  0.45476850  0.85182962  1  0  0.119202  0  0.975193  0  0  0.128135  0  1.038838  0  0  0.13249  0  1.035261  0  0  0.113096  0.1249  0  1.041587  0
H  H18  1  0.63722517  0.73203147  0.08450129  1  0  0.112582  0  0.965828  0  0  0.123183  0  1.022445  0  0  0.126693  0  1.021699  0  0  0.108891  0.120629  0  1.02316  0
H  H19  1  0.36277271  0.26797090  0.91548054  1  0  0.112621  0  0.965746  0  0  0.123204  0  1.022391  0  0  0.126716  0  1.021651  0  0  0.108892  0.120649  0  1.023107  0
C  C20  1  0.68222224  0.74878509  0.50843099  1  0  0.722528  0  3.769567  0  0  0.682898  0  4.071636  0  0  0.720431  0  4.061388  0  0  0.209584  0.657449  0  4.07749  0
C  C21  1  0.31776259  0.25121045  0.49156052  1  0  0.722281  0  3.769589  0  0  0.682687  0  4.07163  0  0  0.720225  0  4.061382  0  0  0.209538  0.657234  0  4.077482  0
C  C22  1  0.68583696  0.09093595  0.27864343  1  0  0.713696  0  3.773728  0  0  0.673844  0  4.076887  0  0  0.711315  0  4.066563  0  0  0.207601  0.648436  0  4.082816  0
C  C23  1  0.31415990  0.90906182  0.72137049  1  0  0.713633  0  3.774256  0  0  0.673764  0  4.077423  0  0  0.711234  0  4.067107  0  0  0.207463  0.648357  0  4.083348  0
C  C24  1  0.08795074  0.54657809  0.06142134  1  0  0.139743  0  3.806745  0  0  0.146808  0  4.043424  0  0  0.14862  0  4.066647  0  0  0.110788  0.145435  0  4.027869  0
C  C25  1  0.91205129  0.45341333  0.93857503  1  0  0.139852  0  3.806674  0  0  0.146694  0  4.043528  0  0  0.148504  0  4.066764  0  0  0.110788  0.145327  0  4.02797  0
C  C26  1  0.93975064  0.75590953  0.18913910  1  0  0.142804  0  3.692822  0  0  0.118777  0  3.949834  0  0  0.126026  0  3.964691  0  0  0.059354  0.114037  0  3.939731  0
C  C27  1  0.06024824  0.24408608  0.81084716  1  0  0.142692  0  3.692923  0  0  0.118671  0  3.949925  0  0  0.125921  0  3.96478  0  0  0.059311  0.113934  0  3.939821  0
C  C28  1  0.78557101  0.60492242  0.51188960  1  0  -0.450513  0  3.631982  0  0  -0.524081  0  3.863478  0  0  -0.531734  0  3.863732  0  0  -0.246216  -0.518619  0  3.863263  0
C  C29  1  0.21442338  0.39507693  0.48811128  1  0  -0.45035  0  3.632104  0  0  -0.524017  0  3.863614  0  0  -0.531652  0  3.863865  0  0  -0.246247  -0.518557  0  3.863409  0
C  C30  1  0.79335588  0.14724148  0.15451090  1  0  -0.458062  0  3.638432  0  0  -0.52965  0  3.870915  0  0  -0.538112  0  3.872135  0  0  -0.244726  -0.523596  0  3.870025  0
C  C31  1  0.20665945  0.85277204  0.84551533  1  0  -0.457997  0  3.638869  0  0  -0.529683  0  3.871413  0  0  -0.538135  0  3.872639  0  0  -0.244702  -0.523627  0  3.870524  0
C  C32  1  0.25385606  0.47761910  0.05312723  1  0  -0.089767  0  3.688187  0  0  -0.113885  0  3.933012  0  0  -0.113297  0  3.950072  0  0  -0.065966  -0.114046  0  3.921685  0
C  C33  1  0.74614351  0.52237370  0.94686677  1  0  -0.089864  0  3.688351  0  0  -0.113863  0  3.933206  0  0  -0.113304  0  3.950244  0  0  -0.065937  -0.114017  0  3.921869  0
C  C34  1  0.76036575  0.67351575  0.07275933  1  0  -0.115146  0  3.725078  0  0  -0.123605  0  3.967607  0  0  -0.130186  0  3.98931  0  0  -0.083378  -0.119278  0  3.953092  0
C  C35  1  0.23963173  0.32647980  0.92723030  1  0  -0.115226  0  3.724992  0  0  -0.123676  0  3.967552  0  0  -0.13026  0  3.989248  0  0  -0.083469  -0.119342  0  3.953027  0
N  N36  1  0.09937039  0.69763835  0.18466864  1  0  -0.331969  0  3.081466  0  0  -0.297248  0  3.35265  0  0  -0.309111  0  3.366804  0  0  -0.305588  -0.289071  0  3.343164  0
N  N37  1  0.90062392  0.30235587  0.81532143  1  0  -0.331814  0  3.081306  0  0  -0.297038  0  3.352513  0  0  -0.3089  0  3.366671  0  0  -0.305519  -0.288871  0  3.343033  0
O  O38  1  0.52107948  0.71744546  0.40154076  1  0  -0.60681  0  2.140143  0  0  -0.569074  0  2.416501  0  0  -0.598981  0  2.413491  0  0  -0.329683  -0.548148  0  2.417912  0
O  O39  1  0.47891064  0.28254852  0.59846298  1  0  -0.606655  0  2.139974  0  0  -0.568923  0  2.416346  0  0  -0.598847  0  2.413351  0  0  -0.329666  -0.548027  0  2.417749  0
O  O40  1  0.52276120  0.97350452  0.22815036  1  0  -0.594565  0  2.10423  0  0  -0.555683  0  2.372286  0  0  -0.584003  0  2.367002  0  0  -0.328131  -0.5359  0  2.375303  0
O  O41  1  0.47723271  0.02648294  0.77184513  1  0  -0.594486  0  2.104553  0  0  -0.555575  0  2.372599  0  0  -0.583902  0  2.367316  0  0  -0.328067  -0.535818  0  2.375595  0
O  O42  1  0.24592784  0.09614681  0.38785922  1  0  -0.598201  0  2.098979  0  0  -0.559937  0  2.364817  0  0  -0.588818  0  2.360333  0  0  -0.33035  -0.5398  0  2.367351  0
O  O43  1  0.75406579  0.90385011  0.61212904  1  0  -0.598281  0  2.098967  0  0  -0.559998  0  2.364826  0  0  -0.588881  0  2.360341  0  0  -0.330434  -0.539889  0  2.367344  0
O  O44  1  0.24228087  0.83891639  0.56325531  1  0  -0.598587  0  2.130195  0  0  -0.561072  0  2.404241  0  0  -0.590485  0  2.401528  0  0  -0.327667  -0.540522  0  2.405439  0
O  O45  1  0.75771359  0.16108807  0.43675756  1  0  -0.598647  0  2.130369  0  0  -0.561113  0  2.404386  0  0  -0.590549  0  2.401714  0  0  -0.327753  -0.540586  0  2.405557  0
