# generated using pymatgen
data_BiH15C14O
_symmetry_space_group_name_H-M   'P 1'
_cell_length_a   8.32040807
_cell_length_b   10.36194504
_cell_length_c   14.92070000
_cell_angle_alpha   90.00000000
_cell_angle_beta   90.00000000
_cell_angle_gamma   90.00000000
_symmetry_Int_Tables_number   1
_chemical_formula_structural   BiH15C14O
_chemical_formula_sum   'Bi4 H60 C56 O4'
_cell_volume   1286.39726867
_cell_formula_units_Z   4
loop_
 _symmetry_equiv_pos_site_id
 _symmetry_equiv_pos_as_xyz
  1  'x, y, z'
loop_
 _atom_site_type_symbol
 _atom_site_label
 _atom_site_symmetry_multiplicity
 _atom_site_fract_x
 _atom_site_fract_y
 _atom_site_fract_z
 _atom_site_occupancy
 _atom_site_hle17_bader_spin_density
 _atom_site_hle17_ddec_charge
 _atom_site_hle17_ddec_spin_density
 _atom_site_hle17_ddec_sum_bond_order
 _atom_site_hle17_magmom
 _atom_site_hse06_10hf_bader_spin_density
 _atom_site_hse06_10hf_ddec_charge
 _atom_site_hse06_10hf_ddec_spin_density
 _atom_site_hse06_10hf_ddec_sum_bond_order
 _atom_site_hse06_10hf_magmom
 _atom_site_hse06_bader_spin_density
 _atom_site_hse06_ddec_charge
 _atom_site_hse06_ddec_spin_density
 _atom_site_hse06_ddec_sum_bond_order
 _atom_site_hse06_magmom
 _atom_site_pbe_bader_charge
 _atom_site_pbe_bader_spin_density
 _atom_site_pbe_cm5_charge
 _atom_site_pbe_ddec_charge
 _atom_site_pbe_ddec_spin_density
 _atom_site_pbe_ddec_sum_bond_order
 _atom_site_pbe_magmom
Bi  Bi0  1  0.38231779  0.24782606  0.99469998  1  0  1.003629  0  2.352375  0  0  0.79613  0  2.794306  0  0  0.830513  0  2.782624  0  1.320273  0  0.558283  0.771507  0  2.802747  0
Bi  Bi1  1  0.11768413  0.75217152  0.49469998  1  0  1.003634  0  2.352406  0  0  0.796086  0  2.794286  0  0  0.830465  0  2.782633  0  1.320252  0  0.558287  0.771465  0  2.802731  0
Bi  Bi2  1  0.88231971  0.25217370  0.00529868  1  0  1.003629  0  2.352352  0  0  0.796121  0  2.794301  0  0  0.830511  0  2.78261  0  1.320296  0  0.558279  0.771497  0  2.802744  0
Bi  Bi3  1  0.61768365  0.74782871  0.50529935  1  0  1.003625  0  2.352423  0  0  0.796065  0  2.794334  0  0  0.830451  0  2.782654  0  1.320243  0  0.558291  0.771445  0  2.802776  0
H  H4  1  0.73927264  0.24386252  0.19051452  1  0  0.00405  0  0.962484  0  0  0.017984  0  1.042499  0  0  0.016647  0  1.043488  0  0.00236  0  0.077396  0.018932  0  1.041797  0
H  H5  1  0.76072591  0.75613989  0.69051787  1  0  0.004065  0  0.962453  0  0  0.01798  0  1.042482  0  0  0.016644  0  1.043472  0  0.002275  0  0.077379  0.018924  0  1.041784  0
H  H6  1  0.23927312  0.25613531  0.80948347  1  0  0.004076  0  0.962461  0  0  0.018001  0  1.042463  0  0  0.016662  0  1.043454  0  0.002378  0  0.077402  0.018946  0  1.041764  0
H  H7  1  0.26072760  0.74386227  0.30948347  1  0  0.004079  0  0.962456  0  0  0.018  0  1.042479  0  0  0.016663  0  1.043468  0  0.002323  0  0.077407  0.018947  0  1.041778  0
H  H8  1  0.52884425  0.26501588  0.19793709  1  0  0.035725  0  0.945925  0  0  0.052126  0  1.011365  0  0  0.050751  0  1.013354  0  0.042431  0  0.086532  0.053049  0  1.009917  0
H  H9  1  0.97115429  0.73498363  0.69793709  1  0  0.035752  0  0.945972  0  0  0.052133  0  1.011425  0  0  0.050759  0  1.013415  0  0.04244  0  0.086528  0.053057  0  1.009976  0
H  H10  1  0.02884474  0.23498098  0.80206023  1  0  0.035732  0  0.945941  0  0  0.052108  0  1.011388  0  0  0.05073  0  1.013379  0  0.042524  0  0.086514  0.053031  0  1.00994  0
H  H11  1  0.47115598  0.76501757  0.30206291  1  0  0.035741  0  0.945943  0  0  0.052139  0  1.011383  0  0  0.050763  0  1.013373  0  0.042429  0  0.086523  0.053063  0  1.009936  0
H  H12  1  0.77013290  0.48356751  0.15865811  1  0  0.092035  0  0.970004  0  0  0.11244  0  1.034101  0  0  0.112562  0  1.036166  0  0.005834  0  0.079706  0.112302  0  1.032679  0
H  H13  1  0.72986685  0.51643296  0.65865878  1  0  0.092026  0  0.970075  0  0  0.112432  0  1.03416  0  0  0.112553  0  1.036226  0  0.005792  0  0.079699  0.112294  0  1.032738  0
H  H14  1  0.27013098  0.01643031  0.84133988  1  0  0.092007  0  0.970052  0  0  0.112426  0  1.034128  0  0  0.112546  0  1.036196  0  0.005917  0  0.079701  0.112289  0  1.032708  0
H  H15  1  0.22986733  0.98356824  0.34134122  1  0  0.092004  0  0.970039  0  0  0.112413  0  1.03412  0  0  0.112535  0  1.036186  0  0.005905  0  0.079696  0.112276  0  1.032699  0
H  H16  1  0.68295929  0.44975050  0.26515445  1  0  0.098654  0  0.989067  0  0  0.118493  0  1.053893  0  0  0.118129  0  1.057142  0  0.030624  0  0.08201  0.118617  0  1.051796  0
H  H17  1  0.81704046  0.55024901  0.76515579  1  0  0.098697  0  0.988938  0  0  0.118523  0  1.053794  0  0  0.118158  0  1.057043  0  0.030615  0  0.082039  0.118647  0  1.051698  0
H  H18  1  0.18295978  0.05024636  0.73484421  1  0  0.098709  0  0.988945  0  0  0.118544  0  1.053776  0  0  0.118179  0  1.057026  0  0.030601  0  0.082053  0.118669  0  1.05168  0
H  H19  1  0.31704094  0.94975219  0.23484421  1  0  0.09867  0  0.988961  0  0  0.118503  0  1.053804  0  0  0.118138  0  1.057054  0  0.030616  0  0.082035  0.118627  0  1.051709  0
H  H20  1  0.55906994  0.50233812  0.17509098  1  0  0.097505  0  0.957666  0  0  0.117922  0  1.021116  0  0  0.118695  0  1.021681  0  0.024339  0  0.080543  0.117231  0  1.02077  0
H  H21  1  0.94092861  0.49766332  0.67509098  1  0  0.09754  0  0.957717  0  0  0.117952  0  1.021163  0  0  0.118726  0  1.021727  0  0.024396  0  0.080554  0.117259  0  1.02082  0
H  H22  1  0.05906922  0.99765825  0.82490701  1  0  0.097517  0  0.957673  0  0  0.117932  0  1.021127  0  0  0.118705  0  1.021695  0  0.02434  0  0.080549  0.117239  0  1.020785  0
H  H23  1  0.44092910  0.00233933  0.32490902  1  0  0.097504  0  0.957709  0  0  0.117921  0  1.021156  0  0  0.118695  0  1.021722  0  0.024347  0  0.080541  0.117229  0  1.020813  0
H  H24  1  0.63093180  0.05000316  0.09156340  1  0  0.066248  0  0.997427  0  0  0.076613  0  1.067791  0  0  0.079898  0  1.065751  0  0.064785  0  0.089558  0.074284  0  1.069196  0
H  H25  1  0.86906194  0.94999732  0.59155737  1  0  0.066177  0  0.997397  0  0  0.076529  0  1.067786  0  0  0.079824  0  1.065721  0  0.064724  0  0.089521  0.074202  0  1.069192  0
H  H26  1  0.13093348  0.44999660  0.90843593  1  0  0.066264  0  0.997498  0  0  0.076637  0  1.067844  0  0  0.079919  0  1.065809  0  0.064768  0  0.089572  0.074307  0  1.069249  0
H  H27  1  0.36906363  0.55000195  0.40844263  1  0  0.066373  0  0.997419  0  0  0.076678  0  1.067825  0  0  0.079967  0  1.065778  0  0.064699  0  0.089586  0.074353  0  1.069234  0
H  H28  1  0.64356339  0.81964148  0.13546013  1  0  0.07919  0  0.982771  0  0  0.091332  0  1.042724  0  0  0.093367  0  1.043181  0  0.069754  0  0.093432  0.089862  0  1.042394  0
H  H29  1  0.85643275  0.18035996  0.63545611  1  0  0.079211  0  0.982775  0  0  0.091354  0  1.042721  0  0  0.093392  0  1.04318  0  0.069778  0  0.093449  0.089885  0  1.04239  0
H  H30  1  0.14356628  0.68035875  0.86453920  1  0  0.079162  0  0.982769  0  0  0.091306  0  1.04273  0  0  0.093342  0  1.043185  0  0.069734  0  0.093419  0.089836  0  1.042399  0
H  H31  1  0.35643444  0.31964076  0.36454322  1  0  0.079231  0  0.982681  0  0  0.091352  0  1.042657  0  0  0.093387  0  1.043115  0  0.069816  0  0.093451  0.089883  0  1.042326  0
H  H32  1  0.40663510  0.67775499  0.11466151  1  0  0.074982  0  0.983852  0  0  0.086787  0  1.046647  0  0  0.089428  0  1.045443  0  0.036056  0  0.094515  0.085314  0  1.046891  0
H  H33  1  0.09336802  0.32224452  0.61466419  1  0  0.075047  0  0.983734  0  0  0.086816  0  1.046573  0  0  0.089456  0  1.045371  0  0.036068  0  0.094522  0.085343  0  1.046817  0
H  H34  1  0.90663702  0.82224428  0.88533715  1  0  0.075006  0  0.983914  0  0  0.086787  0  1.046721  0  0  0.089429  0  1.045516  0  0.036029  0  0.094513  0.085312  0  1.04697  0
H  H35  1  0.59336994  0.17775910  0.38533849  1  0  0.075034  0  0.983713  0  0  0.086802  0  1.046552  0  0  0.089441  0  1.045352  0  0.036024  0  0.094522  0.085328  0  1.046799  0
H  H36  1  0.15368958  0.76734628  0.04844478  1  0  0.080006  0  0.969152  0  0  0.092656  0  1.028117  0  0  0.09481  0  1.028454  0  0.065096  0  0.093723  0.091028  0  1.028074  0
H  H37  1  0.34631114  0.23265130  0.54844612  1  0  0.079988  0  0.96915  0  0  0.092632  0  1.028126  0  0  0.094788  0  1.028459  0  0.065122  0  0.093709  0.091004  0  1.028083  0
H  H38  1  0.65369270  0.73265395  0.95155589  1  0  0.079989  0  0.969214  0  0  0.092662  0  1.028146  0  0  0.094816  0  1.028482  0  0.065113  0  0.093717  0.091034  0  1.028103  0
H  H39  1  0.84631306  0.26735328  0.45155522  1  0  0.079982  0  0.969239  0  0  0.092636  0  1.028198  0  0  0.094792  0  1.028532  0  0.065137  0  0.093697  0.091009  0  1.028154  0
H  H40  1  0.14240768  0.99744980  0.00234842  1  0  0.073635  0  0.988346  0  0  0.082636  0  1.057814  0  0  0.086394  0  1.055217  0  0.089323  0  0.090585  0.079875  0  1.059799  0
H  H41  1  0.35759063  0.00254875  0.50234909  1  0  0.073641  0  0.988315  0  0  0.082632  0  1.057794  0  0  0.086381  0  1.055205  0  0.089293  0  0.090581  0.07987  0  1.059779  0
H  H42  1  0.64241080  0.50255140  0.99765293  1  0  0.073629  0  0.988299  0  0  0.082617  0  1.057785  0  0  0.086384  0  1.05518  0  0.089337  0  0.090576  0.079855  0  1.05977  0
H  H43  1  0.85759015  0.49745583  0.49765360  1  0  0.073626  0  0.98833  0  0  0.082619  0  1.05781  0  0  0.086361  0  1.055228  0  0.089514  0  0.090539  0.079858  0  1.059794  0
H  H44  1  0.25989470  0.51908691  0.06785003  1  0  0.070263  0  0.973736  0  0  0.083493  0  1.037647  0  0  0.085547  0  1.036965  0  0.035073  0  0.093164  0.082268  0  1.037746  0
H  H45  1  0.24010481  0.48091068  0.56784869  1  0  0.070259  0  0.97377  0  0  0.083464  0  1.037708  0  0  0.085538  0  1.03701  0  0.035063  0  0.09313  0.082239  0  1.037808  0
H  H46  1  0.75989662  0.98091043  0.93214930  1  0  0.070263  0  0.973803  0  0  0.083487  0  1.037718  0  0  0.085546  0  1.03703  0  0.03509  0  0.093157  0.082263  0  1.037817  0
H  H47  1  0.74010433  0.01909101  0.43215131  1  0  0.070274  0  0.973759  0  0  0.083489  0  1.037686  0  0  0.085556  0  1.036994  0  0.035052  0  0.093135  0.082264  0  1.037786  0
H  H48  1  0.12560922  0.61432868  0.19998391  1  0  0.074616  0  0.984056  0  0  0.086339  0  1.048324  0  0  0.088735  0  1.047473  0  0.058847  0  0.09511  0.084397  0  1.049506  0
H  H49  1  0.37439510  0.38566794  0.69998123  1  0  0.074589  0  0.984141  0  0  0.086317  0  1.048396  0  0  0.088711  0  1.047551  0  0.058783  0  0.095129  0.084375  0  1.049576  0
H  H50  1  0.62560994  0.88566866  0.80001609  1  0  0.074616  0  0.984095  0  0  0.086339  0  1.04836  0  0  0.088734  0  1.04751  0  0.058796  0  0.095124  0.084398  0  1.049539  0
H  H51  1  0.87439341  0.11433182  0.30001877  1  0  0.074597  0  0.984136  0  0  0.086331  0  1.048378  0  0  0.088725  0  1.047532  0  0.058781  0  0.095129  0.084388  0  1.049558  0
H  H52  1  0.02715612  0.47288902  0.32332397  1  0  0.07511  0  0.967216  0  0  0.08479  0  1.033481  0  0  0.087157  0  1.033125  0  0.049952  0  0.095811  0.083164  0  1.033645  0
H  H53  1  0.47284700  0.52710857  0.82332062  1  0  0.07508  0  0.967285  0  0  0.084749  0  1.033581  0  0  0.08713  0  1.033176  0  0.049926  0  0.095806  0.083124  0  1.033744  0
H  H54  1  0.52715564  0.02710978  0.67667603  1  0  0.075091  0  0.967199  0  0  0.084769  0  1.033474  0  0  0.087141  0  1.033101  0  0.049954  0  0.095811  0.083144  0  1.033638  0
H  H55  1  0.97284652  0.97288974  0.17668005  1  0  0.075106  0  0.9673  0  0  0.084781  0  1.03357  0  0  0.087158  0  1.033183  0  0.050005  0  0.09582  0.083157  0  1.033733  0
H  H56  1  0.07656956  0.23613906  0.31651062  1  0  0.080583  0  0.962111  0  0  0.0942  0  1.018721  0  0  0.096843  0  1.017484  0  0.063965  0  0.098365  0.092127  0  1.019931  0
H  H57  1  0.42343116  0.76385852  0.81650861  1  0  0.080472  0  0.962115  0  0  0.094154  0  1.018664  0  0  0.096795  0  1.017429  0  0.064019  0  0.098331  0.092078  0  1.019877  0
H  H58  1  0.57656908  0.26385876  0.68349005  1  0  0.080598  0  0.962149  0  0  0.094213  0  1.018755  0  0  0.096855  0  1.01752  0  0.06403  0  0.098363  0.092139  0  1.019967  0
H  H59  1  0.92343187  0.73613979  0.18349340  1  0  0.080501  0  0.962129  0  0  0.094187  0  1.01867  0  0  0.096829  0  1.017434  0  0.064011  0  0.098342  0.092114  0  1.019875  0
H  H60  1  0.21619132  0.14023525  0.18575268  1  0  0.08011  0  0.987983  0  0  0.089695  0  1.056258  0  0  0.09177  0  1.056411  0  0.048168  0  0.092774  0.08834  0  1.055909  0
H  H61  1  0.28380459  0.85976136  0.68575134  1  0  0.08015  0  0.98796  0  0  0.089754  0  1.056205  0  0  0.091832  0  1.05636  0  0.048179  0  0.092803  0.088398  0  1.055856  0
H  H62  1  0.71619204  0.35976257  0.81424665  1  0  0.080111  0  0.987958  0  0  0.089698  0  1.056228  0  0  0.091771  0  1.056382  0  0.048198  0  0.092784  0.088344  0  1.055879  0
H  H63  1  0.78380651  0.64023887  0.31425067  1  0  0.080126  0  0.988011  0  0  0.089725  0  1.056262  0  0  0.091803  0  1.056416  0  0.048184  0  0.092797  0.08837  0  1.055912  0
C  C64  1  0.63796150  0.30328476  0.16559880  1  0  0.173994  0  3.729419  0  0  0.116202  0  3.99823  0  0  0.125767  0  4.007469  0  0.424886  0  -0.096232  0.109541  0  3.991649  0
C  C65  1  0.86203705  0.69671765  0.66560081  1  0  0.173984  0  3.729473  0  0  0.116218  0  3.998214  0  0  0.125782  0  4.007454  0  0.425031  0  -0.096143  0.109561  0  3.991631  0
C  C66  1  0.13795958  0.19671403  0.83439852  1  0  0.174007  0  3.729386  0  0  0.1163  0  3.998093  0  0  0.125869  0  4.00734  0  0.424894  0  -0.096165  0.109639  0  3.991516  0
C  C67  1  0.36203873  0.80328452  0.33439986  1  0  0.173952  0  3.729288  0  0  0.11617  0  3.998082  0  0  0.125737  0  4.007318  0  0.424923  0  -0.096206  0.109508  0  3.991506  0
C  C68  1  0.66415973  0.44318996  0.19246885  1  0  -0.333198  0  3.71815  0  0  -0.406454  0  3.96172  0  0  -0.409597  0  3.973053  0  -0.040655  0  -0.260923  -0.404081  0  3.953945  0
C  C69  1  0.83583280  0.55681148  0.69246818  1  0  -0.333298  0  3.718207  0  0  -0.40656  0  3.96177  0  0  -0.409709  0  3.973119  0  -0.040633  0  -0.261008  -0.404179  0  3.953978  0
C  C70  1  0.16416503  0.05680787  0.80753115  1  0  -0.333293  0  3.71809  0  0  -0.406579  0  3.961659  0  0  -0.409727  0  3.973002  0  -0.040764  0  -0.261014  -0.404199  0  3.953872  0
C  C71  1  0.33583569  0.94319165  0.30753182  1  0  -0.333184  0  3.71803  0  0  -0.406449  0  3.961618  0  0  -0.409592  0  3.972952  0  -0.040747  0  -0.260955  -0.40407  0  3.953832  0
C  C72  1  0.38599429  0.03931694  0.04356029  1  0  -0.253022  0  3.638144  0  0  -0.188566  0  3.878298  0  0  -0.197116  0  3.908052  0  -0.291067  0  -0.10672  -0.182649  0  3.857869  0
C  C73  1  0.11400282  0.96068354  0.54355694  1  0  -0.252913  0  3.638101  0  0  -0.188458  0  3.878258  0  0  -0.197008  0  3.908012  0  -0.290762  0  -0.106695  -0.182543  0  3.857827  0
C  C74  1  0.88599260  0.46068378  0.95643904  1  0  -0.252981  0  3.637923  0  0  -0.188522  0  3.878068  0  0  -0.197073  0  3.907827  0  -0.291122  0  -0.106672  -0.182606  0  3.85764  0
C  C75  1  0.61400594  0.53931670  0.45644306  1  0  -0.252824  0  3.638176  0  0  -0.188361  0  3.878302  0  0  -0.196906  0  3.90805  0  -0.290834  0  -0.10669  -0.182447  0  3.857871  0
C  C76  1  0.52649942  0.98805581  0.08103038  1  0  -0.0696  0  3.831105  0  0  -0.087496  0  4.066646  0  0  -0.088765  0  4.090105  0  -0.125406  0  -0.100864  -0.08652  0  4.050718  0
C  C77  1  0.97350153  0.01194274  0.58102502  1  0  -0.069512  0  3.831069  0  0  -0.087402  0  4.066602  0  0  -0.088672  0  4.090065  0  -0.125616  0  -0.100819  -0.08643  0  4.050678  0
C  C78  1  0.02650110  0.51194539  0.91896761  1  0  -0.069608  0  3.831131  0  0  -0.087503  0  4.066665  0  0  -0.088776  0  4.090129  0  -0.125397  0  -0.10088  -0.086528  0  4.050737  0
C  C79  1  0.47349721  0.48806088  0.41897431  1  0  -0.069786  0  3.831098  0  0  -0.087638  0  4.066639  0  0  -0.08891  0  4.090095  0  -0.125551  0  -0.100895  -0.08667  0  4.05072  0
C  C80  1  0.53389329  0.85823848  0.10589450  1  0  -0.068613  0  3.773428  0  0  -0.074644  0  4.008371  0  0  -0.076555  0  4.029676  0  -0.073275  0  -0.094489  -0.073412  0  3.994115  0
C  C81  1  0.96610646  0.14176006  0.60588980  1  0  -0.068621  0  3.773543  0  0  -0.074649  0  4.008461  0  0  -0.076566  0  4.029775  0  -0.073391  0  -0.094482  -0.073419  0  3.994203  0
C  C82  1  0.03389497  0.64175886  0.89410617  1  0  -0.068583  0  3.773475  0  0  -0.074628  0  4.008408  0  0  -0.07654  0  4.029715  0  -0.073332  0  -0.094483  -0.073396  0  3.99415  0
C  C83  1  0.46611296  0.35823776  0.39411087  1  0  -0.068628  0  3.77351  0  0  -0.07463  0  4.008413  0  0  -0.076541  0  4.02972  0  -0.07338  0  -0.094483  -0.073399  0  3.994156  0
C  C84  1  0.40017028  0.77862795  0.09427976  1  0  -0.081734  0  3.787062  0  0  -0.091326  0  4.025987  0  0  -0.093021  0  4.046741  0  0.004654  0  -0.097895  -0.090164  0  4.011449  0
C  C85  1  0.09982924  0.22136964  0.59427976  1  0  -0.081832  0  3.787142  0  0  -0.091392  0  4.02604  0  0  -0.093089  0  4.046796  0  0.004643  0  -0.097903  -0.090228  0  4.0115  0
C  C86  1  0.90017580  0.72137422  0.90571890  1  0  -0.081689  0  3.786925  0  0  -0.091242  0  4.025805  0  0  -0.092938  0  4.046556  0  0.004724  0  -0.097818  -0.09008  0  4.011268  0
C  C87  1  0.59982755  0.27863302  0.40572225  1  0  -0.081771  0  3.787095  0  0  -0.091326  0  4.026005  0  0  -0.093024  0  4.046761  0  0.004721  0  -0.097891  -0.090162  0  4.011465  0
C  C88  1  0.25870847  0.82904126  0.05799795  1  0  -0.083414  0  3.78354  0  0  -0.091079  0  4.02203  0  0  -0.093696  0  4.0445  0  -0.134654  0  -0.098687  -0.089005  0  4.006525  0
C  C89  1  0.24128744  0.17096018  0.55799929  1  0  -0.083314  0  3.783555  0  0  -0.090968  0  4.022014  0  0  -0.093582  0  4.04448  0  -0.134786  0  -0.098647  -0.088895  0  4.006507  0
C  C90  1  0.75870918  0.67095897  0.94200138  1  0  -0.083476  0  3.783527  0  0  -0.09116  0  4.021995  0  0  -0.093777  0  4.04447  0  -0.134687  0  -0.098731  -0.089086  0  4.00649  0
C  C91  1  0.74129177  0.32904344  0.44200138  1  0  -0.083377  0  3.783268  0  0  -0.091041  0  4.021742  0  0  -0.093655  0  4.044205  0  -0.134729  0  -0.098683  -0.088968  0  4.006236  0
C  C92  1  0.25201048  0.95891263  0.03238588  1  0  -0.076755  0  3.837537  0  0  -0.093151  0  4.073827  0  0  -0.094269  0  4.096679  0  -0.035553  0  -0.103653  -0.092183  0  4.058041  0
C  C93  1  0.24798904  0.04108399  0.53238320  1  0  -0.076908  0  3.837459  0  0  -0.093324  0  4.073813  0  0  -0.094425  0  4.096642  0  -0.035322  0  -0.103722  -0.092357  0  4.058032  0
C  C94  1  0.75201360  0.54108953  0.96761345  1  0  -0.076772  0  3.837613  0  0  -0.093175  0  4.073951  0  0  -0.094293  0  4.096779  0  -0.035461  0  -0.103702  -0.092208  0  4.058168  0
C  C95  1  0.74798735  0.45892156  0.46761747  1  0  -0.076888  0  3.837455  0  0  -0.093317  0  4.073822  0  0  -0.094413  0  4.096656  0  -0.035644  0  -0.103657  -0.092349  0  4.058038  0
C  C96  1  0.24811884  0.32270679  0.11730549  1  0  -0.273921  0  3.678811  0  0  -0.204312  0  3.911982  0  0  -0.214565  0  3.942829  0  -0.259193  0  -0.109076  -0.197419  0  3.891206  0
C  C97  1  0.25187827  0.67729273  0.61730482  1  0  -0.273883  0  3.678747  0  0  -0.20428  0  3.911929  0  0  -0.214529  0  3.942778  0  -0.259552  0  -0.109043  -0.197387  0  3.891155  0
C  C98  1  0.74812076  0.17729297  0.88269384  1  0  -0.273963  0  3.678828  0  0  -0.204357  0  3.912003  0  0  -0.214611  0  3.942852  0  -0.259194  0  -0.109082  -0.197464  0  3.891229  0
C  C99  1  0.75188259  0.82270944  0.38269585  1  0  -0.273887  0  3.678817  0  0  -0.204283  0  3.912002  0  0  -0.214533  0  3.942851  0  -0.259538  0  -0.10907  -0.19739  0  3.891226  0
C  C100  1  0.22124516  0.45600898  0.12239841  1  0  -0.073094  0  3.842116  0  0  -0.091286  0  4.079158  0  0  -0.092228  0  4.103956  0  -0.10114  0  -0.099699  -0.090557  0  4.062219  0
C  C101  1  0.27875556  0.54398667  0.62239707  1  0  -0.073126  0  3.841994  0  0  -0.091294  0  4.079032  0  0  -0.092248  0  4.103811  0  -0.100919  0  -0.09968  -0.090564  0  4.062093  0
C  C102  1  0.72124828  0.04398885  0.87760293  1  0  -0.07315  0  3.84209  0  0  -0.091332  0  4.079129  0  0  -0.092277  0  4.103923  0  -0.101172  0  -0.099721  -0.090603  0  4.062192  0
C  C103  1  0.77875628  0.95601260  0.37760360  1  0  -0.073222  0  3.842108  0  0  -0.091401  0  4.079153  0  0  -0.092355  0  4.103943  0  -0.100915  0  -0.099716  -0.090672  0  4.062214  0
C  C104  1  0.14326220  0.51021309  0.19634132  1  0  -0.071635  0  3.764886  0  0  -0.081914  0  4.00524  0  0  -0.084324  0  4.027196  0  -0.057071  0  -0.094257  -0.080143  0  3.990181  0
C  C105  1  0.35673971  0.48978256  0.69633931  1  0  -0.071588  0  3.764938  0  0  -0.081859  0  4.005247  0  0  -0.08427  0  4.02721  0  -0.056983  0  -0.094251  -0.080087  0  3.990189  0
C  C106  1  0.64326172  0.98978425  0.80365666  1  0  -0.07158  0  3.764895  0  0  -0.081854  0  4.005233  0  0  -0.084265  0  4.027192  0  -0.057086  0  -0.094212  -0.080083  0  3.990174  0
C  C107  1  0.85673923  0.01021816  0.30366136  1  0  -0.071552  0  3.764888  0  0  -0.081821  0  4.005211  0  0  -0.084232  0  4.02717  0  -0.057011  0  -0.094247  -0.080049  0  3.990153  0
C  C108  1  0.08918673  0.43112273  0.26581595  1  0  -0.063746  0  3.766183  0  0  -0.071045  0  4.002157  0  0  -0.072615  0  4.023918  0  -0.039531  0  -0.089386  -0.069939  0  3.987092  0
C  C109  1  0.41081399  0.56887486  0.76581327  1  0  -0.06374  0  3.766205  0  0  -0.071059  0  4.00222  0  0  -0.07262  0  4.023988  0  -0.039523  0  -0.089396  -0.069956  0  3.987158  0
C  C110  1  0.58918865  0.06887510  0.73418539  1  0  -0.06367  0  3.766317  0  0  -0.070972  0  4.002278  0  0  -0.072541  0  4.024046  0  -0.039553  0  -0.08938  -0.069867  0  3.987214  0
C  C111  1  0.91081590  0.93112441  0.23418740  1  0  -0.063766  0  3.766177  0  0  -0.071085  0  4.002213  0  0  -0.072649  0  4.023976  0  -0.039577  0  -0.089393  -0.069984  0  3.987152  0
C  C112  1  0.11566139  0.29800679  0.26149846  1  0  -0.079269  0  3.781979  0  0  -0.087275  0  4.020724  0  0  -0.089581  0  4.041443  0  -0.057345  0  -0.09422  -0.085645  0  4.006757  0
C  C113  1  0.38433932  0.70199079  0.76149644  1  0  -0.079113  0  3.781805  0  0  -0.08717  0  4.020552  0  0  -0.089479  0  4.041274  0  -0.057306  0  -0.094174  -0.085539  0  4.006585  0
C  C114  1  0.61565851  0.20199103  0.73850087  1  0  -0.079377  0  3.782028  0  0  -0.087383  0  4.020774  0  0  -0.089692  0  4.041493  0  -0.057373  0  -0.094239  -0.085754  0  4.006809  0
C  C115  1  0.88434124  0.79800848  0.23850356  1  0  -0.079167  0  3.781845  0  0  -0.087236  0  4.020608  0  0  -0.089543  0  4.041327  0  -0.057323  0  -0.094203  -0.085602  0  4.006641  0
C  C116  1  0.19514067  0.24413853  0.18784373  1  0  -0.084973  0  3.851811  0  0  -0.103571  0  4.092106  0  0  -0.104386  0  4.116544  0  -0.080652  0  -0.10077  -0.102821  0  4.075086  0
C  C117  1  0.30485524  0.75585809  0.68784306  1  0  -0.085077  0  3.851895  0  0  -0.103691  0  4.092213  0  0  -0.104513  0  4.116654  0  -0.080618  0  -0.100843  -0.102941  0  4.075192  0
C  C118  1  0.69514379  0.25585930  0.81215694  1  0  -0.084923  0  3.851674  0  0  -0.103512  0  4.091961  0  0  -0.104325  0  4.116397  0  -0.080626  0  -0.100795  -0.102763  0  4.074943  0
C  C119  1  0.80485716  0.74414118  0.31215761  1  0  -0.085002  0  3.851792  0  0  -0.103606  0  4.0921  0  0  -0.104427  0  4.116539  0  -0.080605  0  -0.100782  -0.102857  0  4.075079  0
O  O120  1  0.62516165  0.28814764  0.07032646  1  0  -0.647365  0  2.051385  0  0  -0.52769  0  2.296052  0  0  -0.556296  0  2.2957  0  -1.140874  0  -0.354628  -0.507267  0  2.295654  0
O  O121  1  0.87483570  0.71185477  0.57032713  1  0  -0.647398  0  2.051446  0  0  -0.527603  0  2.295903  0  0  -0.556202  0  2.295545  0  -1.14099  0  -0.354659  -0.507187  0  2.295508  0
O  O122  1  0.12516213  0.21185115  0.92967220  1  0  -0.647309  0  2.051293  0  0  -0.527729  0  2.29607  0  0  -0.55629  0  2.295612  0  -1.140968  0  -0.354638  -0.507306  0  2.295676  0
O  O123  1  0.37483738  0.78814836  0.42967354  1  0  -0.647388  0  2.051342  0  0  -0.527665  0  2.295922  0  0  -0.556264  0  2.295563  0  -1.14087  0  -0.354653  -0.507246  0  2.295532  0
