# generated using pymatgen
data_Zn2H14C24N4Cl4O9
_symmetry_space_group_name_H-M   'P 1'
_cell_length_a   11.23477160
_cell_length_b   11.23475869
_cell_length_c   14.59399952
_cell_angle_alpha   109.13229004
_cell_angle_beta   109.13233603
_cell_angle_gamma   97.00652358
_symmetry_Int_Tables_number   1
_chemical_formula_structural   Zn2H14C24N4Cl4O9
_chemical_formula_sum   'Zn4 H28 C48 N8 Cl8 O18'
_cell_volume   1588.94881072
_cell_formula_units_Z   2
loop_
 _symmetry_equiv_pos_site_id
 _symmetry_equiv_pos_as_xyz
  1  'x, y, z'
loop_
 _atom_site_type_symbol
 _atom_site_label
 _atom_site_symmetry_multiplicity
 _atom_site_fract_x
 _atom_site_fract_y
 _atom_site_fract_z
 _atom_site_occupancy
 _atom_site_pbe_bader_charge
 _atom_site_pbe_bader_spin_density
 _atom_site_pbe_cm5_charge
 _atom_site_pbe_ddec_charge
 _atom_site_pbe_ddec_spin_density
 _atom_site_pbe_ddec_sum_bond_order
 _atom_site_pbe_magmom
Zn  Zn0  1  0.47347148  0.71794773  0.71150385  1  1.327589  0  0.684754  0.856427  0  2.259774  0
Zn  Zn1  1  0.28205165  0.52652717  0.78849522  1  1.327583  0  0.684778  0.856428  0  2.259799  0
Zn  Zn2  1  0.52652773  0.28205149  0.28849609  1  1.327572  0  0.684793  0.856449  0  2.259783  0
Zn  Zn3  1  0.71794853  0.47347418  0.21150482  1  1.327579  0  0.684759  0.856414  0  2.259845  0
H  H4  1  0.23354654  0.68996495  0.68295268  1  0.657242  0  0.283317  0.375408  0  0.979711  0
H  H5  1  0.31003659  0.76645425  0.81704807  1  0.657193  0  0.283342  0.375452  0  0.979653  0
H  H6  1  0.76645364  0.31003923  0.31704739  1  0.657203  0  0.283352  0.375483  0  0.979614  0
H  H7  1  0.68996067  0.23354824  0.18295221  1  0.657209  0  0.283361  0.375501  0  0.97958  0
H  H8  1  0.69482780  0.91920791  0.07013266  1  0.146482  0  0.114911  0.139383  0  0.998154  0
H  H9  1  0.08079203  0.30516701  0.42986760  1  0.146525  0  0.11493  0.139423  0  0.9981  0
H  H10  1  0.30517043  0.08079389  0.92986768  1  0.146507  0  0.114919  0.139405  0  0.998131  0
H  H11  1  0.91920815  0.69483152  0.57013447  1  0.1465  0  0.114932  0.139398  0  0.99813  0
H  H12  1  0.80894439  0.77341454  0.31814859  1  0.11461  0  0.120542  0.107996  0  1.00077  0
H  H13  1  0.22658457  0.19105571  0.18185085  1  0.114592  0  0.120538  0.10798  0  1.000786  0
H  H14  1  0.19105774  0.22658637  0.68185251  1  0.114624  0  0.120507  0.107947  0  1.000861  0
H  H15  1  0.77341074  0.80894157  0.81814693  1  0.114608  0  0.120537  0.107993  0  1.000785  0
H  H16  1  0.62342448  0.50773476  0.00856466  1  0.175564  0  0.118159  0.098129  0  1.033558  0
H  H17  1  0.49226495  0.37657623  0.49143444  1  0.175574  0  0.118154  0.098132  0  1.033589  0
H  H18  1  0.37657766  0.49226710  0.99143600  1  0.17546  0  0.118155  0.098139  0  1.033612  0
H  H19  1  0.50773425  0.62342299  0.50856207  1  0.175476  0  0.118144  0.098108  0  1.033574  0
H  H20  1  0.30527630  0.60695562  0.35501645  1  0.127808  0  0.109135  0.128333  0  1.011659  0
H  H21  1  0.39304511  0.69472423  0.14498474  1  0.127822  0  0.109133  0.128299  0  1.011707  0
H  H22  1  0.69472486  0.39304693  0.64498277  1  0.127817  0  0.109141  0.128321  0  1.011641  0
H  H23  1  0.60695312  0.30527662  0.85501606  1  0.127806  0  0.109134  0.12832  0  1.011628  0
H  H24  1  0.91931878  0.44473957  0.10465584  1  0.10412  0  0.115898  0.103398  0  1.013211  0
H  H25  1  0.55526436  0.08068187  0.39534515  1  0.104108  0  0.115865  0.103371  0  1.013111  0
H  H26  1  0.08068238  0.55526015  0.89534471  1  0.104116  0  0.115897  0.103383  0  1.013086  0
H  H27  1  0.44473777  0.91931811  0.60465641  1  0.104122  0  0.115851  0.103345  0  1.0132  0
H  H28  1  0.95392926  0.57768890  0.41506290  1  0.185432  0  0.118794  0.098822  0  1.044575  0
H  H29  1  0.42230801  0.04606864  0.08493559  1  0.185445  0  0.118787  0.098829  0  1.044526  0
H  H30  1  0.04607092  0.42231057  0.58493667  1  0.185435  0  0.118784  0.098803  0  1.0446  0
H  H31  1  0.57769120  0.95393058  0.91506435  1  0.185434  0  0.118778  0.098819  0  1.044563  0
C  C32  1  0.57306633  0.67013151  0.90823640  1  1.637842  0  0.210312  0.587784  0  4.207825  0
C  C33  1  0.32986492  0.42692901  0.59176321  1  1.637836  0  0.210164  0.587615  0  4.20819  0
C  C34  1  0.42693190  0.32986369  0.09176502  1  1.637894  0  0.210142  0.587452  0  4.208139  0
C  C35  1  0.67013332  0.57306619  0.40823615  1  1.637865  0  0.210185  0.587555  0  4.208091  0
C  C36  1  0.65187035  0.70888863  0.02412500  1  -0.046516  0  -0.011785  -0.059914  0  3.951678  0
C  C37  1  0.29111191  0.34812850  0.47587514  1  -0.046438  0  -0.01175  -0.059863  0  3.951657  0
C  C38  1  0.34813081  0.29111392  0.97587696  1  -0.04699  0  -0.011767  -0.059837  0  3.951639  0
C  C39  1  0.70888730  0.65186978  0.52412388  1  -0.046536  0  -0.011763  -0.059845  0  3.951669  0
C  C40  1  0.70279296  0.83873930  0.09616152  1  0.058689  0  -0.065441  -0.118999  0  3.888766  0
C  C41  1  0.16126044  0.29720312  0.40383768  1  0.058671  0  -0.06545  -0.119035  0  3.888777  0
C  C42  1  0.29720722  0.16126206  0.90383989  1  0.058701  0  -0.065421  -0.119026  0  3.888755  0
C  C43  1  0.83873877  0.70279422  0.59616110  1  0.058717  0  -0.065457  -0.119026  0  3.888729  0
C  C44  1  0.75875468  0.86235923  0.20335908  1  -0.013201  0  0.014223  0.099426  0  4.065343  0
C  C45  1  0.13764121  0.24124417  0.29664101  1  -0.013188  0  0.014211  0.099412  0  4.065397  0
C  C46  1  0.24124648  0.13764238  0.79664127  1  -0.013144  0  0.014196  0.099396  0  4.065345  0
C  C47  1  0.86235702  0.75875480  0.70335930  1  -0.013113  0  0.014233  0.09946  0  4.065269  0
C  C48  1  0.76731393  0.75816192  0.23514910  1  0.567885  0  0.042362  0.015678  0  3.921978  0
C  C49  1  0.24183846  0.23268527  0.26484974  1  0.567877  0  0.04237  0.015707  0  3.921976  0
C  C50  1  0.23268821  0.24184088  0.76485180  1  0.567903  0  0.042392  0.015741  0  3.922056  0
C  C51  1  0.75815880  0.76731157  0.73514842  1  0.567882  0  0.042368  0.015679  0  3.92196  0
C  C52  1  0.66309669  0.60980968  0.06192909  1  0.479966  0  0.052037  0.07428  0  3.892046  0
C  C53  1  0.39018959  0.33690216  0.43807077  1  0.479874  0  0.052023  0.07426  0  3.892104  0
C  C54  1  0.33690447  0.39019098  0.93807240  1  0.480374  0  0.05202  0.074227  0  3.89211  0
C  C55  1  0.60980962  0.66309612  0.56192756  1  0.4799  0  0.05203  0.074239  0  3.892085  0
C  C56  1  0.21484545  0.66065147  0.51759238  1  1.565895  0  0.208969  0.577295  0  4.202899  0
C  C57  1  0.33934916  0.78515459  0.98240659  1  1.566565  0  0.208974  0.577288  0  4.202948  0
C  C58  1  0.78515571  0.33935108  0.48240684  1  1.566552  0  0.209001  0.577333  0  4.203006  0
C  C59  1  0.66064810  0.21484507  0.01759160  1  1.566533  0  0.208889  0.577243  0  4.203021  0
C  C60  1  0.13929061  0.60228883  0.39975773  1  0.12679  0  -0.012292  -0.058753  0  3.952805  0
C  C61  1  0.39771035  0.86070926  0.10024351  1  0.126853  0  -0.012368  -0.05892  0  3.95299  0
C  C62  1  0.86071055  0.39771278  0.60024261  1  0.126804  0  -0.012347  -0.058882  0  3.952892  0
C  C63  1  0.60228788  0.13928971  0.89975681  1  0.126694  0  -0.012339  -0.058851  0  3.952961  0
C  C64  1  0.19941489  0.58073508  0.32785241  1  0.035695  0  -0.06516  -0.114492  0  3.910297  0
C  C65  1  0.41926580  0.80058293  0.17214878  1  0.035356  0  -0.065096  -0.114286  0  3.910187  0
C  C66  1  0.80058432  0.41926697  0.67214825  1  0.035715  0  -0.065102  -0.114341  0  3.910175  0
C  C67  1  0.58073341  0.19941535  0.82785092  1  0.035799  0  -0.065112  -0.114378  0  3.910259  0
C  C68  1  0.11953129  0.52345202  0.22062208  1  0.022046  0  0.014381  0.096548  0  4.061929  0
C  C69  1  0.47655344  0.88047076  0.27937995  1  0.022387  0  0.014356  0.096471  0  4.062002  0
C  C70  1  0.88047085  0.47654984  0.77937858  1  0.022043  0  0.014368  0.096508  0  4.062031  0
C  C71  1  0.52345064  0.11953066  0.72062246  1  0.022186  0  0.014352  0.096471  0  4.062006  0
C  C72  1  0.98406497  0.48975688  0.18788146  1  0.572449  0  0.04241  0.01665  0  3.946583  0
C  C73  1  0.51024527  0.01593404  0.31211799  1  0.572346  0  0.042443  0.01669  0  3.946596  0
C  C74  1  0.01593522  0.51024259  0.81211742  1  0.572452  0  0.042395  0.016638  0  3.946581  0
C  C75  1  0.48975589  0.98406474  0.68788233  1  0.572371  0  0.042458  0.016754  0  3.946614  0
C  C76  1  0.00353231  0.56406346  0.36125163  1  0.354499  0  0.052942  0.07924  0  3.887603  0
C  C77  1  0.43593410  0.99646379  0.13874615  1  0.354379  0  0.052985  0.079285  0  3.887594  0
C  C78  1  0.99646592  0.43593551  0.63874663  1  0.354445  0  0.052955  0.079281  0  3.887608  0
C  C79  1  0.56406511  0.00353355  0.86125263  1  0.354455  0  0.052972  0.079288  0  3.887603  0
N  N80  1  0.72113096  0.63420504  0.16464081  1  -1.247074  0  -0.317784  -0.196904  0  3.546775  0
N  N81  1  0.36579572  0.27886890  0.33535901  1  -1.247074  0  -0.317784  -0.196919  0  3.546747  0
N  N82  1  0.27887118  0.36579587  0.83535961  1  -1.247083  0  -0.317761  -0.19685  0  3.546848  0
N  N83  1  0.63420349  0.72112938  0.66463864  1  -1.247072  0  -0.317766  -0.19684  0  3.546812  0
N  N84  1  0.92784416  0.50987040  0.25793723  1  -1.244183  0  -0.316014  -0.217588  0  3.547369  0
N  N85  1  0.49013011  0.07215671  0.24206430  1  -1.244031  0  -0.316013  -0.217586  0  3.547298  0
N  N86  1  0.07215797  0.49012957  0.74206364  1  -1.244168  0  -0.315993  -0.217567  0  3.547365  0
N  N87  1  0.50987008  0.92784371  0.75793688  1  -1.244089  0  -0.316013  -0.217622  0  3.547417  0
Cl  Cl88  1  0.81338366  0.01864332  0.29887407  1  -0.181072  0  0.010904  -0.052637  0  1.597865  0
Cl  Cl89  1  0.98135670  0.18661751  0.20112552  1  -0.180823  0  0.010894  -0.052642  0  1.597839  0
Cl  Cl90  1  0.18661652  0.98135898  0.70112690  1  -0.181074  0  0.010923  -0.052621  0  1.597888  0
Cl  Cl91  1  0.01863958  0.81338473  0.79887513  1  -0.180868  0  0.010882  -0.052676  0  1.597845  0
Cl  Cl92  1  0.18553475  0.49090541  0.12620447  1  -0.199927  0  0.015004  -0.053439  0  1.540122  0
Cl  Cl93  1  0.50909965  0.81446518  0.37379628  1  -0.199874  0  0.014999  -0.05344  0  1.540134  0
Cl  Cl94  1  0.81446543  0.50909218  0.87379530  1  -0.199919  0  0.015001  -0.053439  0  1.540151  0
Cl  Cl95  1  0.49090248  0.18553291  0.62620343  1  -0.200017  0  0.015018  -0.053427  0  1.540112  0
O  O96  1  0.59454791  0.75020150  0.86715753  1  -1.17139  0  -0.31091  -0.545825  0  2.324725  0
O  O97  1  0.24979786  0.40544918  0.63284186  1  -1.17151  0  -0.310782  -0.545629  0  2.324991  0
O  O98  1  0.40545228  0.24979703  0.13284522  1  -1.171538  0  -0.310762  -0.545533  0  2.3249  0
O  O99  1  0.75020232  0.59454746  0.36715699  1  -1.171465  0  -0.310834  -0.545687  0  2.324785  0
O  O100  1  0.48899988  0.56155878  0.86279024  1  -1.177639  0  -0.316776  -0.554928  0  2.343156  0
O  O101  1  0.43843958  0.51099864  0.63720929  1  -1.177793  0  -0.316779  -0.554955  0  2.343109  0
O  O102  1  0.51100030  0.43844070  0.13721137  1  -1.177811  0  -0.316795  -0.554939  0  2.34316  0
O  O103  1  0.56155866  0.48900033  0.36278828  1  -1.177622  0  -0.316755  -0.554875  0  2.343249  0
O  O104  1  0.33861346  0.69224288  0.55145627  1  -1.147045  0  -0.315114  -0.55788  0  2.290518  0
O  O105  1  0.30775631  0.66138616  0.94854227  1  -1.147044  0  -0.315091  -0.557852  0  2.290538  0
O  O106  1  0.66138769  0.30775778  0.44854247  1  -1.147009  0  -0.315147  -0.557919  0  2.290659  0
O  O107  1  0.69224484  0.33861357  0.05145624  1  -1.147048  0  -0.315075  -0.557824  0  2.290449  0
O  O108  1  0.14726416  0.67102542  0.57350246  1  -1.186578  0  -0.31731  -0.539009  0  2.196199  0
O  O109  1  0.32897867  0.85273530  0.92649788  1  -1.18723  0  -0.317319  -0.539011  0  2.19623  0
O  O110  1  0.85273700  0.32897807  0.42649700  1  -1.187265  0  -0.317314  -0.539019  0  2.196194  0
O  O111  1  0.67101859  0.14726436  0.07350099  1  -1.187187  0  -0.317263  -0.539005  0  2.196257  0
O  O112  1  0.30672061  0.69327844  0.74999952  1  -1.291863  0  -0.56098  -0.768936  0  2.34607  0
O  O113  1  0.69327762  0.30672335  0.25000014  1  -1.291835  0  -0.561038  -0.769062  0  2.34603  0
