# generated using pymatgen
data_Zn2H31C31N3O11
_symmetry_space_group_name_H-M   'P 1'
_cell_length_a   10.27191886
_cell_length_b   18.26052680
_cell_length_c   26.93711373
_cell_angle_alpha   89.99975756
_cell_angle_beta   89.99998355
_cell_angle_gamma   90.00022130
_symmetry_Int_Tables_number   1
_chemical_formula_structural   Zn2H31C31N3O11
_chemical_formula_sum   'Zn8 H124 C124 N12 O44'
_cell_volume   5052.61192074
_cell_formula_units_Z   4
loop_
 _symmetry_equiv_pos_site_id
 _symmetry_equiv_pos_as_xyz
  1  'x, y, z'
loop_
 _atom_site_type_symbol
 _atom_site_label
 _atom_site_symmetry_multiplicity
 _atom_site_fract_x
 _atom_site_fract_y
 _atom_site_fract_z
 _atom_site_occupancy
 _atom_site_pbe_bader_charge
 _atom_site_pbe_bader_spin_density
 _atom_site_pbe_cm5_charge
 _atom_site_pbe_ddec_charge
 _atom_site_pbe_ddec_spin_density
 _atom_site_pbe_ddec_sum_bond_order
 _atom_site_pbe_magmom
Zn  Zn0  1  0.31773966  0.17458830  0.03592377  1  1.328263  0  0.669469  0.931418  0  2.274581  0
Zn  Zn1  1  0.68226366  0.82541118  0.53592219  1  1.32834  0  0.669474  0.931417  0  2.274616  0
Zn  Zn2  1  0.81773030  0.32541152  0.53592216  1  1.328255  0  0.669461  0.931375  0  2.274567  0
Zn  Zn3  1  0.18226522  0.67458906  0.03592306  1  1.32841  0  0.669463  0.931415  0  2.274549  0
Zn  Zn4  1  0.00760609  0.31007842  0.43609230  1  1.398326  0  0.687297  0.990809  0  2.241782  0
Zn  Zn5  1  0.99239399  0.68992240  0.93608811  1  1.398276  0  0.687275  0.990766  0  2.241828  0
Zn  Zn6  1  0.50760457  0.18992151  0.93609294  1  1.398248  0  0.687294  0.990777  0  2.241898  0
Zn  Zn7  1  0.49239746  0.81007548  0.43609230  1  1.398253  0  0.68729  0.990779  0  2.241847  0
H  H8  1  0.23342039  0.43710589  0.01454917  1  0.131282  0  0.113898  0.12768  0  0.990234  0
H  H9  1  0.76657905  0.56289427  0.51454908  1  0.131276  0  0.113908  0.1277  0  0.990241  0
H  H10  1  0.73340924  0.06289552  0.51454980  1  0.131192  0  0.113896  0.127645  0  0.990286  0
H  H11  1  0.26658631  0.93710245  0.01454957  1  0.131255  0  0.113908  0.127698  0  0.990284  0
H  H12  1  0.18043706  0.51741849  0.86597064  1  0.093462  0  0.097613  0.099737  0  1.033426  0
H  H13  1  0.81956601  0.48258386  0.36597129  1  0.093537  0  0.097543  0.099611  0  1.033365  0
H  H14  1  0.68043403  0.98258352  0.36597095  1  0.093488  0  0.097579  0.099689  0  1.033504  0
H  H15  1  0.31957001  0.01741774  0.86597284  1  0.093497  0  0.097617  0.09974  0  1.033406  0
H  H16  1  0.33768833  0.30127860  0.89046912  1  0.128008  0  0.103726  0.112695  0  1.079955  0
H  H17  1  0.66230693  0.69872250  0.39047064  1  0.127964  0  0.103723  0.112675  0  1.079958  0
H  H18  1  0.83767849  0.19872343  0.39046912  1  0.127985  0  0.103729  0.112682  0  1.079953  0
H  H19  1  0.16231774  0.80127713  0.89046989  1  0.12797  0  0.103717  0.112662  0  1.07994  0
H  H20  1  0.48084084  0.31295690  0.73394527  1  0.068719  0  0.102486  0.103537  0  1.000258  0
H  H21  1  0.51915843  0.68704573  0.23394610  1  0.06867  0  0.102451  0.103533  0  1.000315  0
H  H22  1  0.98084066  0.18704314  0.23394753  1  0.068602  0  0.10243  0.103476  0  1.000288  0
H  H23  1  0.01916056  0.81295730  0.73394755  1  0.068656  0  0.102435  0.10348  0  1.000248  0
H  H24  1  0.45983897  0.33670892  0.82392073  1  0.07572  0  0.102208  0.107691  0  1.018682  0
H  H25  1  0.54016023  0.66329205  0.32392274  1  0.075645  0  0.1022  0.107667  0  1.018778  0
H  H26  1  0.95983278  0.16329215  0.32392195  1  0.075754  0  0.102166  0.107573  0  1.01864  0
H  H27  1  0.04016642  0.83671047  0.82392263  1  0.075753  0  0.102199  0.107642  0  1.018685  0
H  H28  1  0.10051021  0.45168448  0.79782907  1  0.055957  0  0.096319  0.093184  0  1.018152  0
H  H29  1  0.89948998  0.54831775  0.29782989  1  0.055931  0  0.096317  0.093191  0  1.018128  0
H  H30  1  0.60050518  0.04831706  0.29782876  1  0.055924  0  0.096327  0.093213  0  1.018104  0
H  H31  1  0.39949404  0.95168462  0.79782871  1  0.055906  0  0.096339  0.093243  0  1.01818  0
H  H32  1  0.34631011  0.32275287  0.51770272  1  0.09719  0  0.10029  0.099272  0  1.052864  0
H  H33  1  0.65369030  0.67724946  0.01770356  1  0.097198  0  0.100291  0.099267  0  1.052865  0
H  H34  1  0.84631083  0.17725150  0.01770278  1  0.09718  0  0.100301  0.099299  0  1.052754  0
H  H35  1  0.15368861  0.82274700  0.51770312  1  0.097206  0  0.100329  0.099349  0  1.052716  0
H  H36  1  0.12251093  0.42922651  0.70778493  1  0.072789  0  0.10328  0.10558  0  1.000126  0
H  H37  1  0.87748544  0.57077628  0.20778531  1  0.07282  0  0.103297  0.105617  0  1.000096  0
H  H38  1  0.62250995  0.07077619  0.20778456  1  0.072779  0  0.103285  0.105586  0  1.000145  0
H  H39  1  0.37749226  0.92922550  0.70778494  1  0.072781  0  0.103299  0.105621  0  1.000135  0
H  H40  1  0.10678236  0.34821478  0.64684088  1  0.101507  0  0.105381  0.11152  0  1.012942  0
H  H41  1  0.89321698  0.65179168  0.14684326  1  0.101415  0  0.105346  0.111473  0  1.012903  0
H  H42  1  0.60678388  0.15178881  0.14684139  1  0.101479  0  0.105355  0.111451  0  1.012964  0
H  H43  1  0.39321643  0.84820888  0.64684126  1  0.101692  0  0.105353  0.111461  0  1.012956  0
H  H44  1  0.02259574  0.36701747  0.31913834  1  0.097792  0  0.12559  0.052988  0  0.973286  0
H  H45  1  0.97740346  0.63298627  0.81913988  1  0.097867  0  0.125622  0.052968  0  0.973305  0
H  H46  1  0.52259675  0.13298377  0.81913951  1  0.097797  0  0.125605  0.052969  0  0.973301  0
H  H47  1  0.47740440  0.86701504  0.31914094  1  0.097864  0  0.125637  0.052986  0  0.973305  0
H  H48  1  0.26325235  0.24493647  0.46227856  1  0.139894  0  0.127411  0.059575  0  1.017823  0
H  H49  1  0.73675648  0.75506474  0.96227940  1  0.139931  0  0.127383  0.059514  0  1.017855  0
H  H50  1  0.76324738  0.25506550  0.96228086  1  0.139834  0  0.127382  0.059536  0  1.017839  0
H  H51  1  0.23676242  0.74493297  0.46227970  1  0.139925  0  0.127439  0.059561  0  1.017853  0
H  H52  1  0.52780304  0.35739730  0.65853735  1  0.100335  0  0.104978  0.110833  0  1.011981  0
H  H53  1  0.47219532  0.64260525  0.15853720  1  0.100349  0  0.104984  0.110822  0  1.012061  0
H  H54  1  0.02780536  0.14260331  0.15853868  1  0.100271  0  0.104975  0.11083  0  1.011978  0
H  H55  1  0.97219689  0.85739596  0.65853846  1  0.100299  0  0.104979  0.110841  0  1.012003  0
H  H56  1  0.46038870  0.20277361  0.46026317  1  0.088943  0  0.116883  0.140425  0  0.989864  0
H  H57  1  0.53961332  0.79722377  0.96026392  1  0.088922  0  0.116852  0.140358  0  0.989812  0
H  H58  1  0.96038694  0.29722661  0.96026350  1  0.08895  0  0.116863  0.140367  0  0.989837  0
H  H59  1  0.03961313  0.70277351  0.46026471  1  0.088931  0  0.116911  0.140455  0  0.989764  0
H  H60  1  0.51342154  0.16977590  0.40121049  1  0.066331  0  0.102677  0.116163  0  0.996537  0
H  H61  1  0.48658052  0.83022295  0.90120966  1  0.066313  0  0.102647  0.116075  0  0.996567  0
H  H62  1  0.01341892  0.33022426  0.90121003  1  0.066309  0  0.102651  0.116096  0  0.996536  0
H  H63  1  0.98658412  0.66977513  0.40121198  1  0.066468  0  0.102668  0.116123  0  0.996608  0
H  H64  1  0.46866823  0.10649330  0.44830843  1  0.054318  0  0.104241  0.121284  0  0.994271  0
H  H65  1  0.53132991  0.89350689  0.94830890  1  0.054293  0  0.104251  0.121296  0  0.994239  0
H  H66  1  0.96867199  0.39350591  0.94830922  1  0.054297  0  0.104259  0.121296  0  0.994239  0
H  H67  1  0.03133003  0.60649319  0.44831071  1  0.054249  0  0.104276  0.121296  0  0.994189  0
H  H68  1  0.27855851  0.05422809  0.38836408  1  0.067298  0  0.103756  0.113328  0  1.004937  0
H  H69  1  0.72143967  0.94577248  0.88836475  1  0.067264  0  0.103764  0.113366  0  1.004989  0
H  H70  1  0.77855971  0.44577492  0.88836324  1  0.067183  0  0.103771  0.11339  0  1.00493  0
H  H71  1  0.22143749  0.55422565  0.38836560  1  0.067202  0  0.103758  0.113356  0  1.004899  0
H  H72  1  0.34536125  0.11611863  0.34391528  1  0.062813  0  0.108035  0.117762  0  0.97874  0
H  H73  1  0.65463988  0.88388277  0.84391613  1  0.062809  0  0.108021  0.117721  0  0.978712  0
H  H74  1  0.84536008  0.38388535  0.84391573  1  0.062819  0  0.108019  0.117733  0  0.978714  0
H  H75  1  0.15464105  0.61611714  0.34391680  1  0.062894  0  0.108013  0.117711  0  0.978704  0
H  H76  1  0.17758639  0.12424685  0.36209391  1  0.113803  0  0.114191  0.133912  0  1.001702  0
H  H77  1  0.82241765  0.87575608  0.86209440  1  0.113802  0  0.114191  0.133932  0  1.001639  0
H  H78  1  0.67758224  0.37575775  0.86209438  1  0.113813  0  0.114163  0.133891  0  1.001691  0
H  H79  1  0.32241693  0.62424189  0.36209542  1  0.113854  0  0.114172  0.133849  0  1.001696  0
H  H80  1  0.18932430  0.44516778  0.45070725  1  0.09514  0  0.118377  0.043788  0  0.994335  0
H  H81  1  0.81067188  0.55483460  0.95070866  1  0.095199  0  0.118388  0.043774  0  0.994367  0
H  H82  1  0.68932088  0.05483410  0.95070753  1  0.095145  0  0.118373  0.043781  0  0.994291  0
H  H83  1  0.31067822  0.94516334  0.45070801  1  0.095201  0  0.118364  0.043758  0  0.994402  0
H  H84  1  0.48126320  0.51979467  0.44002521  1  0.071538  0  0.101853  0.117173  0  1.000583  0
H  H85  1  0.51873688  0.48020503  0.94002390  1  0.071508  0  0.101826  0.117158  0  1.000596  0
H  H86  1  0.98125880  0.98020535  0.94002501  1  0.071443  0  0.101827  0.117166  0  1.000627  0
H  H87  1  0.01873934  0.01979216  0.44002484  1  0.071487  0  0.101843  0.117161  0  1.000621  0
H  H88  1  0.49888576  0.45365789  0.48840911  1  0.096826  0  0.113243  0.140704  0  0.984171  0
H  H89  1  0.50111234  0.54633986  0.98840798  1  0.09692  0  0.113284  0.140735  0  0.984171  0
H  H90  1  0.99888812  0.04633840  0.98840904  1  0.097013  0  0.113272  0.14074  0  0.984143  0
H  H91  1  0.00111193  0.95365716  0.48840805  1  0.096867  0  0.113233  0.140717  0  0.984198  0
H  H92  1  0.35044045  0.50436220  0.48268200  1  0.057595  0  0.110683  0.12166  0  0.986291  0
H  H93  1  0.64955766  0.49563559  0.98268137  1  0.057608  0  0.110689  0.121709  0  0.986307  0
H  H94  1  0.85043810  0.99563562  0.98268176  1  0.057532  0  0.110694  0.121724  0  0.98629  0
H  H95  1  0.14955903  0.00435998  0.48268199  1  0.057617  0  0.110689  0.121712  0  0.986264  0
H  H96  1  0.70737792  0.28258030  0.33223003  1  0.123491  0  0.116687  0.139601  0  0.992606  0
H  H97  1  0.29262809  0.71742062  0.83222694  1  0.123608  0  0.116659  0.139504  0  0.992747  0
H  H98  1  0.20738232  0.21741907  0.83223175  1  0.123421  0  0.116729  0.139676  0  0.992591  0
H  H99  1  0.79262272  0.78257747  0.33222931  1  0.12346  0  0.11672  0.139638  0  0.99265  0
H  H100  1  0.69831338  0.26854749  0.26654706  1  0.089633  0  0.106666  0.122336  0  0.994898  0
H  H101  1  0.30168878  0.73145164  0.76654283  1  0.08953  0  0.106665  0.122289  0  0.994912  0
H  H102  1  0.19831301  0.23145391  0.76654875  1  0.088389  0  0.106679  0.122334  0  0.994897  0
H  H103  1  0.80168721  0.76854633  0.26654634  1  0.088295  0  0.106666  0.122313  0  0.994923  0
H  H104  1  0.63664845  0.35151428  0.29302083  1  0.063169  0  0.107543  0.116918  0  0.979406  0
H  H105  1  0.36334980  0.64848688  0.79301757  1  0.063209  0  0.107549  0.116925  0  0.979426  0
H  H106  1  0.13664945  0.14848682  0.79302349  1  0.06349  0  0.107538  0.116893  0  0.979442  0
H  H107  1  0.86335269  0.85151051  0.29302010  1  0.063226  0  0.107535  0.116901  0  0.979388  0
H  H108  1  0.53425661  0.34834352  0.43076537  1  0.11948  0  0.112501  0.147183  0  0.993321  0
H  H109  1  0.46573861  0.65165734  0.93076580  1  0.119418  0  0.112506  0.147241  0  0.993232  0
H  H110  1  0.03426445  0.15165705  0.93076877  1  0.119309  0  0.112502  0.147298  0  0.99319  0
H  H111  1  0.96573467  0.84834106  0.43076648  1  0.119317  0  0.112484  0.147212  0  0.99323  0
H  H112  1  0.53206933  0.41079258  0.37954153  1  0.044692  0  0.100702  0.110192  0  0.99444  0
H  H113  1  0.46792983  0.58920804  0.87954251  1  0.043251  0  0.100701  0.110186  0  0.994467  0
H  H114  1  0.03207187  0.08920447  0.87954473  1  0.044636  0  0.100672  0.110128  0  0.99452  0
H  H115  1  0.96792923  0.91079287  0.37954376  1  0.04318  0  0.100695  0.11017  0  0.994432  0
H  H116  1  0.41852067  0.33599341  0.38099354  1  0.092208  0  0.106305  0.123084  0  1.005612  0
H  H117  1  0.58147557  0.66400776  0.88099318  1  0.092204  0  0.106315  0.123085  0  1.005588  0
H  H118  1  0.91852870  0.16400502  0.88099536  1  0.092335  0  0.106335  0.123086  0  1.005533  0
H  H119  1  0.08147240  0.83599231  0.38099433  1  0.092236  0  0.106338  0.123108  0  1.005585  0
H  H120  1  0.96379201  0.40729959  0.24655250  1  0.060875  0  0.114108  0.123905  0  0.984403  0
H  H121  1  0.03620043  0.59270186  0.74655278  1  0.060911  0  0.114091  0.123915  0  0.984328  0
H  H122  1  0.46378874  0.09270087  0.74655458  1  0.060935  0  0.114111  0.123914  0  0.984396  0
H  H123  1  0.53620565  0.90729949  0.24655441  1  0.060819  0  0.114105  0.123902  0  0.984348  0
H  H124  1  0.79474967  0.42932672  0.24155343  1  0.058277  0  0.105935  0.121351  0  0.99777  0
H  H125  1  0.20523888  0.57067641  0.74155226  1  0.058313  0  0.105882  0.121308  0  0.997852  0
H  H126  1  0.29474625  0.07067395  0.74155706  1  0.058284  0  0.105927  0.121367  0  0.997729  0
H  H127  1  0.70524717  0.92932479  0.24155532  1  0.058344  0  0.105934  0.12133  0  0.997763  0
H  H128  1  0.85683810  0.34790480  0.21314144  1  0.089405  0  0.113191  0.130586  0  0.967563  0
H  H129  1  0.14315340  0.65209577  0.71313968  1  0.089584  0  0.113148  0.130575  0  0.967485  0
H  H130  1  0.35683328  0.15209564  0.71314261  1  0.089457  0  0.113195  0.130624  0  0.96753  0
H  H131  1  0.64316016  0.84790383  0.21314259  1  0.089388  0  0.113186  0.130602  0  0.967504  0
C  C132  1  0.24229078  0.42928878  0.97460045  1  -1.7e-05  0  -0.070716  -0.106761  0  3.917318  0
C  C133  1  0.75770733  0.57071180  0.47460084  1  -5.6e-05  0  -0.070751  -0.106849  0  3.917415  0
C  C134  1  0.74228396  0.07071197  0.47460156  1  4e-06  0  -0.070703  -0.106635  0  3.917452  0
C  C135  1  0.25771220  0.92928752  0.97460158  1  -4.3e-05  0  -0.070742  -0.10683  0  3.917507  0
C  C136  1  0.21285830  0.47358456  0.89049338  1  -0.077422  0  -0.087795  -0.153491  0  3.966749  0
C  C137  1  0.78713988  0.52641874  0.39049390  1  -0.077378  0  -0.087674  -0.153274  0  3.966637  0
C  C138  1  0.71285701  0.02641555  0.39049388  1  -0.07737  0  -0.087751  -0.15343  0  3.966859  0
C  C139  1  0.28714408  0.97358391  0.89049414  1  -0.077238  0  -0.087767  -0.15352  0  3.966652  0
C  C140  1  0.30280894  0.35344843  0.90460827  1  -0.085056  0  -0.083256  -0.144348  0  3.925379  0
C  C141  1  0.69718923  0.64655313  0.40460808  1  -0.0851  0  -0.083279  -0.144374  0  3.92534  0
C  C142  1  0.80279972  0.14655398  0.40460843  1  -0.085486  0  -0.083319  -0.144314  0  3.925439  0
C  C143  1  0.19719845  0.85344594  0.90460830  1  -0.085661  0  -0.083295  -0.144246  0  3.925301  0
C  C144  1  0.39784671  0.34424392  0.74771471  1  -0.059411  0  -0.093866  -0.133909  0  3.99974  0
C  C145  1  0.60214768  0.65575588  0.24771525  1  -0.059417  0  -0.093821  -0.133825  0  3.999563  0
C  C146  1  0.89784924  0.15575475  0.24771595  1  -0.059254  0  -0.093771  -0.133747  0  3.999671  0
C  C147  1  0.10215294  0.84424506  0.74771623  1  -0.059357  0  -0.093779  -0.133765  0  3.999626  0
C  C148  1  0.27947950  0.39666923  0.81744965  1  0.013413  0  -0.014308  0.062182  0  4.025028  0
C  C149  1  0.72051873  0.60333124  0.31744996  1  0.013491  0  -0.014274  0.062181  0  4.025011  0
C  C150  1  0.77947679  0.10333094  0.31744993  1  0.013136  0  -0.014303  0.062197  0  4.025084  0
C  C151  1  0.22052825  0.89666733  0.81744968  1  0.013386  0  -0.014308  0.0622  0  4.024986  0
C  C152  1  0.14591292  0.55418216  0.96124806  1  1.595732  0  0.216568  0.602276  0  4.180471  0
C  C153  1  0.85408812  0.44581905  0.46124806  1  1.595666  0  0.21653  0.602233  0  4.18055  0
C  C154  1  0.64591062  0.94581809  0.46124736  1  1.595593  0  0.216558  0.602329  0  4.180483  0
C  C155  1  0.35408458  0.05418257  0.96124803  1  1.595652  0  0.216555  0.602275  0  4.180389  0
C  C156  1  0.38618193  0.35749912  0.79837156  1  -0.027736  0  -0.093115  -0.129801  0  3.988732  0
C  C157  1  0.61381437  0.64250147  0.29837288  1  -0.02768  0  -0.093158  -0.129867  0  3.98869  0
C  C158  1  0.88618047  0.14250031  0.29837247  1  -0.027717  0  -0.093103  -0.129722  0  3.988736  0
C  C159  1  0.11382265  0.85749754  0.79837309  1  -0.02797  0  -0.093161  -0.129839  0  3.988749  0
C  C160  1  0.26610130  0.40883956  0.87133737  1  -0.050617  0  -0.017453  0.04811  0  4.055233  0
C  C161  1  0.73389787  0.59116276  0.37133808  1  -0.050651  0  -0.017487  0.048055  0  4.055301  0
C  C162  1  0.76609948  0.09116079  0.37133805  1  -0.050418  0  -0.017412  0.048125  0  4.055247  0
C  C163  1  0.23390455  0.90883824  0.87133814  1  -0.050368  0  -0.017463  0.048109  0  4.055093  0
C  C164  1  0.18514085  0.42197846  0.78381016  1  -0.084343  0  -0.099359  -0.145401  0  4.033601  0
C  C165  1  0.81485839  0.57802221  0.28381053  1  -0.084353  0  -0.099328  -0.145293  0  4.033542  0
C  C166  1  0.68513700  0.07802335  0.28381051  1  -0.084064  0  -0.099322  -0.145352  0  4.033535  0
C  C167  1  0.31486418  0.92197842  0.78380981  1  -0.084145  0  -0.099356  -0.145478  0  4.033765  0
C  C168  1  0.28944631  0.36292279  0.95581308  1  -0.021536  0  -0.016284  -0.021014  0  3.979961  0
C  C169  1  0.71055571  0.63707681  0.45581180  1  -0.021678  0  -0.016197  -0.020821  0  3.980019  0
C  C170  1  0.78943897  0.13707818  0.45581363  1  -0.021287  0  -0.016219  -0.021169  0  3.980371  0
C  C171  1  0.21056111  0.86292142  0.95581273  1  -0.021398  0  -0.016209  -0.021123  0  3.980251  0
C  C172  1  0.30345841  0.36941297  0.71393415  1  -0.071216  0  -0.011098  0.063676  0  4.019631  0
C  C173  1  0.69653698  0.63058595  0.21393512  1  -0.070989  0  -0.011015  0.063825  0  4.019762  0
C  C174  1  0.80345881  0.13058735  0.21393509  1  -0.070936  0  -0.011081  0.06365  0  4.019675  0
C  C175  1  0.19653950  0.86941595  0.71393492  1  -0.071197  0  -0.01104  0.06375  0  4.01971  0
C  C176  1  0.33673450  0.33116432  0.55748685  1  -0.062925  0  -0.082314  -0.112325  0  3.959704  0
C  C177  1  0.66326588  0.66883557  0.05748697  1  -0.062964  0  -0.082319  -0.112333  0  3.9597  0
C  C178  1  0.83673906  0.16883540  0.05748731  1  -0.06296  0  -0.082373  -0.112423  0  3.959658  0
C  C179  1  0.16326132  0.83116285  0.55748726  1  -0.062399  0  -0.082406  -0.112486  0  3.959624  0
C  C180  1  0.09479819  0.32713025  0.54826651  1  1.564023  0  0.219199  0.604714  0  4.177092  0
C  C181  1  0.90520122  0.67286806  0.04826659  1  1.563868  0  0.219229  0.604877  0  4.176977  0
C  C182  1  0.59480473  0.17286900  0.04826733  1  1.563959  0  0.219216  0.604728  0  4.177172  0
C  C183  1  0.40519371  0.82713040  0.54826688  1  1.56366  0  0.219124  0.604655  0  4.177312  0
C  C184  1  0.44894821  0.33786022  0.58621634  1  -0.019688  0  -0.017986  -0.019369  0  3.996731  0
C  C185  1  0.55105312  0.66214114  0.08621613  1  -0.019687  0  -0.017975  -0.019285  0  3.996642  0
C  C186  1  0.94895078  0.16214176  0.08621682  1  -0.019976  0  -0.017976  -0.019402  0  3.996876  0
C  C187  1  0.05104958  0.83785850  0.58621676  1  -0.020559  0  -0.017973  -0.019371  0  3.996742  0
C  C188  1  0.19677837  0.40860662  0.73314291  1  -0.06546  0  -0.095509  -0.138332  0  4.012871  0
C  C189  1  0.80321798  0.59139327  0.23314398  1  -0.06577  0  -0.095617  -0.138573  0  4.013102  0
C  C190  1  0.69677753  0.09139334  0.23314359  1  -0.06545  0  -0.095552  -0.138426  0  4.013  0
C  C191  1  0.30322076  0.90860874  0.73314330  1  -0.06544  0  -0.09555  -0.13842  0  4.013082  0
C  C192  1  0.20397744  0.34674948  0.63065466  1  -0.051301  0  -0.080944  -0.13471  0  3.928153  0
C  C193  1  0.79602386  0.65325105  0.13065519  1  -0.051203  0  -0.080899  -0.13456  0  3.928051  0
C  C194  1  0.70398092  0.15324950  0.13065442  1  -0.051284  0  -0.080892  -0.134574  0  3.928048  0
C  C195  1  0.29602135  0.84674885  0.63065468  1  -0.051522  0  -0.080896  -0.134578  0  3.927964  0
C  C196  1  0.31388942  0.30080840  0.99068253  1  1.548351  0  0.205311  0.578686  0  4.167541  0
C  C197  1  0.68611452  0.69918825  0.49068108  1  1.548265  0  0.205307  0.578621  0  4.167701  0
C  C198  1  0.81388543  0.19919295  0.49068179  1  1.548188  0  0.205231  0.578694  0  4.16788  0
C  C199  1  0.18611657  0.80080698  0.99068107  1  1.548253  0  0.205274  0.578745  0  4.167765  0
C  C200  1  0.31563138  0.35526350  0.66013479  1  0.013131  0  -0.014821  0.049552  0  4.03589  0
C  C201  1  0.68436990  0.64473630  0.16013646  1  0.012751  0  -0.014901  0.049359  0  4.036018  0
C  C202  1  0.81563577  0.14473663  0.16013569  1  0.012947  0  -0.014865  0.049507  0  4.035812  0
C  C203  1  0.18436648  0.85526591  0.66013556  1  0.01331  0  -0.014841  0.049527  0  4.035845  0
C  C204  1  0.21430558  0.33518536  0.57952336  1  -0.019135  0  -0.023798  -0.036596  0  4.012507  0
C  C205  1  0.78569381  0.66481166  0.07952348  1  -0.018783  0  -0.023805  -0.036652  0  4.012567  0
C  C206  1  0.71430914  0.16481177  0.07952309  1  -0.018857  0  -0.02383  -0.036611  0  4.01257  0
C  C207  1  0.28569123  0.83518471  0.57952301  1  -0.018781  0  -0.023785  -0.036583  0  4.012666  0
C  C208  1  0.93178896  0.33628876  0.32626122  1  1.38277  0  0.185037  0.308834  0  4.083587  0
C  C209  1  0.06821316  0.66371439  0.82626129  1  1.382932  0  0.18509  0.30907  0  4.083499  0
C  C210  1  0.43179006  0.16371332  0.82626124  1  1.382852  0  0.185123  0.309009  0  4.083384  0
C  C211  1  0.56821108  0.83628380  0.32626201  1  1.383041  0  0.185093  0.30903  0  4.083468  0
C  C212  1  0.22482320  0.20865169  0.43310808  1  1.355124  0  0.177719  0.307999  0  4.07333  0
C  C213  1  0.77518176  0.79134915  0.93310807  1  1.354794  0  0.177804  0.308106  0  4.073172  0
C  C214  1  0.72482042  0.29134873  0.93310879  1  1.354894  0  0.177817  0.308099  0  4.073157  0
C  C215  1  0.27518356  0.70864828  0.43310810  1  1.354741  0  0.177828  0.308111  0  4.073133  0
C  C216  1  0.20201516  0.48403863  0.94177465  1  -0.040592  0  -0.020919  -0.038924  0  4.013498  0
C  C217  1  0.79798298  0.51596215  0.44177520  1  -0.04058  0  -0.020968  -0.038979  0  4.013553  0
C  C218  1  0.70201380  0.01596169  0.44177518  1  -0.040598  0  -0.020951  -0.038982  0  4.013602  0
C  C219  1  0.29798336  0.98403910  0.94177542  1  -0.040588  0  -0.020934  -0.03881  0  4.013386  0
C  C220  1  0.43843024  0.35037666  0.63726894  1  -0.063599  0  -0.077393  -0.130672  0  3.911355  0
C  C221  1  0.56157106  0.64962493  0.13726913  1  -0.063159  0  -0.077358  -0.130634  0  3.911432  0
C  C222  1  0.93843369  0.14962388  0.13726908  1  -0.063621  0  -0.077341  -0.130617  0  3.911406  0
C  C223  1  0.06156760  0.85037771  0.63726861  1  -0.063605  0  -0.077327  -0.130617  0  3.911382  0
C  C224  1  0.57795136  0.33114048  0.56081719  1  1.556688  0  0.192541  0.560085  0  4.23228  0
C  C225  1  0.42205097  0.66886104  0.06081697  1  1.556684  0  0.19259  0.560135  0  4.232175  0
C  C226  1  0.07795483  0.16886030  0.06081770  1  1.556982  0  0.192638  0.560332  0  4.232211  0
C  C227  1  0.92204652  0.83113957  0.56081756  1  1.55697  0  0.192582  0.560298  0  4.232041  0
C  C228  1  0.44561138  0.16015772  0.43212139  1  0.26939  0  -0.127228  -0.277629  0  3.901621  0
C  C229  1  0.55439163  0.83984258  0.93212164  1  0.269494  0  -0.12715  -0.277488  0  3.901442  0
C  C230  1  0.94560894  0.33984265  0.93212160  1  0.269443  0  -0.127169  -0.277545  0  3.901447  0
C  C231  1  0.05439310  0.66015656  0.43212293  1  0.269368  0  -0.127253  -0.277612  0  3.901546  0
C  C232  1  0.27606647  0.11105617  0.37484028  1  0.219262  0  -0.126269  -0.259291  0  3.893607  0
C  C233  1  0.72393658  0.88894503  0.87484111  1  0.219316  0  -0.126281  -0.259386  0  3.893559  0
C  C234  1  0.77606437  0.38894692  0.87484109  1  0.219343  0  -0.126274  -0.259422  0  3.893511  0
C  C235  1  0.22393479  0.61105319  0.37484217  1  0.219255  0  -0.126238  -0.259227  0  3.893428  0
C  C236  1  0.24836671  0.40866021  0.42689851  1  1.379016  0  0.165704  0.292816  0  4.14218  0
C  C237  1  0.75163339  0.59134122  0.92689871  1  1.378831  0  0.16576  0.292952  0  4.142126  0
C  C238  1  0.74836841  0.09134140  0.92690017  1  1.379012  0  0.165715  0.292834  0  4.142121  0
C  C239  1  0.25163266  0.90865619  0.42689965  1  1.378836  0  0.165742  0.292885  0  4.142059  0
C  C240  1  0.42979652  0.47813091  0.46206550  1  0.242015  0  -0.128115  -0.277213  0  3.90132  0
C  C241  1  0.57020355  0.52186866  0.96206480  1  0.241954  0  -0.128168  -0.277317  0  3.901411  0
C  C242  1  0.92979580  0.02186704  0.96206661  1  0.241921  0  -0.128135  -0.277362  0  3.901417  0
C  C243  1  0.07020427  0.97812923  0.46206591  1  0.242023  0  -0.128126  -0.277332  0  3.901468  0
C  C244  1  0.71295148  0.30945040  0.29598631  1  0.201893  0  -0.127186  -0.267816  0  3.886256  0
C  C245  1  0.28704969  0.69055184  0.79598331  1  0.201841  0  -0.127148  -0.267614  0  3.886454  0
C  C246  1  0.21295277  0.19055085  0.79598811  1  0.202882  0  -0.127196  -0.267805  0  3.886359  0
C  C247  1  0.78704840  0.80944701  0.29598596  1  0.203159  0  -0.127186  -0.267738  0  3.886364  0
C  C248  1  0.47129477  0.37606727  0.40357942  1  0.216327  0  -0.134194  -0.27546  0  3.882465  0
C  C249  1  0.52870340  0.62393430  0.90358029  1  0.21779  0  -0.134191  -0.275477  0  3.882545  0
C  C250  1  0.97130059  0.12393169  0.90358284  1  0.21646  0  -0.134195  -0.275549  0  3.882471  0
C  C251  1  0.02870050  0.87606550  0.40358133  1  0.217909  0  -0.134212  -0.27552  0  3.882509  0
C  C252  1  0.86515214  0.38432808  0.24553573  1  0.259496  0  -0.123462  -0.279136  0  3.924131  0
C  C253  1  0.13484128  0.61567393  0.74553555  1  0.259528  0  -0.123333  -0.279018  0  3.923966  0
C  C254  1  0.36514805  0.11567272  0.74553737  1  0.259482  0  -0.123443  -0.279164  0  3.924031  0
C  C255  1  0.63484537  0.88432710  0.24553725  1  0.259573  0  -0.123439  -0.279043  0  3.92394  0
N  N256  1  0.31172307  0.16172768  0.41421525  1  -1.207335  0  -0.280091  0.025204  0  3.72287  0
N  N257  1  0.68828093  0.83827218  0.91421549  1  -1.207322  0  -0.280098  0.025316  0  3.72274  0
N  N258  1  0.81171964  0.33827305  0.91421583  1  -1.207286  0  -0.280092  0.025401  0  3.722631  0
N  N259  1  0.18828144  0.66172572  0.41421639  1  -1.207432  0  -0.280112  0.025243  0  3.722787  0
N  N260  1  0.84035330  0.34369382  0.29097941  1  -1.20627  0  -0.280246  0.022072  0  3.728595  0
N  N261  1  0.15964495  0.65631010  0.79097800  1  -1.2067  0  -0.280369  0.021725  0  3.728867  0
N  N262  1  0.34035241  0.15630829  0.79098057  1  -1.206466  0  -0.28044  0.021792  0  3.728647  0
N  N263  1  0.65964584  0.84369124  0.29098056  1  -1.206516  0  -0.280439  0.021665  0  3.728739  0
N  N264  1  0.37688510  0.42125307  0.42989695  1  -1.207299  0  -0.280722  0.025831  0  3.716328  0
N  N265  1  0.62311402  0.57874888  0.92989720  1  -1.20727  0  -0.280717  0.025784  0  3.716478  0
N  N266  1  0.87688671  0.07874825  0.92989976  1  -1.207311  0  -0.28075  0.025899  0  3.716281  0
N  N267  1  0.12311241  0.92124987  0.42989848  1  -1.207279  0  -0.280727  0.025898  0  3.716464  0
O  O268  1  0.06789939  0.58756182  0.93202959  1  -1.18484  0  -0.32538  -0.581706  0  2.363111  0
O  O269  1  0.93210557  0.41244012  0.43203043  1  -1.184825  0  -0.325361  -0.581735  0  2.363095  0
O  O270  1  0.56789491  0.91243954  0.43202973  1  -1.184865  0  -0.325391  -0.581767  0  2.363102  0
O  O271  1  0.43210227  0.08756076  0.93203103  1  -1.184798  0  -0.325383  -0.581772  0  2.363156  0
O  O272  1  0.91764150  0.29800989  0.36426646  1  -1.157698  0  -0.283615  -0.441146  0  2.442647  0
O  O273  1  0.08236156  0.70199138  0.86426716  1  -1.157789  0  -0.283577  -0.441122  0  2.442678  0
O  O274  1  0.41764482  0.20199193  0.86426600  1  -1.157675  0  -0.283595  -0.441121  0  2.442622  0
O  O275  1  0.58235435  0.79800386  0.36426613  1  -1.157814  0  -0.283561  -0.441073  0  2.442684  0
O  O276  1  0.18048041  0.57338287  0.00443208  1  -1.169937  0  -0.311637  -0.541517  0  2.324115  0
O  O277  1  0.81951806  0.42661680  0.50443126  1  -1.169722  0  -0.311618  -0.541459  0  2.324122  0
O  O278  1  0.68047662  0.92661537  0.50443092  1  -1.169656  0  -0.311644  -0.541513  0  2.324126  0
O  O279  1  0.31951504  0.07338431  0.00443131  1  -1.169767  0  -0.31165  -0.541521  0  2.32408  0
O  O280  1  0.34657931  0.23717452  0.97147417  1  -1.18057  0  -0.334087  -0.609683  0  2.445094  0
O  O281  1  0.65342952  0.76282335  0.47147477  1  -1.180423  0  -0.334114  -0.609751  0  2.445107  0
O  O282  1  0.84658354  0.26282429  0.47147251  1  -1.180503  0  -0.334137  -0.609696  0  2.44512  0
O  O283  1  0.15342529  0.73717467  0.97147235  1  -1.18046  0  -0.334081  -0.60969  0  2.445104  0
O  O284  1  0.98676882  0.32646742  0.57124962  1  -1.163508  0  -0.311259  -0.528883  0  2.32545  0
O  O285  1  0.01323155  0.67352801  0.07125054  1  -1.163726  0  -0.31125  -0.528959  0  2.32544  0
O  O286  1  0.48677330  0.17352871  0.07125123  1  -1.163568  0  -0.311301  -0.528953  0  2.325557  0
O  O287  1  0.51322902  0.82647055  0.57124967  1  -1.163361  0  -0.31126  -0.528899  0  2.32548  0
O  O288  1  0.19583401  0.36046064  0.40046740  1  -1.16429  0  -0.314051  -0.487213  0  2.298923  0
O  O289  1  0.80416708  0.63953931  0.90046708  1  -1.164152  0  -0.314106  -0.487277  0  2.298892  0
O  O290  1  0.69583604  0.13954047  0.90046929  1  -1.16425  0  -0.314035  -0.487189  0  2.299017  0
O  O291  1  0.30416699  0.86045838  0.40046816  1  -1.164159  0  -0.314064  -0.487228  0  2.298813  0
O  O292  1  0.68082504  0.33825092  0.58783194  1  -1.137418  0  -0.335209  -0.546656  0  2.210366  0
O  O293  1  0.31917434  0.66174878  0.08783101  1  -1.137335  0  -0.335217  -0.546638  0  2.210283  0
O  O294  1  0.18083041  0.16174991  0.08783137  1  -1.137435  0  -0.335231  -0.546713  0  2.210462  0
O  O295  1  0.81916994  0.83825034  0.58783085  1  -1.137404  0  -0.335227  -0.546722  0  2.210395  0
O  O296  1  0.58176561  0.31882554  0.51468643  1  -1.175562  0  -0.330451  -0.57441  0  2.154449  0
O  O297  1  0.41824161  0.68117627  0.01468617  1  -1.175592  0  -0.330471  -0.574487  0  2.154401  0
O  O298  1  0.08176723  0.18117609  0.01468691  1  -1.175532  0  -0.330519  -0.574589  0  2.154409  0
O  O299  1  0.91823416  0.81882298  0.51468680  1  -1.175552  0  -0.33049  -0.574579  0  2.15431  0
O  O300  1  0.10777595  0.21217286  0.41962148  1  -1.157547  0  -0.298644  -0.458646  0  2.368835  0
O  O301  1  0.89222707  0.78782751  0.91961999  1  -1.157322  0  -0.298711  -0.45873  0  2.368692  0
O  O302  1  0.60777413  0.28782410  0.91962072  1  -1.157273  0  -0.298705  -0.458755  0  2.368739  0
O  O303  1  0.39222792  0.71217353  0.41961815  1  -1.157141  0  -0.298793  -0.458792  0  2.368782  0
O  O304  1  0.11192060  0.32204677  0.50150501  1  -1.172487  0  -0.320897  -0.59765  0  2.396961  0
O  O305  1  0.88808274  0.67795566  0.00150471  1  -1.172426  0  -0.320934  -0.59775  0  2.396878  0
O  O306  1  0.61192425  0.17795555  0.00150507  1  -1.172574  0  -0.320865  -0.597592  0  2.396903  0
O  O307  1  0.38807228  0.82204688  0.50150390  1  -1.172632  0  -0.320858  -0.597631  0  2.396919  0
O  O308  1  0.29461299  0.30763098  0.03611885  1  -1.137066  0  -0.305902  -0.510147  0  2.094969  0
O  O309  1  0.70538936  0.69236193  0.53611802  1  -1.136997  0  -0.305901  -0.510108  0  2.09499  0
O  O310  1  0.79460661  0.19237535  0.53611837  1  -1.136951  0  -0.3058  -0.510101  0  2.095121  0
O  O311  1  0.20538989  0.80762851  0.03611814  1  -1.136935  0  -0.305875  -0.510144  0  2.095004  0
