# generated using pymatgen
data_CdH4C4O5
_symmetry_space_group_name_H-M   'P 1'
_cell_length_a   6.84596375
_cell_length_b   8.52904218
_cell_length_c   10.03707024
_cell_angle_alpha   89.99972661
_cell_angle_beta   89.99992667
_cell_angle_gamma   90.00010862
_symmetry_Int_Tables_number   1
_chemical_formula_structural   CdH4C4O5
_chemical_formula_sum   'Cd4 H16 C16 O20'
_cell_volume   586.05964973
_cell_formula_units_Z   4
loop_
 _symmetry_equiv_pos_site_id
 _symmetry_equiv_pos_as_xyz
  1  'x, y, z'
loop_
 _atom_site_type_symbol
 _atom_site_label
 _atom_site_symmetry_multiplicity
 _atom_site_fract_x
 _atom_site_fract_y
 _atom_site_fract_z
 _atom_site_occupancy
 _atom_site_hle17_bader_spin_density
 _atom_site_hle17_ddec_charge
 _atom_site_hle17_ddec_spin_density
 _atom_site_hle17_ddec_sum_bond_order
 _atom_site_hle17_magmom
 _atom_site_hse06_10hf_bader_spin_density
 _atom_site_hse06_10hf_ddec_charge
 _atom_site_hse06_10hf_ddec_spin_density
 _atom_site_hse06_10hf_ddec_sum_bond_order
 _atom_site_hse06_10hf_magmom
 _atom_site_hse06_bader_spin_density
 _atom_site_hse06_ddec_charge
 _atom_site_hse06_ddec_spin_density
 _atom_site_hse06_ddec_sum_bond_order
 _atom_site_hse06_magmom
 _atom_site_pbe_bader_spin_density
 _atom_site_pbe_cm5_charge
 _atom_site_pbe_ddec_charge
 _atom_site_pbe_ddec_spin_density
 _atom_site_pbe_ddec_sum_bond_order
 _atom_site_pbe_magmom
Cd  Cd0  1  0.65256738  0.35671217  0.04588389  1  0  1.290395  0  1.575024  0  0  1.109369  0  2.029475  0  0  1.170774  0  1.96642  0  0  0.79377  1.065101  0  2.073099  0
Cd  Cd1  1  0.84743391  0.64328939  0.54588371  1  0  1.290437  0  1.575  0  0  1.109397  0  2.029452  0  0  1.170799  0  1.966401  0  0  0.793761  1.065121  0  2.073079  0
Cd  Cd2  1  0.15256950  0.14329136  0.95412069  1  0  1.290456  0  1.574961  0  0  1.109405  0  2.029407  0  0  1.170808  0  1.966354  0  0  0.793771  1.065135  0  2.073031  0
Cd  Cd3  1  0.34742868  0.85670949  0.45411568  1  0  1.290433  0  1.574962  0  0  1.109376  0  2.02941  0  0  1.170781  0  1.966356  0  0  0.793762  1.065102  0  2.073031  0
H  H4  1  0.98573162  0.90552012  0.71051283  1  0  0.399111  0  0.881442  0  0  0.371598  0  0.956874  0  0  0.382262  0  0.944759  0  0  0.30418  0.364039  0  0.965414  0
H  H5  1  0.51426937  0.09448168  0.21051718  1  0  0.399105  0  0.881447  0  0  0.371609  0  0.956866  0  0  0.382275  0  0.944744  0  0  0.304186  0.364052  0  0.965405  0
H  H6  1  0.48572753  0.59448131  0.28948544  1  0  0.399082  0  0.881442  0  0  0.371568  0  0.956884  0  0  0.382232  0  0.944768  0  0  0.304188  0.364012  0  0.965422  0
H  H7  1  0.01427971  0.40551929  0.78948951  1  0  0.399075  0  0.881415  0  0  0.371595  0  0.95681  0  0  0.382259  0  0.944694  0  0  0.304234  0.364038  0  0.965351  0
H  H8  1  0.89632686  0.84307052  0.90747983  1  0  0.072012  0  0.934473  0  0  0.083646  0  0.994284  0  0  0.085391  0  0.992685  0  0  0.117822  0.082357  0  0.995519  0
H  H9  1  0.60367669  0.15693839  0.40748087  1  0  0.072019  0  0.934521  0  0  0.083656  0  0.994317  0  0  0.0854  0  0.992717  0  0  0.117829  0.082338  0  0.995584  0
H  H10  1  0.39632181  0.65692961  0.09251752  1  0  0.072024  0  0.934478  0  0  0.083649  0  0.99429  0  0  0.085394  0  0.99269  0  0  0.117828  0.082356  0  0.995534  0
H  H11  1  0.10367848  0.34306859  0.59252077  1  0  0.07202  0  0.93452  0  0  0.083662  0  0.994321  0  0  0.085407  0  0.99272  0  0  0.117834  0.08237  0  0.995558  0
H  H12  1  0.50231386  0.89897371  0.77177894  1  0  0.135015  0  0.926577  0  0  0.146813  0  0.989469  0  0  0.149966  0  0.987454  0  0  0.107877  0.144565  0  0.991023  0
H  H13  1  0.99768847  0.10103478  0.27178084  1  0  0.135047  0  0.926469  0  0  0.146833  0  0.989404  0  0  0.149987  0  0.987389  0  0  0.107856  0.144584  0  0.990963  0
H  H14  1  0.00230551  0.60103051  0.22822076  1  0  0.135013  0  0.926493  0  0  0.146797  0  0.989456  0  0  0.149952  0  0.98744  0  0  0.107863  0.144546  0  0.991013  0
H  H15  1  0.49769599  0.39896810  0.72822243  1  0  0.134997  0  0.926558  0  0  0.146809  0  0.989495  0  0  0.149964  0  0.987476  0  0  0.107862  0.144547  0  0.991068  0
H  H16  1  0.51900963  0.85289656  0.94146600  1  0  0.129323  0  0.939446  0  0  0.141778  0  1.0  0  0  0.144361  0  0.999034  0  0  0.109108  0.139943  0  1.00075  0
H  H17  1  0.98098656  0.14710277  0.44146773  1  0  0.129318  0  0.939479  0  0  0.141792  0  1.000009  0  0  0.144373  0  0.999047  0  0  0.10911  0.139957  0  1.000759  0
H  H18  1  0.01900753  0.64710182  0.05853469  1  0  0.129288  0  0.939469  0  0  0.141769  0  1.000022  0  0  0.144347  0  0.999064  0  0  0.109102  0.139933  0  1.000772  0
H  H19  1  0.48099428  0.35289305  0.55853556  1  0  0.12936  0  0.939344  0  0  0.141833  0  0.999918  0  0  0.144376  0  0.998993  0  0  0.109114  0.139999  0  1.000665  0
C  C20  1  0.75640188  0.63375281  0.85338386  1  0  0.646682  0  3.835046  0  0  0.591159  0  4.14235  0  0  0.624979  0  4.136333  0  0  0.213769  0.568084  0  4.145737  0
C  C21  1  0.74359739  0.36625406  0.35337993  1  0  0.646683  0  3.834984  0  0  0.591245  0  4.142148  0  0  0.625064  0  4.136126  0  0  0.213737  0.56817  0  4.145528  0
C  C22  1  0.25639285  0.86624945  0.14661263  1  0  0.647075  0  3.834955  0  0  0.591541  0  4.142224  0  0  0.625359  0  4.136205  0  0  0.213851  0.568464  0  4.145616  0
C  C23  1  0.24359420  0.13374609  0.64661958  1  0  0.646634  0  3.8351  0  0  0.591191  0  4.142267  0  0  0.625011  0  4.136248  0  0  0.213727  0.568113  0  4.145656  0
C  C24  1  0.78590124  0.81085835  0.83233252  1  0  0.146716  0  3.614708  0  0  0.121324  0  3.864836  0  0  0.124165  0  3.873047  0  0  -0.002682  0.119179  0  3.859323  0
C  C25  1  0.71409807  0.18914277  0.33232934  1  0  0.146583  0  3.614907  0  0  0.121171  0  3.865083  0  0  0.124012  0  3.873299  0  0  -0.002717  0.119045  0  3.859569  0
C  C26  1  0.28589613  0.68913926  0.16766593  1  0  0.146618  0  3.614825  0  0  0.121261  0  3.864943  0  0  0.124101  0  3.873161  0  0  -0.002684  0.119118  0  3.859431  0
C  C27  1  0.21410110  0.31085499  0.66767020  1  0  0.1466  0  3.614778  0  0  0.121192  0  3.865001  0  0  0.124035  0  3.873208  0  0  -0.002721  0.119052  0  3.859484  0
C  C28  1  0.60054978  0.90463772  0.85821945  1  0  -0.31845  0  3.645  0  0  -0.360326  0  3.888245  0  0  -0.366903  0  3.893995  0  0  -0.168343  -0.355833  0  3.884474  0
C  C29  1  0.89945094  0.09536677  0.35822246  1  0  -0.31846  0  3.644857  0  0  -0.36042  0  3.888205  0  0  -0.366997  0  3.893952  0  0  -0.168376  -0.355931  0  3.884439  0
C  C30  1  0.10054449  0.59536078  0.14178116  1  0  -0.318281  0  3.644919  0  0  -0.360275  0  3.888292  0  0  -0.366854  0  3.894048  0  0  -0.168299  -0.355775  0  3.88451  0
C  C31  1  0.39945863  0.40463244  0.64178190  1  0  -0.318428  0  3.644721  0  0  -0.360461  0  3.88823  0  0  -0.367004  0  3.893989  0  0  -0.168406  -0.355949  0  3.884446  0
C  C32  1  0.63974850  0.07371903  0.89379026  1  0  0.748959  0  3.788362  0  0  0.699933  0  4.078555  0  0  0.735917  0  4.070632  0  0  0.21586  0.675334  0  4.083075  0
C  C33  1  0.86024777  0.92628292  0.39378695  1  0  0.748962  0  3.788425  0  0  0.699996  0  4.078532  0  0  0.73598  0  4.070611  0  0  0.215881  0.675396  0  4.083052  0
C  C34  1  0.13974114  0.42627745  0.10621433  1  0  0.748757  0  3.788597  0  0  0.699795  0  4.078763  0  0  0.735784  0  4.070837  0  0  0.215762  0.675194  0  4.083283  0
C  C35  1  0.36025328  0.57371598  0.60621143  1  0  0.748785  0  3.788585  0  0  0.699804  0  4.078791  0  0  0.735788  0  4.070862  0  0  0.215809  0.675202  0  4.083307  0
O  O36  1  0.67052486  0.59815641  0.96199136  1  0  -0.639701  0  2.027108  0  0  -0.572358  0  2.288351  0  0  -0.603503  0  2.276208  0  0  -0.321222  -0.55048  0  2.295862  0
O  O37  1  0.82947713  0.40184867  0.46198621  1  0  -0.639758  0  2.026906  0  0  -0.572445  0  2.288107  0  0  -0.603592  0  2.275961  0  0  -0.321242  -0.550566  0  2.295616  0
O  O38  1  0.17051903  0.90184220  0.03800321  1  0  -0.639883  0  2.027086  0  0  -0.572514  0  2.288298  0  0  -0.603661  0  2.276157  0  0  -0.321246  -0.550635  0  2.295812  0
O  O39  1  0.32947406  0.09815395  0.53801023  1  0  -0.639699  0  2.026891  0  0  -0.572398  0  2.288111  0  0  -0.603544  0  2.275965  0  0  -0.321247  -0.550517  0  2.295617  0
O  O40  1  0.82379045  0.53616066  0.76988655  1  0  -0.645329  0  2.056375  0  0  -0.580609  0  2.304989  0  0  -0.608423  0  2.292662  0  0  -0.312685  -0.561192  0  2.312833  0
O  O41  1  0.67621335  0.46384316  0.26987930  1  0  -0.645307  0  2.056558  0  0  -0.580568  0  2.305102  0  0  -0.60838  0  2.292767  0  0  -0.312611  -0.561154  0  2.31295  0
O  O42  1  0.32377419  0.96383584  0.23010987  1  0  -0.645571  0  2.056413  0  0  -0.580842  0  2.305038  0  0  -0.608654  0  2.292703  0  0  -0.31273  -0.561428  0  2.312889  0
O  O43  1  0.17622146  0.03615923  0.73012227  1  0  -0.645306  0  2.056673  0  0  -0.580543  0  2.305197  0  0  -0.608355  0  2.292863  0  0  -0.312594  -0.561129  0  2.313045  0
O  O44  1  0.86135316  0.84595181  0.70296299  1  0  -0.582841  0  2.157426  0  0  -0.516605  0  2.394183  0  0  -0.537684  0  2.382438  0  0  -0.398067  -0.501644  0  2.401909  0
O  O45  1  0.63865077  0.15405004  0.20296500  1  0  -0.582702  0  2.157567  0  0  -0.516488  0  2.394356  0  0  -0.537565  0  2.382611  0  0  -0.398042  -0.501526  0  2.402072  0
O  O46  1  0.36134627  0.65404592  0.29703340  1  0  -0.582801  0  2.15746  0  0  -0.516542  0  2.394186  0  0  -0.537619  0  2.382444  0  0  -0.398084  -0.50158  0  2.40191  0
O  O47  1  0.13865949  0.34594996  0.79703859  1  0  -0.582738  0  2.157446  0  0  -0.516507  0  2.394187  0  0  -0.537576  0  2.382429  0  0  -0.398082  -0.501549  0  2.401912  0
O  O48  1  0.81084207  0.12598994  0.90616620  1  0  -0.671838  0  2.050401  0  0  -0.606915  0  2.313108  0  0  -0.636761  0  2.298924  0  0  -0.324351  -0.58587  0  2.322061  0
O  O49  1  0.68915419  0.87401311  0.40616425  1  0  -0.671855  0  2.050477  0  0  -0.606951  0  2.313138  0  0  -0.636796  0  2.298954  0  0  -0.324387  -0.585904  0  2.322088  0
O  O50  1  0.31084045  0.37400797  0.09383326  1  0  -0.671825  0  2.05047  0  0  -0.606894  0  2.31312  0  0  -0.636744  0  2.298937  0  0  -0.32433  -0.585848  0  2.322074  0
O  O51  1  0.18916860  0.62598318  0.59382930  1  0  -0.671699  0  2.050698  0  0  -0.606763  0  2.313366  0  0  -0.636608  0  2.299185  0  0  -0.32426  -0.585721  0  2.322322  0
O  O52  1  0.49262978  0.16455437  0.91702302  1  0  -0.710063  0  2.072623  0  0  -0.628812  0  2.341621  0  0  -0.664548  0  2.329489  0  0  -0.335033  -0.60358  0  2.348879  0
O  O53  1  0.00736408  0.83544903  0.41701940  1  0  -0.710116  0  2.072805  0  0  -0.628782  0  2.341656  0  0  -0.664499  0  2.329479  0  0  -0.334994  -0.603546  0  2.348904  0
O  O54  1  0.99262609  0.33544498  0.08298325  1  0  -0.709929  0  2.072736  0  0  -0.628738  0  2.341774  0  0  -0.664473  0  2.329631  0  0  -0.334971  -0.603503  0  2.349023  0
O  O55  1  0.50737952  0.66455285  0.58298129  1  0  -0.710006  0  2.072552  0  0  -0.628812  0  2.341626  0  0  -0.664559  0  2.32952  0  0  -0.335047  -0.603586  0  2.348902  0
