# generated using pymatgen
data_HgH6C7S(IN)2
_symmetry_space_group_name_H-M   'P 1'
_cell_length_a   6.63694437
_cell_length_b   9.25671938
_cell_length_c   10.95855220
_cell_angle_alpha   112.10816902
_cell_angle_beta   89.97037678
_cell_angle_gamma   111.08860075
_symmetry_Int_Tables_number   1
_chemical_formula_structural   HgH6C7S(IN)2
_chemical_formula_sum   'Hg2 H12 C14 S2 I4 N4'
_cell_volume   574.84614242
_cell_formula_units_Z   2
loop_
 _symmetry_equiv_pos_site_id
 _symmetry_equiv_pos_as_xyz
  1  'x, y, z'
loop_
 _atom_site_type_symbol
 _atom_site_label
 _atom_site_symmetry_multiplicity
 _atom_site_fract_x
 _atom_site_fract_y
 _atom_site_fract_z
 _atom_site_occupancy
 _atom_site_hle17_bader_spin_density
 _atom_site_hle17_ddec_charge
 _atom_site_hle17_ddec_spin_density
 _atom_site_hle17_ddec_sum_bond_order
 _atom_site_hle17_magmom
 _atom_site_hse06_10hf_bader_spin_density
 _atom_site_hse06_10hf_ddec_charge
 _atom_site_hse06_10hf_ddec_spin_density
 _atom_site_hse06_10hf_ddec_sum_bond_order
 _atom_site_hse06_10hf_magmom
 _atom_site_hse06_bader_spin_density
 _atom_site_hse06_ddec_charge
 _atom_site_hse06_ddec_spin_density
 _atom_site_hse06_ddec_sum_bond_order
 _atom_site_hse06_magmom
 _atom_site_pbe_bader_spin_density
 _atom_site_pbe_cm5_charge
 _atom_site_pbe_ddec_charge
 _atom_site_pbe_ddec_spin_density
 _atom_site_pbe_ddec_sum_bond_order
 _atom_site_pbe_magmom
Hg  Hg0  1  0.64807122  0.29746923  0.44812930  1  0  0.464056  0  2.284386  0  0  0.365327  0  2.779834  0  0  0.405145  0  2.756187  0  0  0.30359  0.338206  0  2.795941  0
Hg  Hg1  1  0.35193824  0.70252940  0.55186895  1  0  0.464047  0  2.284354  0  0  0.36532  0  2.77979  0  0  0.405134  0  2.756146  0  0  0.303588  0.338199  0  2.795893  0
H  H2  1  0.61443784  0.22912152  0.90479592  1  0  0.314509  0  0.878844  0  0  0.293976  0  0.94643  0  0  0.302575  0  0.939348  0  0  0.306578  0.288489  0  0.95048  0
H  H3  1  0.38556496  0.77087586  0.09520101  1  0  0.314534  0  0.878845  0  0  0.293994  0  0.946433  0  0  0.302597  0  0.939345  0  0  0.306593  0.288498  0  0.950483  0
H  H4  1  0.78080653  0.56061328  0.72121998  1  0  0.286395  0  0.939769  0  0  0.264843  0  1.016515  0  0  0.273216  0  1.009592  0  0  0.279392  0.259427  0  1.021166  0
H  H5  1  0.21919314  0.43939290  0.27878527  1  0  0.286409  0  0.939703  0  0  0.264825  0  1.016483  0  0  0.273207  0  1.009557  0  0  0.279394  0.259409  0  1.021139  0
H  H6  1  0.93777969  0.87306724  0.94855686  1  0  0.107933  0  0.976284  0  0  0.118658  0  1.038726  0  0  0.121498  0  1.036845  0  0  0.097093  0.116663  0  1.040451  0
H  H7  1  0.06221358  0.12693517  0.05144352  1  0  0.10795  0  0.97638  0  0  0.118683  0  1.038794  0  0  0.121524  0  1.03691  0  0  0.09711  0.116689  0  1.040521  0
H  H8  1  0.99456409  0.98744908  0.19996293  1  0  0.084263  0  0.980521  0  0  0.091732  0  1.050741  0  0  0.09494  0  1.048721  0  0  0.081042  0.089277  0  1.052624  0
H  H9  1  0.00542187  0.01255076  0.80004028  1  0  0.084283  0  0.980532  0  0  0.091731  0  1.050765  0  0  0.094952  0  1.048732  0  0  0.081067  0.089277  0  1.052647  0
H  H10  1  0.89656967  0.79253988  0.31361431  1  0  0.086829  0  0.979127  0  0  0.096112  0  1.044737  0  0  0.099209  0  1.043115  0  0  0.081429  0.093731  0  1.046413  0
H  H11  1  0.10342407  0.20745746  0.68638535  1  0  0.086901  0  0.979074  0  0  0.096176  0  1.044671  0  0  0.099275  0  1.043046  0  0  0.081455  0.093792  0  1.046345  0
H  H12  1  0.74017492  0.47976915  0.18589667  1  0  0.101924  0  0.987044  0  0  0.10539  0  1.064115  0  0  0.10906  0  1.062132  0  0  0.081914  0.103519  0  1.064367  0
H  H13  1  0.25982486  0.52022821  0.81410117  1  0  0.101955  0  0.987016  0  0  0.105422  0  1.064083  0  0  0.109092  0  1.062101  0  0  0.081916  0.10355  0  1.06433  0
C  C14  1  0.67518254  0.35021436  0.77295593  1  0  0.400889  0  3.774748  0  0  0.357494  0  4.073131  0  0  0.382672  0  4.081594  0  0  0.233963  0.340783  0  4.065236  0
C  C15  1  0.32482194  0.64978937  0.22703940  1  0  0.400938  0  3.774689  0  0  0.357526  0  4.073076  0  0  0.38272  0  4.081515  0  0  0.233908  0.340802  0  4.065194  0
C  C16  1  0.75212650  0.50372056  0.99579492  1  0  0.158543  0  3.771221  0  0  0.149848  0  4.017687  0  0  0.154137  0  4.039902  0  0  0.093782  0.146735  0  4.0031  0
C  C17  1  0.24787479  0.49627680  0.00420383  1  0  0.158577  0  3.771071  0  0  0.149819  0  4.017621  0  0  0.154111  0  4.039831  0  0  0.093792  0.146694  0  4.003043  0
C  C18  1  0.80839705  0.61584087  0.93129851  1  0  0.157033  0  3.799832  0  0  0.150841  0  4.043205  0  0  0.154404  0  4.064747  0  0  0.090686  0.148277  0  4.02914  0
C  C19  1  0.19160573  0.38415647  0.06870206  1  0  0.157112  0  3.799748  0  0  0.150928  0  4.043137  0  0  0.154492  0  4.064683  0  0  0.090706  0.14836  0  4.029086  0
C  C20  1  0.89594859  0.79042520  0.00147385  1  0  -0.156845  0  3.770703  0  0  -0.179382  0  4.027712  0  0  -0.180619  0  4.045633  0  0  -0.105345  -0.178654  0  4.015815  0
C  C21  1  0.10405244  0.20957464  0.99853026  1  0  -0.156933  0  3.770714  0  0  -0.179475  0  4.027723  0  0  -0.180715  0  4.045648  0  0  -0.105428  -0.178746  0  4.015829  0
C  C22  1  0.92628255  0.85143193  0.14025247  1  0  -0.075169  0  3.794608  0  0  -0.095205  0  4.058842  0  0  -0.096895  0  4.079488  0  0  -0.107964  -0.093792  0  4.044406  0
C  C23  1  0.07371611  0.14856921  0.85974841  1  0  -0.075129  0  3.794541  0  0  -0.095144  0  4.058764  0  0  -0.096845  0  4.079405  0  0  -0.107915  -0.093723  0  4.04431  0
C  C24  1  0.87059016  0.74048715  0.20510973  1  0  -0.065463  0  3.775676  0  0  -0.083653  0  4.034372  0  0  -0.085664  0  4.056538  0  0  -0.106571  -0.082211  0  4.019447  0
C  C25  1  0.12940724  0.25951148  0.79488852  1  0  -0.065503  0  3.775613  0  0  -0.083673  0  4.034308  0  0  -0.085687  0  4.056479  0  0  -0.106599  -0.082228  0  4.019377  0
C  C26  1  0.78262867  0.56479855  0.13467555  1  0  -0.145588  0  3.720599  0  0  -0.165741  0  3.97808  0  0  -0.168659  0  3.996988  0  0  -0.105831  -0.163829  0  3.964535  0
C  C27  1  0.21736808  0.43519878  0.86532593  1  0  -0.145694  0  3.720707  0  0  -0.165835  0  3.978215  0  0  -0.168754  0  3.997124  0  0  -0.105858  -0.16392  0  3.964664  0
S  S28  1  0.58944134  0.17972438  0.62431922  1  0  -0.279814  0  2.22092  0  0  -0.250757  0  2.596892  0  0  -0.269283  0  2.593466  0  0  -0.135432  -0.236676  0  2.599014  0
S  S29  1  0.41056464  0.82027933  0.37567884  1  0  -0.279865  0  2.220831  0  0  -0.250814  0  2.596832  0  0  -0.269343  0  2.593397  0  0  -0.135447  -0.236725  0  2.59896  0
I  I30  1  0.56559993  0.12849074  0.17703369  1  0  -0.339895  0  1.232212  0  0  -0.298406  0  1.589819  0  0  -0.315691  0  1.573347  0  0  -0.178562  -0.287044  0  1.601337  0
I  I31  1  0.43439382  0.87150662  0.82296415  1  0  -0.339888  0  1.23221  0  0  -0.298397  0  1.589807  0  0  -0.315682  0  1.573336  0  0  -0.178572  -0.287036  0  1.601318  0
I  I32  1  0.83062042  0.66120548  0.53158686  1  0  -0.367214  0  1.320227  0  0  -0.313934  0  1.677635  0  0  -0.336323  0  1.658591  0  0  -0.166081  -0.300136  0  1.691051  0
I  I33  1  0.16937786  0.33879188  0.46841098  1  0  -0.367204  0  1.320243  0  0  -0.313914  0  1.67763  0  0  -0.336302  0  1.658588  0  0  -0.166072  -0.300109  0  1.691033  0
N  N34  1  0.67077773  0.34150656  0.89433479  1  0  -0.363749  0  3.351733  0  0  -0.299467  0  3.576636  0  0  -0.317601  0  3.586668  0  0  -0.36635  -0.287246  0  3.568784  0
N  N35  1  0.32923124  0.65849712  0.10566600  1  0  -0.363847  0  3.351814  0  0  -0.299537  0  3.576729  0  0  -0.317684  0  3.586759  0  0  -0.366331  -0.287288  0  3.568864  0
N  N36  1  0.75858607  0.51639355  0.79540870  1  0  -0.368631  0  3.40287  0  0  -0.307671  0  3.629101  0  0  -0.326115  0  3.63982  0  0  -0.377335  -0.295523  0  3.621293  0
N  N37  1  0.24141347  0.48360635  0.20458995  1  0  -0.368647  0  3.402626  0  0  -0.307641  0  3.62887  0  0  -0.326097  0  3.639571  0  0  -0.377304  -0.295489  0  3.621074  0
