# generated using pymatgen
data_Al4H31C42N3O23
_symmetry_space_group_name_H-M   'P 1'
_cell_length_a   6.72431511
_cell_length_b   16.46485836
_cell_length_c   18.54387993
_cell_angle_alpha   106.87480658
_cell_angle_beta   89.79273929
_cell_angle_gamma   90.44022090
_symmetry_Int_Tables_number   1
_chemical_formula_structural   Al4H31C42N3O23
_chemical_formula_sum   'Al4 H31 C42 N3 O23'
_cell_volume   1964.62059511
_cell_formula_units_Z   1
loop_
 _symmetry_equiv_pos_site_id
 _symmetry_equiv_pos_as_xyz
  1  'x, y, z'
loop_
 _atom_site_type_symbol
 _atom_site_label
 _atom_site_symmetry_multiplicity
 _atom_site_fract_x
 _atom_site_fract_y
 _atom_site_fract_z
 _atom_site_occupancy
 _atom_site_pbe_bader_charge
 _atom_site_pbe_bader_spin_density
 _atom_site_pbe_cm5_charge
 _atom_site_pbe_ddec_charge
 _atom_site_pbe_ddec_spin_density
 _atom_site_pbe_ddec_sum_bond_order
 _atom_site_pbe_magmom
Al  Al0  1  0.10355757  0.50303183  0.50244069  1  2.499583  0  0.402944  1.634498  0  2.569354  0
Al  Al1  1  0.60346898  0.50492204  0.50174952  1  2.504312  0  0.400303  1.639309  0  2.576117  0
Al  Al2  1  0.66204593  0.00263365  0.00018930  1  2.504507  0  0.401952  1.642227  0  2.567007  0
Al  Al3  1  0.16340847  0.00224522  0.99810889  1  2.499494  0  0.398542  1.642385  0  2.576737  0
H  H4  1  0.98031297  0.79782005  0.63770426  1  0.070623  0  0.100259  0.086756  0  0.987998  0
H  H5  1  0.67074023  0.87392326  0.73996342  1  0.0736  0  0.100588  0.089014  0  0.987508  0
H  H6  1  0.52696300  0.70852360  0.73075905  1  0.062141  0  0.096471  0.099036  0  1.022971  0
H  H7  1  0.22924969  0.80522341  0.76306757  1  0.067673  0  0.096334  0.095512  0  1.009112  0
H  H8  1  0.27183340  0.37155675  0.23373167  1  0.087773  0  0.114677  0.126399  0  0.958386  0
H  H9  1  0.15704008  0.20098339  0.34427825  1  0.08183  0  0.106209  0.119495  0  1.004226  0
H  H10  1  0.04780786  0.08092484  0.17675303  1  0.070258  0  0.095956  0.0934  0  1.047134  0
H  H11  1  0.80567937  0.12113469  0.17101979  1  0.144055  0  0.106831  0.123797  0  1.052039  0
H  H12  1  0.92025919  0.13932081  0.26129319  1  0.053578  0  0.089473  0.080524  0  1.058639  0
H  H13  1  0.68826210  0.75504096  0.91160024  1  0.400503  0  0.29333  0.236768  0  0.9681  0
H  H14  1  0.69822217  0.62326051  0.93271122  1  0.04321  0  0.100704  0.107149  0  0.980764  0
H  H15  1  0.86613715  0.58459152  0.85616535  1  0.034846  0  0.098833  0.10774  0  1.019551  0
H  H16  1  0.61263878  0.59860525  0.83762650  1  0.015242  0  0.085505  0.080849  0  1.04346  0
H  H17  1  0.15755722  0.58668298  0.70295285  1  0.432164  0  0.294729  0.245324  0  0.97763  0
H  H18  1  0.30122706  0.56346654  0.81281273  1  0.038924  0  0.098966  0.103119  0  0.999258  0
H  H19  1  0.15709665  0.64820403  0.87024902  1  0.05858  0  0.100194  0.10903  0  1.005487  0
H  H20  1  0.35757067  0.67109487  0.81663416  1  0.017967  0  0.08268  0.073599  0  1.043599  0
H  H21  1  0.25790915  0.03937978  0.29041287  1  0.030963  0  0.095628  0.091639  0  0.998241  0
H  H22  1  0.47842677  0.97630246  0.28200571  1  0.082091  0  0.109199  0.114875  0  0.974632  0
H  H23  1  0.39086369  0.00668704  0.20252829  1  0.074478  0  0.102356  0.108715  0  1.000865  0
H  H24  1  0.74798008  0.18154816  0.38591054  1  0.085985  0  0.096906  0.096815  0  1.02277  0
H  H25  1  0.64866167  0.28295769  0.43662850  1  0.062828  0  0.101825  0.106413  0  0.999738  0
H  H26  1  0.91119919  0.27101627  0.42203201  1  0.055929  0  0.107979  0.113189  0  0.998138  0
H  H27  1  0.80551932  0.27606249  0.17435958  1  0.491494  0  0.292746  0.244293  0  1.032814  0
H  H28  1  0.72424875  0.32687776  0.07070116  1  0.049091  0  0.105669  0.112736  0  0.976084  0
H  H29  1  0.47410895  0.34331757  0.10232370  1  0.029438  0  0.098532  0.100946  0  0.98742  0
H  H30  1  0.56093205  0.23817009  0.05948973  1  0.037878  0  0.087766  0.089385  0  1.021593  0
H  H31  1  0.35228260  0.60539333  0.49036479  1  0.609013  0  0.354127  0.43449  0  0.84872  0
H  H32  1  0.85144456  0.40175575  0.44719943  1  0.619839  0  0.339585  0.411662  0  0.906314  0
H  H33  1  0.41009068  0.89533145  0.95006863  1  0.611281  0  0.349365  0.424507  0  0.86436  0
H  H34  1  0.91846337  0.11404324  0.03368198  1  0.612162  0  0.355691  0.437118  0  0.841696  0
C  C35  1  0.36157108  0.38176409  0.39208641  1  1.564222  0  0.268511  0.656241  0  4.087953  0
C  C36  1  0.34751119  0.42195682  0.59009694  1  1.700472  0  0.27388  0.685969  0  4.194918  0
C  C37  1  0.84678907  0.61820833  0.61609345  1  1.534182  0  0.273991  0.661294  0  4.080913  0
C  C38  1  0.86378267  0.59047705  0.41578436  1  1.679345  0  0.273761  0.699394  0  4.181258  0
C  C39  1  0.86578625  0.64026137  0.36341595  1  0.219939  0  -0.001396  -0.135018  0  3.831707  0
C  C40  1  0.87282509  0.68379031  0.31982522  1  -0.323298  0  -0.011155  0.023257  0  4.264775  0
C  C41  1  0.88177135  0.73143929  0.27225164  1  0.06447  0  -0.003079  -0.006289  0  4.19748  0
C  C42  1  0.89218776  0.77540513  0.22861351  1  -0.090902  0  -0.001879  -0.004355  0  4.202  0
C  C43  1  0.90311489  0.82255858  0.18066534  1  -0.24764  0  -0.013369  0.01581  0  4.264481  0
C  C44  1  0.91247023  0.86514784  0.13634041  1  0.161836  0  0.003517  -0.123108  0  3.816935  0
C  C45  1  0.76156243  0.82009670  0.74277698  1  -0.023857  0  -0.074856  -0.05237  0  3.658083  0
C  C46  1  0.93663249  0.78041009  0.68817641  1  -0.05667  0  -0.069754  -0.046815  0  3.638166  0
C  C47  1  0.85506072  0.68961530  0.68591508  1  0.03159  0  -0.007284  -0.084806  0  3.698698  0
C  C48  1  0.68173552  0.72967290  0.73990270  1  -0.059484  0  -0.091288  -0.149833  0  3.63953  0
C  C49  1  0.82227498  0.73104234  0.80997323  1  0.432234  0  0.101084  0.156732  0  3.691125  0
C  C50  1  0.99507278  0.69002089  0.75360577  1  0.448856  0  0.102028  0.162807  0  3.714764  0
C  C51  1  0.07514751  0.78257935  0.75636142  1  -0.056313  0  -0.087862  -0.140338  0  3.632076  0
C  C52  1  0.90141469  0.82234471  0.81064066  1  0.005009  0  -0.010277  -0.089453  0  3.699519  0
C  C53  1  0.57399091  0.25812786  0.29354213  1  0.595145  0  0.087731  0.115596  0  3.723314  0
C  C54  1  0.45766475  0.17094280  0.27331547  1  0.562872  0  0.086618  0.18667  0  3.745391  0
C  C55  1  0.40262977  0.17651446  0.19106256  1  -0.092093  0  -0.037332  -0.282424  0  3.634471  0
C  C56  1  0.52785253  0.26896068  0.21414634  1  0.511996  0  0.110575  0.17986  0  3.729803  0
C  C57  1  0.32560964  0.31332503  0.24390771  1  -0.050311  0  -0.06722  -0.156369  0  3.572223  0
C  C58  1  0.21184540  0.22698204  0.22578948  1  0.591964  0  0.085249  0.263261  0  3.761789  0
C  C59  1  0.26058972  0.21925807  0.30618223  1  -0.074636  0  -0.092819  -0.216153  0  3.65089  0
C  C60  1  0.37473473  0.30592191  0.32552490  1  -0.028546  0  -0.012434  -0.084369  0  3.67624  0
C  C61  1  0.35548774  0.37420221  0.64393922  1  0.118416  0  0.001118  -0.133742  0  3.823023  0
C  C62  1  0.36931654  0.33164821  0.68810492  1  -0.213648  0  -0.007402  0.028949  0  4.256034  0
C  C63  1  0.38416894  0.28421523  0.73560166  1  -0.135534  0  -0.002105  -0.007962  0  4.19779  0
C  C64  1  0.39756594  0.23947532  0.77842593  1  0.091424  0  0.000687  0.000281  0  4.195798  0
C  C65  1  0.40787619  0.19054208  0.82480473  1  -0.287994  0  -0.011417  0.019829  0  4.256024  0
C  C66  1  0.41413399  0.14530843  0.86693231  1  0.201077  0  0.002056  -0.127116  0  3.820909  0
C  C67  1  0.41015324  0.09259631  0.91694313  1  1.698597  0  0.271616  0.6886  0  4.199262  0
C  C68  1  0.41500364  0.11243702  0.11727579  1  1.517822  0  0.257636  0.659912  0  4.099027  0
C  C69  1  0.91793095  0.91399540  0.08310660  1  1.700454  0  0.271935  0.685635  0  4.198142  0
C  C70  1  0.90711730  0.89063205  0.88247115  1  1.543764  0  0.274159  0.667873  0  4.074297  0
C  C71  1  0.94609113  0.13336965  0.20161809  1  0.278349  0  -0.160669  -0.194  0  3.886482  0
C  C72  1  0.73721689  0.62542988  0.87575771  1  0.284379  0  -0.148424  -0.214556  0  3.995776  0
C  C73  1  0.23593253  0.62536448  0.81622759  1  0.26354  0  -0.146816  -0.215619  0  4.006005  0
C  C74  1  0.40629046  0.02675811  0.26427818  1  0.361671  0  -0.136132  -0.167044  0  3.902801  0
C  C75  1  0.76503297  0.25053472  0.39696147  1  0.333735  0  -0.142636  -0.187385  0  3.891194  0
C  C76  1  0.60281601  0.30120868  0.09740128  1  0.278864  0  -0.140534  -0.204781  0  3.991505  0
N  N77  1  0.78726500  0.71323370  0.87920458  1  -1.115827  0  -0.474741  -0.357652  0  3.511517  0
N  N78  1  0.09617845  0.61550982  0.75437235  1  -1.148872  0  -0.474703  -0.350825  0  3.504747  0
N  N79  1  0.66524077  0.29888268  0.17182591  1  -1.197912  0  -0.468644  -0.332664  0  3.54393  0
O  O80  1  0.51201843  0.43129023  0.55929314  1  -1.218428  0  -0.219765  -0.565435  0  2.301723  0
O  O81  1  0.19313024  0.40280565  0.42399453  1  -1.260897  0  -0.239366  -0.597264  0  2.304227  0
O  O82  1  0.03226292  0.56287243  0.42908501  1  -1.226759  0  -0.228656  -0.581363  0  2.272534  0
O  O83  1  0.17807751  0.44929894  0.57794323  1  -1.227909  0  -0.220453  -0.561674  0  2.284301  0
O  O84  1  0.01331928  0.59609172  0.58286676  1  -1.261557  0  -0.237697  -0.602794  0  2.336752  0
O  O85  1  0.52544723  0.42177183  0.41124256  1  -1.261425  0  -0.23788  -0.6031  0  2.371608  0
O  O86  1  0.35289453  0.55526967  0.50778719  1  -1.411788  0  -0.449117  -0.992986  0  2.177304  0
O  O87  1  0.67810113  0.58540104  0.59314296  1  -1.263636  0  -0.232332  -0.582784  0  2.323235  0
O  O88  1  0.69521944  0.58031322  0.44377508  1  -1.227036  0  -0.227285  -0.581628  0  2.272094  0
O  O89  1  0.85254413  0.45215378  0.49043182  1  -1.42631  0  -0.449968  -0.984818  0  2.171366  0
O  O90  1  0.25542104  0.09388315  0.07824726  1  -1.274584  0  -0.242366  -0.616141  0  2.398935  0
O  O91  1  0.57563249  0.08107792  0.94568440  1  -1.231099  0  -0.22847  -0.585785  0  2.302089  0
O  O92  1  0.73833949  0.92167604  0.90810400  1  -1.269051  0  -0.240559  -0.608505  0  2.323103  0
O  O93  1  0.58480771  0.07979361  0.09408623  1  -1.267782  0  -0.239332  -0.60117  0  2.371947  0
O  O94  1  0.75093170  0.92549899  0.05571159  1  -1.223759  0  -0.22461  -0.570033  0  2.288851  0
O  O95  1  0.23964768  0.06398106  0.92739963  1  -1.219021  0  -0.224347  -0.566676  0  2.283012  0
O  O96  1  0.41200256  0.94995797  0.98823851  1  -1.41582  0  -0.448535  -0.986765  0  2.181559  0
O  O97  1  0.08845310  0.94000346  0.06916461  1  -1.223064  0  -0.224911  -0.572084  0  2.298049  0
O  O98  1  0.07423280  0.91150486  0.91512650  1  -1.269074  0  -0.234376  -0.599541  0  2.331656  0
O  O99  1  0.91344312  0.05346982  0.00904593  1  -1.413149  0  -0.446115  -0.986574  0  2.171152  0
O  O100  1  0.02567252  0.21192619  0.19328722  1  -1.073412  0  -0.207665  -0.206457  0  2.548883  0
O  O101  1  0.53309904  0.10030577  0.28901353  1  -1.064365  0  -0.207157  -0.19394  0  2.547644  0
O  O102  1  0.75770755  0.27376526  0.32778396  1  -1.056102  0  -0.201814  -0.168125  0  2.530053  0
