# generated using pymatgen
data_LiBH24(C11O4)2
_symmetry_space_group_name_H-M   'P 1'
_cell_length_a   8.75733757
_cell_length_b   9.63793394
_cell_length_c   14.29965673
_cell_angle_alpha   88.54925247
_cell_angle_beta   86.75717515
_cell_angle_gamma   62.97114546
_symmetry_Int_Tables_number   1
_chemical_formula_structural   LiBH24(C11O4)2
_chemical_formula_sum   'Li2 B2 H48 C44 O16'
_cell_volume   1073.38374712
_cell_formula_units_Z   2
loop_
 _symmetry_equiv_pos_site_id
 _symmetry_equiv_pos_as_xyz
  1  'x, y, z'
loop_
 _atom_site_type_symbol
 _atom_site_label
 _atom_site_symmetry_multiplicity
 _atom_site_fract_x
 _atom_site_fract_y
 _atom_site_fract_z
 _atom_site_occupancy
 _atom_site_hle17_bader_spin_density
 _atom_site_hle17_ddec_charge
 _atom_site_hle17_ddec_spin_density
 _atom_site_hle17_ddec_sum_bond_order
 _atom_site_hle17_magmom
 _atom_site_hse06_10hf_bader_spin_density
 _atom_site_hse06_10hf_ddec_charge
 _atom_site_hse06_10hf_ddec_spin_density
 _atom_site_hse06_10hf_ddec_sum_bond_order
 _atom_site_hse06_10hf_magmom
 _atom_site_hse06_bader_spin_density
 _atom_site_hse06_ddec_charge
 _atom_site_hse06_ddec_spin_density
 _atom_site_hse06_ddec_sum_bond_order
 _atom_site_hse06_magmom
 _atom_site_pbe_bader_spin_density
 _atom_site_pbe_cm5_charge
 _atom_site_pbe_ddec_charge
 _atom_site_pbe_ddec_spin_density
 _atom_site_pbe_ddec_sum_bond_order
 _atom_site_pbe_magmom
Li  Li0  1  0.65240261  0.62667538  0.89842997  1  0  0.832625  0  0.450787  0  0  0.789114  0  0.561536  0  0  0.799085  0  0.544273  0  0  0.538902  0.781966  0  0.573931  0
Li  Li1  1  0.27866241  0.37366021  0.39865912  1  0  0.831682  0  0.452129  0  0  0.788572  0  0.562165  0  0  0.79851  0  0.544956  0  0  0.539291  0.781453  0  0.574532  0
B  B2  1  0.83391407  0.05620720  0.74659808  1  0  1.064371  0  2.87228  0  0  0.899282  0  3.220876  0  0  0.93318  0  3.19448  0  0  0.068233  0.8757  0  3.23912  0
B  B3  1  0.88988934  0.94397486  0.24691299  1  0  1.063148  0  2.87626  0  0  0.897114  0  3.226803  0  0  0.931339  0  3.199652  0  0  0.068704  0.873429  0  3.245308  0
H  H4  1  0.72781009  0.60693885  0.70303458  1  0  0.094601  0  0.974751  0  0  0.10164  0  1.042682  0  0  0.104771  0  1.040381  0  0  0.110927  0.099676  0  1.043744  0
H  H5  1  0.33434285  0.39291256  0.20306287  1  0  0.095882  0  0.973771  0  0  0.102683  0  1.041687  0  0  0.105811  0  1.039406  0  0  0.111125  0.100335  0  1.043495  0
H  H6  1  0.68724028  0.58873252  0.53269857  1  0  0.088115  0  0.965322  0  0  0.099639  0  1.025434  0  0  0.102438  0  1.02511  0  0  0.09968  0.09761  0  1.025819  0
H  H7  1  0.27620528  0.41097647  0.03261965  1  0  0.088394  0  0.965258  0  0  0.099857  0  1.025399  0  0  0.102702  0  1.025031  0  0  0.099403  0.097772  0  1.025882  0
H  H8  1  0.68366736  0.79618136  0.42337960  1  0  0.088334  0  0.966895  0  0  0.095872  0  1.035539  0  0  0.098611  0  1.03311  0  0  0.101216  0.09384  0  1.037377  0
H  H9  1  0.48075740  0.20354761  0.92334591  1  0  0.088606  0  0.966244  0  0  0.09575  0  1.035358  0  0  0.098515  0  1.032868  0  0  0.101201  0.093809  0  1.037066  0
H  H10  1  0.72092502  0.01736879  0.48173990  1  0  0.127794  0  0.957991  0  0  0.132751  0  1.024532  0  0  0.137428  0  1.021518  0  0  0.110278  0.129248  0  1.026969  0
H  H11  1  0.73905479  0.98246406  0.98187560  1  0  0.127661  0  0.958292  0  0  0.132604  0  1.024756  0  0  0.137308  0  1.021726  0  0  0.11035  0.129136  0  1.02729  0
H  H12  1  0.96105872  0.47899824  0.83565182  1  0  0.095183  0  0.98414  0  0  0.101183  0  1.053259  0  0  0.105037  0  1.049735  0  0  0.113089  0.098355  0  1.055847  0
H  H13  1  0.43977240  0.52106680  0.33578951  1  0  0.094963  0  0.984203  0  0  0.101517  0  1.05269  0  0  0.105334  0  1.049215  0  0  0.113172  0.098831  0  1.055178  0
H  H14  1  0.27740460  0.38640120  0.81560359  1  0  0.093287  0  0.956209  0  0  0.106366  0  1.013381  0  0  0.10917  0  1.013011  0  0  0.10378  0.104529  0  1.013485  0
H  H15  1  0.66363877  0.61340464  0.31563224  1  0  0.093137  0  0.955132  0  0  0.106278  0  1.012178  0  0  0.109033  0  1.01184  0  0  0.103618  0.104341  0  1.012496  0
H  H16  1  0.46531313  0.11824013  0.75759810  1  0  0.089981  0  0.963758  0  0  0.097831  0  1.029785  0  0  0.100828  0  1.027244  0  0  0.104567  0.095734  0  1.031539  0
H  H17  1  0.58359902  0.88147561  0.25769214  1  0  0.089741  0  0.964736  0  0  0.097066  0  1.031198  0  0  0.100066  0  1.028689  0  0  0.104392  0.095029  0  1.032951  0
H  H18  1  0.34147318  0.93937651  0.72226286  1  0  0.119655  0  0.932624  0  0  0.131504  0  0.988381  0  0  0.135024  0  0.987455  0  0  0.112326  0.128949  0  0.989273  0
H  H19  1  0.28074305  0.06057813  0.22256615  1  0  0.11958  0  0.932966  0  0  0.131109  0  0.988877  0  0  0.134593  0  0.987994  0  0  0.112342  0.128531  0  0.98992  0
H  H20  1  0.67382249  0.36964474  0.03422143  1  0  0.052025  0  0.960913  0  0  0.065361  0  1.027677  0  0  0.064506  0  1.029907  0  0  0.101133  0.065955  0  1.026185  0
H  H21  1  0.04330025  0.63072936  0.53464630  1  0  0.05184  0  0.959996  0  0  0.065001  0  1.026785  0  0  0.06415  0  1.029006  0  0  0.100978  0.065489  0  1.025385  0
H  H22  1  0.89817624  0.29505541  0.00340790  1  0  0.038759  0  0.931846  0  0  0.053103  0  0.997467  0  0  0.053154  0  0.997801  0  0  0.093034  0.05286  0  0.99755  0
H  H23  1  0.19327710  0.70493572  0.50358471  1  0  0.039076  0  0.931657  0  0  0.052743  0  0.997615  0  0  0.052835  0  0.99789  0  0  0.093122  0.052488  0  0.99763  0
H  H24  1  0.90706764  0.25608135  0.17217531  1  0  0.086462  0  0.959692  0  0  0.100637  0  1.02538  0  0  0.102684  0  1.02408  0  0  0.093824  0.099094  0  1.026554  0
H  H25  1  0.16349746  0.74433900  0.67233931  1  0  0.087086  0  0.95917  0  0  0.100788  0  1.025739  0  0  0.102953  0  1.024273  0  0  0.094117  0.099226  0  1.026766  0
H  H26  1  0.71193607  0.43027146  0.19206566  1  0  0.068106  0  0.95708  0  0  0.085336  0  1.020185  0  0  0.085114  0  1.02262  0  0  0.087275  0.085412  0  1.018552  0
H  H27  1  0.14242109  0.57029500  0.69239895  1  0  0.068299  0  0.957129  0  0  0.086054  0  1.019811  0  0  0.08583  0  1.022278  0  0  0.087569  0.086132  0  1.018208  0
H  H28  1  0.93151437  0.51971371  0.21633345  1  0  0.088204  0  0.955802  0  0  0.103384  0  1.020931  0  0  0.104543  0  1.020967  0  0  0.096225  0.102437  0  1.021062  0
H  H29  1  0.45158523  0.48055905  0.71637397  1  0  0.088678  0  0.955756  0  0  0.10356  0  1.021228  0  0  0.104776  0  1.021208  0  0  0.096379  0.102625  0  1.02136  0
H  H30  1  0.06191473  0.40284943  0.12162020  1  0  0.064775  0  0.959554  0  0  0.085021  0  1.018297  0  0  0.085246  0  1.019752  0  0  0.088164  0.084867  0  1.017332  0
H  H31  1  0.46505828  0.59725838  0.62160832  1  0  0.06581  0  0.960035  0  0  0.085264  0  1.019822  0  0  0.085448  0  1.021342  0  0  0.088293  0.085226  0  1.01851  0
H  H32  1  0.72661237  0.70477490  0.11265265  1  0  0.047333  0  0.937425  0  0  0.059  0  1.006765  0  0  0.059527  0  1.0063  0  0  0.096191  0.058501  0  1.007272  0
H  H33  1  0.43158396  0.29541356  0.61280050  1  0  0.047252  0  0.937381  0  0  0.058049  0  1.007915  0  0  0.058624  0  1.007397  0  0  0.095959  0.057763  0  1.007863  0
H  H34  1  0.91419566  0.64297482  0.03668453  1  0  0.051141  0  0.941921  0  0  0.063146  0  1.010602  0  0  0.063791  0  1.009344  0  0  0.101406  0.062577  0  1.011593  0
H  H35  1  0.55704151  0.35717175  0.53661032  1  0  0.05087  0  0.941032  0  0  0.063113  0  1.00951  0  0  0.063828  0  1.008162  0  0  0.101733  0.062533  0  1.010427  0
H  H36  1  0.35091799  0.57414786  0.90459788  1  0  0.049521  0  0.939467  0  0  0.062452  0  1.008008  0  0  0.063068  0  1.006748  0  0  0.103494  0.061853  0  1.009011  0
H  H37  1  0.92517108  0.42551781  0.40463282  1  0  0.048889  0  0.939533  0  0  0.062003  0  1.008318  0  0  0.06262  0  1.007062  0  0  0.10343  0.061533  0  1.009201  0
H  H38  1  0.22949920  0.73957600  0.83325062  1  0  0.056399  0  0.931233  0  0  0.070737  0  0.993568  0  0  0.071426  0  0.993409  0  0  0.099138  0.070087  0  0.993785  0
H  H39  1  0.96955767  0.26008217  0.33314664  1  0  0.056  0  0.93131  0  0  0.070508  0  0.993752  0  0  0.071264  0  0.993495  0  0  0.099253  0.069849  0  0.994079  0
H  H40  1  0.02038626  0.79032651  0.96108963  1  0  0.086365  0  0.952823  0  0  0.101474  0  1.018876  0  0  0.102797  0  1.018016  0  0  0.097481  0.100495  0  1.019575  0
H  H41  1  0.81137472  0.20895335  0.46090019  1  0  0.085918  0  0.95321  0  0  0.100978  0  1.01911  0  0  0.102339  0  1.018241  0  0  0.097098  0.099874  0  1.019951  0
H  H42  1  0.18087070  0.70480659  0.04504774  1  0  0.069049  0  0.930854  0  0  0.088957  0  0.987465  0  0  0.089363  0  0.98847  0  0  0.091172  0.088486  0  0.98704  0
H  H43  1  0.88590053  0.29477819  0.54492085  1  0  0.068997  0  0.93097  0  0  0.088291  0  0.988143  0  0  0.088754  0  0.989064  0  0  0.091036  0.088009  0  0.987376  0
H  H44  1  0.07755916  0.01549722  0.94199639  1  0  0.070438  0  0.951533  0  0  0.086827  0  1.013884  0  0  0.087318  0  1.015142  0  0  0.089236  0.08645  0  1.013128  0
H  H45  1  0.09407435  0.98402403  0.44188104  1  0  0.070777  0  0.951612  0  0  0.086797  0  1.014538  0  0  0.087246  0  1.015837  0  0  0.08919  0.086361  0  1.013833  0
H  H46  1  0.09516124  0.98219945  0.06485837  1  0  0.090348  0  0.954929  0  0  0.105697  0  1.016054  0  0  0.107229  0  1.015995  0  0  0.096551  0.104522  0  1.016256  0
H  H47  1  0.07808974  0.01758264  0.56473649  1  0  0.090543  0  0.955045  0  0  0.106166  0  1.016109  0  0  0.107657  0  1.016071  0  0  0.096885  0.105103  0  1.016083  0
H  H48  1  0.36785922  0.97927866  0.95486144  1  0  0.05109  0  0.943115  0  0  0.06546  0  1.007793  0  0  0.06467  0  1.009424  0  0  0.099697  0.065816  0  1.006943  0
H  H49  1  0.34774390  0.02078998  0.45474599  1  0  0.05114  0  0.943305  0  0  0.065369  0  1.008164  0  0  0.064613  0  1.00972  0  0  0.099951  0.065821  0  1.00716  0
H  H50  1  0.40646311  0.84194191  0.04840471  1  0  0.04177  0  0.936718  0  0  0.05445  0  1.003357  0  0  0.054839  0  1.0034  0  0  0.097083  0.054019  0  1.003467  0
H  H51  1  0.24877600  0.15811114  0.54833848  1  0  0.041801  0  0.935809  0  0  0.054343  0  1.002669  0  0  0.054666  0  1.002777  0  0  0.097094  0.054014  0  1.002666  0
C  C52  1  0.77470122  0.83170481  0.78726485  1  0  0.691947  0  3.823455  0  0  0.639798  0  4.114866  0  0  0.675318  0  4.103756  0  0  0.254395  0.615913  0  4.122026  0
C  C53  1  0.60598601  0.16853184  0.28739356  1  0  0.691439  0  3.824065  0  0  0.639062  0  4.115857  0  0  0.674629  0  4.10483  0  0  0.253443  0.614985  0  4.123002  0
C  C54  1  0.75144135  0.81914372  0.68752743  1  0  -0.252956  0  3.82161  0  0  -0.232034  0  4.058473  0  0  -0.247948  0  4.082734  0  0  -0.033994  -0.221647  0  4.042241  0
C  C55  1  0.57045355  0.18085526  0.18764271  1  0  -0.252704  0  3.821813  0  0  -0.23196  0  4.058835  0  0  -0.24793  0  4.083187  0  0  -0.034198  -0.221422  0  4.042498  0
C  C56  1  0.72733708  0.69509821  0.65358430  1  0  -0.037314  0  3.762373  0  0  -0.060614  0  4.011793  0  0  -0.055918  0  4.030404  0  0  -0.076123  -0.063572  0  3.998848  0
C  C57  1  0.42230911  0.30477201  0.15363112  1  0  -0.038347  0  3.763569  0  0  -0.061342  0  4.012944  0  0  -0.05666  0  4.031649  0  0  -0.076326  -0.064254  0  4.000389  0
C  C58  1  0.70371071  0.68589237  0.55915312  1  0  -0.126155  0  3.804555  0  0  -0.14235  0  4.064027  0  0  -0.149013  0  4.085146  0  0  -0.105724  -0.138309  0  4.050001  0
C  C59  1  0.38981324  0.31390221  0.05914728  1  0  -0.126286  0  3.805841  0  0  -0.142685  0  4.06509  0  0  -0.14938  0  4.08621  0  0  -0.105275  -0.138402  0  4.051166  0
C  C60  1  0.70107996  0.80286337  0.49762852  1  0  -0.016058  0  3.769046  0  0  -0.036071  0  4.027663  0  0  -0.03102  0  4.044565  0  0  -0.079163  -0.039007  0  4.016146  0
C  C61  1  0.50453990  0.19697670  0.99763909  1  0  -0.016923  0  3.768811  0  0  -0.036484  0  4.027497  0  0  -0.03136  0  4.044381  0  0  -0.079383  -0.039708  0  4.016125  0
C  C62  1  0.72299610  0.92702248  0.52963694  1  0  -0.191247  0  3.695895  0  0  -0.210732  0  3.952593  0  0  -0.218874  0  3.970341  0  0  -0.098337  -0.205419  0  3.940483  0
C  C63  1  0.65054884  0.07285110  0.02974249  1  0  -0.190708  0  3.695239  0  0  -0.21016  0  3.951381  0  0  -0.218403  0  3.969186  0  0  -0.098381  -0.204993  0  3.939937  0
C  C64  1  0.75072299  0.93525799  0.62459578  1  0  0.346564  0  3.812798  0  0  0.326948  0  4.06742  0  0  0.342817  0  4.082418  0  0  0.113393  0.316301  0  4.056799  0
C  C65  1  0.68614076  0.06472488  0.12475409  1  0  0.347301  0  3.812781  0  0  0.328034  0  4.066702  0  0  0.34408  0  4.081715  0  0  0.113861  0.317186  0  4.056693  0
C  C66  1  0.78763134  0.31512840  0.80341787  1  0  0.69122  0  3.823349  0  0  0.638705  0  4.11519  0  0  0.674364  0  4.103595  0  0  0.254224  0.614966  0  4.122347  0
C  C67  1  0.10241845  0.68513945  0.30377444  1  0  0.691859  0  3.822638  0  0  0.638582  0  4.115019  0  0  0.674252  0  4.103498  0  0  0.25407  0.614445  0  4.122307  0
C  C68  1  0.97340338  0.26218695  0.79066370  1  0  -0.25464  0  3.823978  0  0  -0.235454  0  4.063555  0  0  -0.25086  0  4.086491  0  0  -0.035256  -0.225637  0  4.047874  0
C  C69  1  0.23531399  0.73795835  0.29094209  1  0  -0.255647  0  3.824021  0  0  -0.235248  0  4.062603  0  0  -0.25067  0  4.085602  0  0  -0.035161  -0.225152  0  4.046949  0
C  C70  1  0.04568272  0.36117123  0.81111624  1  0  -0.035296  0  3.763341  0  0  -0.058374  0  4.01131  0  0  -0.053881  0  4.030037  0  0  -0.074953  -0.060868  0  3.998258  0
C  C71  1  0.40661164  0.63887792  0.31129815  1  0  -0.035852  0  3.762493  0  0  -0.059792  0  4.010164  0  0  -0.055275  0  4.028921  0  0  -0.075588  -0.062358  0  3.997171  0
C  C72  1  0.22141709  0.30976498  0.79979366  1  0  -0.11503  0  3.789872  0  0  -0.130001  0  4.045312  0  0  -0.136985  0  4.067591  0  0  -0.102989  -0.125238  0  4.029696  0
C  C73  1  0.53099032  0.69017911  0.29992026  1  0  -0.11367  0  3.787078  0  0  -0.12854  0  4.042538  0  0  -0.135421  0  4.06469  0  0  -0.102089  -0.123919  0  4.027212  0
C  C74  1  0.32746151  0.15793969  0.76713145  1  0  -0.024493  0  3.766192  0  0  -0.043236  0  4.026849  0  0  -0.038722  0  4.044203  0  0  -0.07908  -0.045878  0  4.014632  0
C  C75  1  0.48532684  0.84195685  0.26729672  1  0  -0.024367  0  3.767822  0  0  -0.042959  0  4.028545  0  0  -0.038396  0  4.045758  0  0  -0.079022  -0.045644  0  4.016455  0
C  C76  1  0.25943237  0.05784116  0.74665393  1  0  -0.188522  0  3.711934  0  0  -0.210042  0  3.972614  0  0  -0.217649  0  3.99051  0  0  -0.095881  -0.204984  0  3.960548  0
C  C77  1  0.31715649  0.94212375  0.24692274  1  0  -0.189203  0  3.711728  0  0  -0.210038  0  3.971677  0  0  -0.217688  0  3.989616  0  0  -0.096609  -0.205097  0  3.9596  0
C  C78  1  0.08151554  0.10895194  0.75859645  1  0  0.349057  0  3.817277  0  0  0.328301  0  4.075867  0  0  0.344753  0  4.089688  0  0  0.113603  0.317446  0  4.066332  0
C  C79  1  0.19023278  0.89114677  0.25893213  1  0  0.349842  0  3.814412  0  0  0.328881  0  4.072631  0  0  0.345309  0  4.086413  0  0  0.114001  0.317974  0  4.062959  0
C  C80  1  0.78928848  0.38270804  0.04580416  1  0  0.106302  0  3.60999  0  0  0.05143  0  3.879172  0  0  0.058471  0  3.885792  0  0  -0.069934  0.046724  0  3.874546  0
C  C81  1  0.17195985  0.61748705  0.54609009  1  0  0.106009  0  3.609548  0  0  0.052799  0  3.877331  0  0  0.059828  0  3.883926  0  0  -0.06987  0.04813  0  3.872791  0
C  C82  1  0.83116531  0.37582324  0.14797161  1  0  -0.158531  0  3.698166  0  0  -0.199186  0  3.960977  0  0  -0.201695  0  3.974731  0  0  -0.174022  -0.19738  0  3.951577  0
C  C83  1  0.20720538  0.62456102  0.64819644  1  0  -0.16009  0  3.699676  0  0  -0.201274  0  3.963003  0  0  -0.203867  0  3.976758  0  0  -0.175176  -0.199323  0  3.95354  0
C  C84  1  0.92853988  0.47380280  0.14746757  1  0  -0.149424  0  3.672261  0  0  -0.189619  0  3.928132  0  0  -0.192056  0  3.942263  0  0  -0.170327  -0.187725  0  3.918198  0
C  C85  1  0.40258893  0.52642526  0.64754368  1  0  -0.149875  0  3.673346  0  0  -0.189693  0  3.929145  0  0  -0.192169  0  3.94336  0  0  -0.170089  -0.187904  0  3.91924  0
C  C86  1  0.83221784  0.60300973  0.07801476  1  0  0.112246  0  3.579992  0  0  0.057783  0  3.851551  0  0  0.065416  0  3.856146  0  0  -0.06587  0.052843  0  3.848104  0
C  C87  1  0.43523443  0.39715889  0.57811113  1  0  0.112983  0  3.578353  0  0  0.059658  0  3.84892  0  0  0.067217  0  3.853582  0  0  -0.065832  0.054555  0  3.845592  0
C  C88  1  0.28314776  0.70203054  0.90247016  1  0  0.101909  0  3.590281  0  0  0.048376  0  3.859146  0  0  0.055282  0  3.864759  0  0  -0.065888  0.043987  0  3.855002  0
C  C89  1  0.98550607  0.29762943  0.40242057  1  0  0.102804  0  3.589089  0  0  0.048131  0  3.85915  0  0  0.05502  0  3.864749  0  0  -0.066603  0.043515  0  3.855126  0
C  C90  1  0.14597431  0.77571652  0.98091163  1  0  -0.143579  0  3.679241  0  0  -0.187442  0  3.94486  0  0  -0.188872  0  3.957371  0  0  -0.166801  -0.186323  0  3.936162  0
C  C91  1  0.92217483  0.22378805  0.48077700  1  0  -0.14317  0  3.678729  0  0  -0.185732  0  3.943546  0  0  -0.187231  0  3.956043  0  0  -0.166057  -0.184411  0  3.934728  0
C  C92  1  0.14944797  0.93124324  0.99585435  1  0  -0.146665  0  3.66723  0  0  -0.183999  0  3.923648  0  0  -0.186314  0  3.936543  0  0  -0.169016  -0.182323  0  3.914787  0
C  C93  1  0.08142793  0.06842089  0.49573805  1  0  -0.14754  0  3.667155  0  0  -0.185315  0  3.92384  0  0  -0.187582  0  3.936753  0  0  -0.169543  -0.183658  0  3.914961  0
C  C94  1  0.34017840  0.88543420  0.98268658  1  0  0.103181  0  3.603693  0  0  0.049821  0  3.870179  0  0  0.056744  0  3.876685  0  0  -0.065602  0.045252  0  3.865822  0
C  C95  1  0.22609939  0.11449963  0.48262139  1  0  0.103356  0  3.601875  0  0  0.050309  0  3.868776  0  0  0.057299  0  3.875155  0  0  -0.065867  0.045652  0  3.864377  0
O  O96  1  0.80705835  0.94716360  0.81253734  1  0  -0.57191  0  2.218552  0  0  -0.488254  0  2.463383  0  0  -0.512023  0  2.451561  0  0  -0.156014  -0.472352  0  2.471066  0
O  O97  1  0.75375274  0.05314027  0.31274749  1  0  -0.572131  0  2.218802  0  0  -0.488064  0  2.463417  0  0  -0.511979  0  2.451594  0  0  -0.155902  -0.471872  0  2.471314  0
O  O98  1  0.76436995  0.74252440  0.84877436  1  0  -0.646576  0  1.965309  0  0  -0.608823  0  2.205031  0  0  -0.62781  0  2.191125  0  0  -0.3675  -0.59614  0  2.214526  0
O  O99  1  0.50633636  0.25782597  0.34884739  1  0  -0.645712  0  1.967426  0  0  -0.608245  0  2.207434  0  0  -0.627187  0  2.193548  0  0  -0.36686  -0.595091  0  2.216766  0
O  O100  1  0.77356433  0.05568641  0.65340402  1  0  -0.549359  0  2.26509  0  0  -0.469466  0  2.511854  0  0  -0.492244  0  2.506616  0  0  -0.170381  -0.453273  0  2.514243  0
O  O101  1  0.82934636  0.94431248  0.15365275  1  0  -0.550012  0  2.265623  0  0  -0.469754  0  2.511558  0  0  -0.492872  0  2.50641  0  0  -0.170722  -0.453633  0  2.514784  0
O  O102  1  0.72902297  0.21391316  0.78559052  1  0  -0.565999  0  2.209517  0  0  -0.482985  0  2.453822  0  0  -0.506235  0  2.441327  0  0  -0.156173  -0.467505  0  2.461868  0
O  O103  1  0.94257746  0.78638802  0.28597701  1  0  -0.565261  0  2.208327  0  0  -0.482231  0  2.453089  0  0  -0.505628  0  2.440475  0  0  -0.155825  -0.466091  0  2.461172  0
O  O104  1  0.68353129  0.44841201  0.82976628  1  0  -0.643474  0  1.977399  0  0  -0.606623  0  2.222894  0  0  -0.625852  0  2.209375  0  0  -0.361989  -0.593719  0  2.231865  0
O  O105  1  0.13157929  0.55191153  0.33009836  1  0  -0.643362  0  1.976306  0  0  -0.606625  0  2.222335  0  0  -0.625811  0  2.208848  0  0  -0.362153  -0.593476  0  2.231429  0
O  O106  1  0.01890369  0.00962802  0.73933629  1  0  -0.556056  0  2.280489  0  0  -0.476453  0  2.528009  0  0  -0.499414  0  2.521924  0  0  -0.171159  -0.460543  0  2.531468  0
O  O107  1  0.02830010  0.99055542  0.23976449  1  0  -0.555836  0  2.278767  0  0  -0.476522  0  2.526447  0  0  -0.49928  0  2.520046  0  0  -0.171271  -0.460495  0  2.530246  0
O  O108  1  0.75857670  0.53718380  0.01417452  1  0  -0.419728  0  2.218172  0  0  -0.348221  0  2.467996  0  0  -0.36285  0  2.464921  0  0  -0.308315  -0.337708  0  2.469472  0
O  O109  1  0.29547158  0.46286901  0.51447318  1  0  -0.420119  0  2.218522  0  0  -0.349195  0  2.467598  0  0  -0.363869  0  2.464637  0  0  -0.308855  -0.33894  0  2.469549  0
O  O110  1  0.40875953  0.75923251  0.91446635  1  0  -0.414974  0  2.199546  0  0  -0.346589  0  2.450547  0  0  -0.361073  0  2.447797  0  0  -0.308906  -0.336415  0  2.451838  0
O  O111  1  0.16824486  0.24068062  0.41444967  1  0  -0.414721  0  2.198949  0  0  -0.345984  0  2.449722  0  0  -0.360494  0  2.447065  0  0  -0.308723  -0.335819  0  2.45147  0
