# generated using pymatgen
data_CoH11C18(NO2)3
_symmetry_space_group_name_H-M   'P 1'
_cell_length_a   10.07643939
_cell_length_b   9.45314981
_cell_length_c   10.90387970
_cell_angle_alpha   111.92494049
_cell_angle_beta   97.50914424
_cell_angle_gamma   99.23039131
_symmetry_Int_Tables_number   1
_chemical_formula_structural   CoH11C18(NO2)3
_chemical_formula_sum   'Co2 H22 C36 N6 O12'
_cell_volume   930.21499407
_cell_formula_units_Z   2
loop_
 _symmetry_equiv_pos_site_id
 _symmetry_equiv_pos_as_xyz
  1  'x, y, z'
loop_
 _atom_site_type_symbol
 _atom_site_label
 _atom_site_symmetry_multiplicity
 _atom_site_fract_x
 _atom_site_fract_y
 _atom_site_fract_z
 _atom_site_occupancy
 _atom_site_pbe_cm5_charge
 _atom_site_pbe_ddec_charge
 _atom_site_pbe_ddec_spin_density
 _atom_site_pbe_ddec_sum_bond_order
 _atom_site_pbe_magmom
Co  Co0  1  0.39186367  0.66752461  0.11348055  1  0.673687  0.71615  1.07657  2.913203  1.0
Co  Co1  1  0.60813808  0.33247643  0.88652823  1  0.673685  0.716123  1.076623  2.913272  1.0
H  H2  1  0.26245302  0.43973603  0.44178021  1  0.108431  0.117538  -7e-05  1.014334  0.0
H  H3  1  0.73754896  0.56026785  0.55822229  1  0.108428  0.117504  -7e-05  1.014319  0.0
H  H4  1  0.19916441  0.52718781  0.85920402  1  0.12361  0.097822  -0.000409  1.012211  0.0
H  H5  1  0.80083591  0.47281706  0.14080148  1  0.12361  0.097789  -0.00041  1.01228  0.0
H  H6  1  0.93411738  0.64556287  0.05132014  1  0.116978  0.130514  -0.000234  0.997452  0.0
H  H7  1  0.06586762  0.35445232  0.94865763  1  0.116891  0.130427  -0.000234  0.997494  0.0
H  H8  1  0.53904143  0.87303089  0.37768948  1  0.120819  0.091039  3.6e-05  1.016951  0.0
H  H9  1  0.46096647  0.12696056  0.62231898  1  0.120801  0.091068  3.6e-05  1.01683  0.0
H  H10  1  0.26628630  0.44071025  0.21409494  1  0.124979  0.105692  -0.000298  0.99381  0.0
H  H11  1  0.73372270  0.55929814  0.78591165  1  0.124924  0.10558  -0.000299  0.993811  0.0
H  H12  1  0.54413055  0.89587615  0.61151608  1  0.10879  0.127501  -6.6e-05  1.052064  0.0
H  H13  1  0.45587740  0.10411684  0.38848744  1  0.108763  0.127462  -6.6e-05  1.052095  0.0
H  H14  1  0.57941517  0.86725847  0.79219472  1  0.109252  0.13127  -3.1e-05  1.034043  0.0
H  H15  1  0.42059980  0.13273441  0.20781025  1  0.109269  0.131241  -3.2e-05  1.034111  0.0
H  H16  1  0.73957469  0.97621675  0.31492026  1  0.116558  0.127675  -6e-06  1.014728  0.0
H  H17  1  0.26041840  0.02377313  0.68507630  1  0.116586  0.127777  -6e-06  1.014613  0.0
H  H18  1  0.56323994  0.86689435  0.01498016  1  0.121172  0.091014  -0.000147  1.003258  0.0
H  H19  1  0.43676516  0.13310926  0.98502617  1  0.121151  0.091092  -0.000148  1.003083  0.0
H  H20  1  0.18095556  0.07592844  0.36691339  1  0.115875  0.12769  -3.6e-05  1.013645  0.0
H  H21  1  0.81904251  0.92406306  0.63307683  1  0.115887  0.127709  -3.6e-05  1.0137  0.0
H  H22  1  0.19669826  0.51400432  0.62968687  1  0.106416  0.120369  -3.1e-05  1.05152  0.0
H  H23  1  0.80331693  0.48598979  0.37031766  1  0.106421  0.120271  -3.1e-05  1.051647  0.0
C  C24  1  0.20180999  0.81086700  0.17134154  1  0.201483  0.543184  -0.002958  4.19745  -0.002
C  C25  1  0.79818126  0.18912721  0.82866201  1  0.201526  0.54308  -0.002959  4.19786  -0.002
C  C26  1  0.39274273  0.68266586  0.68611940  1  0.00803  0.09712  -0.012445  3.983094  -0.007
C  C27  1  0.60727409  0.31732565  0.31388796  1  0.007993  0.0972  -0.012452  3.983214  -0.007
C  C28  1  0.39960588  0.67085762  0.54901252  1  0.009668  0.105631  -0.009126  3.984118  -0.005
C  C29  1  0.60040262  0.32913758  0.45099371  1  0.009675  0.105471  -0.009126  3.984188  -0.005
C  C30  1  0.32369374  0.54051706  0.43348788  1  -0.079828  -0.165497  -0.0021  3.93657  -0.001
C  C31  1  0.67630329  0.45948975  0.56652451  1  -0.079867  -0.16545  -0.002103  3.936722  -0.001
C  C32  1  0.68313673  0.69459305  0.09913197  1  0.211843  0.547988  -0.000775  4.214466  0.002
C  C33  1  0.31685391  0.30541786  0.90085569  1  0.211799  0.547898  -0.000778  4.214465  0.002
C  C34  1  0.28280699  0.59775496  0.83895926  1  0.043061  0.089186  -0.010035  3.915442  -0.006
C  C35  1  0.71720302  0.40224713  0.16105150  1  0.043066  0.08922  -0.01004  3.91525  -0.006
C  C36  1  0.94193684  0.75748153  0.13489849  1  -0.058257  -0.083485  -0.007366  3.851596  -0.004
C  C37  1  0.05805011  0.24252583  0.86508847  1  -0.058036  -0.083172  -0.007376  3.851388  -0.004
C  C38  1  0.07117139  0.85622016  0.20439798  1  -0.007348  -0.003279  -0.000465  3.957049  0.0
C  C39  1  0.92881741  0.14378583  0.79559137  1  -0.007439  -0.003367  -0.000463  3.957216  0.0
C  C40  1  0.47860733  0.78060347  0.39717146  1  0.046242  0.094384  -0.005903  3.917791  -0.003
C  C41  1  0.52140850  0.21939267  0.60283847  1  0.046227  0.094268  -0.005903  3.917397  -0.003
C  C42  1  0.82182648  0.80059973  0.17316956  1  -0.01015  -0.016047  0.000316  3.953112  0.002
C  C43  1  0.17816388  0.19941635  0.82681266  1  -0.010334  -0.0162  0.000316  3.953021  0.002
C  C44  1  0.32516805  0.53849445  0.30584776  1  0.050954  0.093662  -0.007614  3.900672  -0.004
C  C45  1  0.67483381  0.46151725  0.69416317  1  0.051026  0.09387  -0.00761  3.900833  -0.004
C  C46  1  0.48092273  0.79144865  0.52754298  1  -0.085755  -0.181635  -0.001714  3.92746  0.0
C  C47  1  0.51908628  0.20854421  0.47246242  1  -0.085678  -0.181488  -0.001717  3.927404  0.0
C  C48  1  0.49350940  0.78696957  0.79991420  1  -0.082395  -0.170848  -0.001037  3.920423  0.0
C  C49  1  0.50649289  0.21303369  0.20009729  1  -0.08244  -0.170882  -0.001036  3.920362  0.0
C  C50  1  0.83130552  0.94208009  0.28238701  1  -0.069922  -0.125  0.001338  3.920484  0.002
C  C51  1  0.16868518  0.05791191  0.71761383  1  -0.069861  -0.125113  0.001341  3.92037  0.002
C  C52  1  0.48591217  0.78761472  0.92598219  1  0.043793  0.090213  -0.008812  3.934719  -0.005
C  C53  1  0.51408761  0.21239552  0.07403262  1  0.043766  0.090031  -0.008815  3.934532  -0.005
C  C54  1  0.08107658  0.99910532  0.31195272  1  -0.072047  -0.134665  -0.006947  3.929614  -0.004
C  C55  1  0.91891692  0.00089331  0.68803886  1  -0.072069  -0.134737  -0.006957  3.929395  -0.004
C  C56  1  0.96064280  0.03855483  0.34955251  1  0.069329  0.052148  -8.3e-05  3.983353  0.001
C  C57  1  0.03935059  0.96143313  0.65043693  1  0.069335  0.052214  -8.2e-05  3.983312  0.001
C  C58  1  0.28306243  0.59152152  0.71017751  1  -0.083982  -0.165893  -0.001226  3.93178  0.0
C  C59  1  0.71695376  0.40846629  0.28983118  1  -0.083948  -0.165679  -0.001224  3.931787  0.0
N  N60  1  0.38566077  0.68969674  0.94611554  1  -0.342815  -0.198653  -0.013942  3.653692  -0.01
N  N61  1  0.61434342  0.31031131  0.05389606  1  -0.342733  -0.198583  -0.013945  3.653598  -0.01
N  N62  1  0.40026143  0.65776951  0.28719001  1  -0.337862  -0.176468  -0.012929  3.616943  -0.01
N  N63  1  0.59974860  0.34223419  0.71281492  1  -0.337855  -0.176547  -0.012935  3.6168  -0.01
N  N64  1  0.97062327  0.18534293  0.46587167  1  0.054711  0.512165  -0.004408  4.209049  -0.003
N  N65  1  0.02936720  0.81465115  0.53411614  1  0.054736  0.512253  -0.004414  4.208957  -0.003
O  O66  1  0.31384576  0.91245737  0.21554461  1  -0.304055  -0.545979  0.023799  2.198838  0.039
O  O67  1  0.68614973  0.08753632  0.78446644  1  -0.304048  -0.545828  0.023792  2.198831  0.039
O  O68  1  0.67325564  0.58551750  0.98595580  1  -0.294381  -0.544262  0.016813  2.413835  0.028
O  O69  1  0.32672552  0.41447862  0.01403753  1  -0.294378  -0.544213  0.016822  2.413776  0.028
O  O70  1  0.58574220  0.73112890  0.16201174  1  -0.303623  -0.523994  0.003222  2.544476  0.006
O  O71  1  0.41425378  0.26888130  0.83798619  1  -0.303613  -0.523999  0.003217  2.544394  0.006
O  O72  1  0.86349358  0.21615619  0.50259348  1  -0.125072  -0.333515  -0.003606  1.972871  -0.003
O  O73  1  0.13650369  0.78382867  0.49740615  1  -0.125142  -0.333608  -0.003611  1.972612  -0.003
O  O74  1  0.08740364  0.27088096  0.52270124  1  -0.133387  -0.351024  -0.002001  1.980373  -0.001
O  O75  1  0.91258930  0.72913293  0.47726014  1  -0.133345  -0.351024  -0.002003  1.980525  -0.001
O  O76  1  0.19610172  0.66473943  0.10154555  1  -0.294782  -0.489685  -0.005269  2.338545  -0.004
O  O77  1  0.80388830  0.33525522  0.89845162  1  -0.2948  -0.489684  -0.005274  2.338847  -0.004
