# generated using pymatgen
data_V4P2H18C20N4O15
_symmetry_space_group_name_H-M   'P 1'
_cell_length_a   8.28861268
_cell_length_b   9.15957560
_cell_length_c   9.55194128
_cell_angle_alpha   97.52626529
_cell_angle_beta   109.59570668
_cell_angle_gamma   98.39201277
_symmetry_Int_Tables_number   1
_chemical_formula_structural   V4P2H18C20N4O15
_chemical_formula_sum   'V4 P2 H18 C20 N4 O15'
_cell_volume   663.15443009
_cell_formula_units_Z   1
loop_
 _symmetry_equiv_pos_site_id
 _symmetry_equiv_pos_as_xyz
  1  'x, y, z'
loop_
 _atom_site_type_symbol
 _atom_site_label
 _atom_site_symmetry_multiplicity
 _atom_site_fract_x
 _atom_site_fract_y
 _atom_site_fract_z
 _atom_site_occupancy
 _atom_site_hle17_ddec_charge
 _atom_site_hle17_ddec_spin_density
 _atom_site_hle17_ddec_sum_bond_order
 _atom_site_hle17_magmom
 _atom_site_hse06_10hf_ddec_charge
 _atom_site_hse06_10hf_ddec_spin_density
 _atom_site_hse06_10hf_ddec_sum_bond_order
 _atom_site_hse06_10hf_magmom
 _atom_site_hse06_ddec_charge
 _atom_site_hse06_ddec_spin_density
 _atom_site_hse06_ddec_sum_bond_order
 _atom_site_hse06_magmom
 _atom_site_pbe_cm5_charge
 _atom_site_pbe_ddec_charge
 _atom_site_pbe_ddec_spin_density
 _atom_site_pbe_ddec_sum_bond_order
 _atom_site_pbe_magmom
V  V0  1  0.47490355  0.68812421  0.48203784  1  2.009922  0.107569  2.918717  0.105  2.067438  0.077133  3.307316  0.077  2.158828  0.047687  3.291473  0.049  1.49283  2.001148  0.100961  3.325315  0.099
V  V1  1  0.52509953  0.31188903  0.51796789  1  2.009933  -0.107648  2.918815  -0.105  2.067417  -0.077187  3.307475  -0.077  2.158822  -0.047709  3.291599  -0.049  1.49277  2.001151  -0.101043  3.32546  -0.099
V  V2  1  0.05846624  0.77518183  0.37715814  1  1.775119  1.244895  2.650813  1.187  1.790116  0.983273  3.053137  0.941  1.869369  1.08643  3.007718  1.043  1.417604  1.744037  0.863918  3.082517  0.824
V  V3  1  0.94152803  0.22482131  0.62283746  1  1.775083  -1.244756  2.65094  -1.187  1.790168  -0.983194  3.053186  -0.941  1.869356  -1.086383  3.007861  -1.042  1.417617  1.744016  -0.863832  3.082674  -0.824
P  P4  1  0.72266894  0.92300981  0.37896071  1  1.815875  -0.000157  4.799782  0.0  1.65226  0.000178  5.323327  0.0  1.720871  0.000147  5.255201  0.0  0.449567  1.605041  0.000521  5.367231  0.0
P  P5  1  0.27732843  0.07699556  0.62103713  1  1.815818  0.000159  4.799735  0.0  1.652193  -0.000183  5.323297  0.0  1.720804  -0.000143  5.255173  0.0  0.449492  1.604979  -0.000519  5.367198  0.0
H  H6  1  0.26279652  0.99879707  0.23168335  1  0.093144  -0.00021  0.97063  0.0  0.101691  -0.000223  1.033313  0.0  0.104303  -0.000228  1.030581  0.0  0.11774  0.099804  -0.000235  1.035389  0.0
H  H7  1  0.73720515  0.00120491  0.76831535  1  0.093088  0.000212  0.970721  0.0  0.101659  0.000223  1.033382  0.0  0.104272  0.000228  1.030647  0.0  0.117729  0.099768  0.000235  1.035454  0.0
H  H8  1  0.27307205  0.02546091  0.97505309  1  0.117767  -7.5e-05  0.928916  0.0  0.131066  -1.6e-05  0.979785  0.0  0.133928  5e-06  0.979637  0.0  0.112524  0.128901  -2.3e-05  0.980492  0.0
H  H9  1  0.72692799  0.97453432  0.02494221  1  0.117809  7.6e-05  0.928903  0.0  0.131105  1.6e-05  0.979777  0.0  0.133967  -5e-06  0.979629  0.0  0.112545  0.12894  2.3e-05  0.980487  0.0
H  H10  1  0.05741236  0.84323755  0.74669753  1  0.117333  -0.000815  0.952398  0.0  0.130005  -0.000711  1.008095  0.0  0.134411  -0.000707  1.004886  0.0  0.112734  0.12615  -0.000678  1.011204  0.0
H  H11  1  0.94258812  0.15675431  0.25330168  1  0.117417  0.000813  0.952258  0.0  0.130043  0.000711  1.007998  0.0  0.134448  0.000706  1.004793  0.0  0.112759  0.126192  0.000678  1.01111  0.0
H  H12  1  0.85337263  0.63734747  0.78168101  1  0.113403  -0.000127  0.942921  0.0  0.125422  -1.9e-05  0.999462  0.0  0.128612  -3.9e-05  0.997941  0.0  0.114124  0.122633  -8e-06  1.002181  0.0
H  H13  1  0.14662584  0.36264665  0.21831683  1  0.113365  0.000131  0.942978  0.0  0.125402  1.9e-05  0.999495  0.0  0.128591  3.9e-05  0.997973  0.0  0.114122  0.122616  6e-06  1.00222  0.0
H  H14  1  0.69830534  0.47115023  0.83392915  1  0.105478  0.000173  0.973175  0.0  0.110925  -0.000122  1.043341  0.0  0.11388  -8.1e-05  1.042145  0.0  0.10953  0.109601  -0.000122  1.043245  0.0
H  H15  1  0.30169869  0.52884049  0.16607307  1  0.105493  -0.000166  0.973244  0.0  0.110897  0.000122  1.043452  0.0  0.113851  8.1e-05  1.042261  0.0  0.109541  0.109572  0.000121  1.043361  0.0
H  H16  1  0.52106623  0.27583063  0.91111647  1  0.107371  -0.000605  0.943533  -0.001  0.119811  -8.2e-05  0.999326  0.0  0.122668  -0.0001  0.996878  0.0  0.111719  0.117356  -3.2e-05  1.001633  0.0
H  H17  1  0.47894063  0.72416121  0.08888672  1  0.107346  0.000603  0.94352  0.001  0.119765  8.2e-05  0.999327  0.0  0.122643  0.0001  0.996857  0.0  0.111682  0.11731  3.2e-05  1.00163  0.0
H  H18  1  0.57769315  0.29080527  0.19011851  1  0.114822  0.000134  0.979825  0.0  0.128009  -0.000167  1.033863  0.0  0.131174  -0.000112  1.032775  0.0  0.109374  0.12589  -0.000191  1.034984  0.0
H  H19  1  0.42231143  0.70918769  0.80988309  1  0.114874  -0.000131  0.979836  0.0  0.128057  0.000167  1.033869  0.0  0.131222  0.000112  1.032781  0.0  0.109379  0.125936  0.000191  1.034988  0.0
H  H20  1  0.81340065  0.49534061  0.37604826  1  0.094829  -0.000929  0.945151  -0.001  0.102927  -0.000302  1.008846  0.0  0.107014  -0.000295  1.004444  0.0  0.125965  0.100015  -0.000272  1.011753  0.0
H  H21  1  0.18659835  0.50465576  0.62395210  1  0.094836  0.000928  0.945078  0.001  0.102901  0.000302  1.008806  0.0  0.106987  0.000295  1.004403  0.0  0.125953  0.099992  0.000271  1.011715  0.0
H  H22  1  0.54795544  0.07473753  0.29124197  1  0.441731  -8.2e-05  0.861554  0.0  0.41392  -9.5e-05  0.921594  0.0  0.4262  -5.7e-05  0.903538  0.0  0.31232  0.405583  -0.000112  0.933911  0.0
H  H23  1  0.45203808  0.92526787  0.70875578  1  0.441606  8.3e-05  0.861717  0.0  0.41378  9.4e-05  0.921776  0.0  0.42606  5.7e-05  0.903723  0.0  0.312279  0.405471  0.000112  0.934053  0.0
C  C24  1  0.17735187  0.91988177  0.12907796  1  0.144541  -0.000246  3.682711  0.0  0.116802  0.00054  3.939877  0.0  0.124351  9.7e-05  3.957533  0.0  0.052869  0.11257  0.000711  3.928227  0.0
C  C25  1  0.82264122  0.08011124  0.87091710  1  0.144587  0.000243  3.682287  0.0  0.116816  -0.00054  3.939514  0.0  0.124364  -9.6e-05  3.957159  0.0  0.052804  0.112586  -0.000709  3.927849  0.0
C  C26  1  0.18017648  0.93541326  0.98688476  1  -0.098941  0.002929  3.685877  0.002  -0.115761  0.0018  3.941067  0.001  -0.122642  0.001583  3.962079  0.001  -0.076378  -0.112242  0.002984  3.927739  0.002
C  C27  1  0.81982383  0.06458309  0.01311180  1  -0.099015  -0.002928  3.685938  -0.002  -0.115827  -0.001802  3.941128  -0.001  -0.122707  -0.001583  3.962141  -0.001  -0.076398  -0.112313  -0.002984  3.927806  -0.002
C  C28  1  0.06089517  0.83392203  0.86001475  1  0.009859  -0.001982  3.68266  -0.002  -0.008048  -0.000181  3.929272  0.0  -0.00347  -0.000848  3.944934  -0.001  -0.059315  -0.010795  0.000543  3.920019  0.0
C  C29  1  0.93910587  0.16607206  0.13998175  1  0.009807  0.00198  3.682731  0.002  -0.008059  0.000182  3.929341  0.0  -0.00348  0.000847  3.945002  0.001  -0.059297  -0.01081  -0.000543  3.9201  0.0
C  C30  1  0.94576536  0.71854034  0.87961014  1  -0.131236  0.003975  3.6753  0.003  -0.149482  0.002305  3.919756  0.002  -0.1564  0.002256  3.940575  0.002  -0.072849  -0.145688  0.002713  3.908477  0.002
C  C31  1  0.05423719  0.28145489  0.12039323  1  -0.131214  -0.003976  3.675257  -0.003  -0.149433  -0.002307  3.91969  -0.002  -0.156349  -0.002255  3.940511  -0.002  -0.072889  -0.145644  -0.002714  3.908426  -0.002
C  C32  1  0.95382934  0.70759391  0.02644821  1  0.171023  -0.003293  3.784661  -0.003  0.170445  -0.0008  4.029326  -0.001  0.176875  -0.001536  4.049743  -0.002  0.118436  0.165324  0.000277  4.018108  -0.001
C  C33  1  0.04617124  0.29240357  0.97354857  1  0.171062  0.003289  3.784611  0.003  0.170404  0.000798  4.029382  0.001  0.176832  0.001539  4.049795  0.002  0.118489  0.165283  -0.000276  4.018155  0.001
C  C34  1  0.84514267  0.58788007  0.06292871  1  0.186446  0.015632  3.746155  0.013  0.183365  0.013064  3.992491  0.01  0.192442  0.010445  4.010914  0.009  0.120347  0.176625  0.016819  3.980863  0.013
C  C35  1  0.15485606  0.41211518  0.93707249  1  0.186471  -0.015623  3.746246  -0.013  0.183438  -0.013067  3.992565  -0.01  0.192514  -0.010445  4.010982  -0.009  0.120339  0.176697  -0.016817  3.980929  -0.013
C  C36  1  0.71802114  0.47417210  0.95267200  1  -0.132629  -0.01317  3.696629  -0.01  -0.152092  -0.005653  3.949443  -0.005  -0.160236  -0.006414  3.970724  -0.005  -0.075818  -0.145911  -0.005006  3.934409  -0.005
C  C37  1  0.28198244  0.52582199  0.04732840  1  -0.132733  0.01315  3.696767  0.01  -0.152182  0.005653  3.949584  0.005  -0.160323  0.00641  3.970877  0.005  -0.075841  -0.146008  0.005005  3.934555  0.005
C  C38  1  0.61975150  0.36526069  0.99604732  1  0.010583  0.020647  3.704705  0.015  -0.011716  0.016748  3.956485  0.011  -0.005715  0.013463  3.973748  0.009  -0.063772  -0.0156  0.021288  3.945083  0.014
C  C39  1  0.38025126  0.63473003  0.00395347  1  0.010679  -0.020634  3.704614  -0.015  -0.01157  -0.016747  3.956346  -0.011  -0.005595  -0.01346  3.973621  -0.009  -0.063735  -0.015448  -0.021284  3.944938  -0.014
C  C40  1  0.65136749  0.37249531  0.14977128  1  -0.114501  -0.014725  3.709148  -0.011  -0.127245  -0.006519  3.956884  -0.005  -0.13553  -0.007675  3.977154  -0.006  -0.078089  -0.122368  -0.005086  3.943542  -0.005
C  C41  1  0.34864020  0.62749989  0.85023047  1  -0.114636  0.014711  3.709072  0.011  -0.12742  0.00652  3.956838  0.005  -0.135698  0.007677  3.977108  0.006  -0.078109  -0.122548  0.005083  3.943495  0.005
C  C42  1  0.78102204  0.48676271  0.25466552  1  0.160171  0.019726  3.663531  0.015  0.130154  0.015336  3.923088  0.011  0.141785  0.013231  3.935118  0.01  0.05721  0.122579  0.016958  3.915363  0.012
C  C43  1  0.21897824  0.51323365  0.74533523  1  0.160262  -0.019715  3.663413  -0.015  0.130302  -0.015337  3.922959  -0.011  0.141933  -0.013231  3.934984  -0.01  0.057227  0.122718  -0.016955  3.915234  -0.012
N  N44  1  0.06741276  0.80858374  0.14838191  1  -0.378908  -0.002422  3.234447  -0.004  -0.339746  -0.001005  3.502818  -0.002  -0.359132  -0.001228  3.522891  -0.002  -0.357432  -0.327121  0.000136  3.491898  -0.001
N  N45  1  0.93258863  0.19141712  0.85161658  1  -0.378887  0.002423  3.23396  0.004  -0.339715  0.001004  3.502362  0.002  -0.359099  0.001226  3.522454  0.002  -0.357421  -0.327082  -0.000132  3.491431  0.001
N  N46  1  0.87671507  0.59283730  0.21308543  1  -0.400601  -0.022356  3.279036  -0.035  -0.361557  -0.005546  3.5529  -0.02  -0.382519  -0.008408  3.569685  -0.022  -0.375386  -0.349044  -0.001537  3.542891  -0.017
N  N47  1  0.12328321  0.40716132  0.78691291  1  -0.400625  0.022344  3.279028  0.035  -0.36163  0.005547  3.552891  0.02  -0.382578  0.008405  3.569668  0.022  -0.375382  -0.349107  0.001541  3.542877  0.017
O  O48  1  0.50000538  0.50000943  0.50000906  1  -1.000463  -2e-06  1.537817  0.0  -1.029402  -1e-06  1.840777  0.0  -1.065076  0.0  1.825881  0.0  -0.702033  -1.005991  -7e-06  1.854527  0.0
O  O49  1  0.53041016  0.79256735  0.65061014  1  -0.778471  -0.013921  1.407611  -0.014  -0.785249  -0.003449  1.66042  -0.004  -0.809154  -0.00357  1.650622  -0.004  -0.580588  -0.771444  -0.003624  1.668851  -0.004
O  O50  1  0.46959245  0.20744928  0.34939691  1  -0.778378  0.013938  1.407596  0.014  -0.785218  0.003455  1.660488  0.004  -0.809106  0.003575  1.650648  0.004  -0.580522  -0.771414  0.003629  1.668923  0.004
O  O51  1  0.26297154  0.68531447  0.38275033  1  -0.909965  -0.032255  1.59866  -0.051  -0.941336  -0.007821  1.909808  -0.029  -0.976251  -0.003267  1.902133  -0.023  -0.656609  -0.92069  -0.006378  1.915743  -0.027
O  O52  1  0.73703424  0.31469427  0.61726089  1  -0.909961  0.032274  1.598654  0.051  -0.941327  0.007831  1.90978  0.029  -0.976232  0.003272  1.902108  0.023  -0.656568  -0.920672  0.006392  1.915708  0.027
O  O53  1  0.02288299  0.70909189  0.51477183  1  -0.673984  -0.263951  1.319351  -0.256  -0.697482  -0.107328  1.582151  -0.105  -0.746269  -0.138301  1.576795  -0.138  -0.561207  -0.661055  -0.08477  1.585237  -0.082
O  O54  1  0.97710795  0.29091353  0.48522830  1  -0.673925  0.263871  1.319389  0.256  -0.697473  0.1073  1.582217  0.105  -0.74625  0.138272  1.576876  0.138  -0.561202  -0.661028  0.084741  1.585327  0.082
O  O55  1  0.86670620  0.88964447  0.32276593  1  -0.894586  0.010475  2.042441  -0.002  -0.850249  0.019109  2.329853  0.006  -0.886368  0.018081  2.3107  0.005  -0.405691  -0.823567  0.019363  2.341157  0.007
O  O56  1  0.13328760  0.11036205  0.67723204  1  -0.894559  -0.010479  2.042452  0.002  -0.850234  -0.019112  2.329795  -0.006  -0.886344  -0.018084  2.310654  -0.005  -0.405624  -0.823544  -0.019357  2.341101  -0.007
O  O57  1  0.77733720  0.02702136  0.53267719  1  -0.92156  -0.008669  2.045412  0.004  -0.87372  -0.014934  2.334639  -0.003  -0.909546  -0.014765  2.314152  -0.002  -0.40851  -0.846423  -0.015088  2.345945  -0.004
O  O58  1  0.22266043  0.97298514  0.46732191  1  -0.921543  0.008666  2.045272  -0.004  -0.873688  0.014931  2.334513  0.003  -0.909525  0.014762  2.314022  0.002  -0.408521  -0.846404  0.01509  2.345822  0.004
O  O59  1  0.59864410  0.99177174  0.25084657  1  -0.771109  -0.000854  1.962919  -0.001  -0.703009  -0.000382  2.174947  0.0  -0.725846  -0.00044  2.14556  0.0  -0.37679  -0.686271  -0.000116  2.194282  0.0
O  O60  1  0.40134886  0.00823141  0.74915388  1  -0.770952  0.000854  1.962973  0.001  -0.702871  0.000383  2.175048  0.0  -0.725707  0.000437  2.145662  0.0  -0.376769  -0.686155  0.000116  2.194338  0.0
O  O61  1  0.61111518  0.76956675  0.38356738  1  -0.882723  0.001182  1.934024  0.0  -0.842968  0.00121  2.221997  0.001  -0.875097  0.000629  2.202435  0.0  -0.435439  -0.822034  0.001146  2.236062  0.0
O  O62  1  0.38888526  0.23044087  0.61643584  1  -0.882847  -0.001182  1.934175  0.0  -0.842996  -0.001209  2.222067  -0.001  -0.875131  -0.000631  2.202509  0.0  -0.435441  -0.822066  -0.001153  2.236131  0.0
