# generated using pymatgen
data_MnH9C8NO6
_symmetry_space_group_name_H-M   'P 1'
_cell_length_a   5.17564245
_cell_length_b   9.61331916
_cell_length_c   10.10035606
_cell_angle_alpha   106.60546798
_cell_angle_beta   92.33399375
_cell_angle_gamma   87.95851822
_symmetry_Int_Tables_number   1
_chemical_formula_structural   MnH9C8NO6
_chemical_formula_sum   'Mn2 H18 C16 N2 O12'
_cell_volume   481.03529051
_cell_formula_units_Z   2
loop_
 _symmetry_equiv_pos_site_id
 _symmetry_equiv_pos_as_xyz
  1  'x, y, z'
loop_
 _atom_site_type_symbol
 _atom_site_label
 _atom_site_symmetry_multiplicity
 _atom_site_fract_x
 _atom_site_fract_y
 _atom_site_fract_z
 _atom_site_occupancy
 _atom_site_hle17_ddec_charge
 _atom_site_hle17_ddec_spin_density
 _atom_site_hle17_ddec_sum_bond_order
 _atom_site_hle17_magmom
 _atom_site_hse06_10hf_ddec_charge
 _atom_site_hse06_10hf_ddec_spin_density
 _atom_site_hse06_10hf_ddec_sum_bond_order
 _atom_site_hse06_10hf_magmom
 _atom_site_hse06_ddec_charge
 _atom_site_hse06_ddec_spin_density
 _atom_site_hse06_ddec_sum_bond_order
 _atom_site_hse06_magmom
 _atom_site_pbe_cm5_charge
 _atom_site_pbe_ddec_charge
 _atom_site_pbe_ddec_spin_density
 _atom_site_pbe_ddec_sum_bond_order
 _atom_site_pbe_magmom
Mn  Mn0  1  0.06404659  0.80445365  0.30568037  1  0.979438  -1.336177  2.5493  -1.297  0.921554  -1.324858  3.075005  -1.283  0.932948  -1.150883  3.030149  -1.104  0.625064  0.892648  -1.370652  3.114719  -1.331
Mn  Mn1  1  0.55639826  0.20725648  0.70394624  1  1.251246  4.894956  1.671854  4.686  1.096939  4.808253  2.162653  4.549  1.151562  4.820712  2.09355  4.609  0.59543  1.0546  4.765951  2.215807  4.486
H  H2  1  0.42990602  0.05236377  0.05858846  1  0.115241  -9.5e-05  0.960148  0.0  0.121643  0.000251  1.029328  0.0  0.122894  3.1e-05  1.030739  0.0  0.105918  0.119234  0.000304  1.030128  0.0
H  H3  1  0.94307912  0.92771601  0.95200924  1  0.111634  -0.000796  0.966549  -0.001  0.118932  0.000122  1.033575  0.0  0.123618  -8e-06  1.031134  0.0  0.10293  0.116759  0.000197  1.033897  0.0
H  H4  1  0.83854006  0.38944756  0.12954928  1  0.10182  -0.000105  0.969842  0.0  0.110231  -6.3e-05  1.03283  0.0  0.113666  -0.000127  1.030768  0.0  0.10536  0.106452  -1.3e-05  1.035941  0.0
H  H5  1  0.33221202  0.61737334  0.87789533  1  0.105161  -0.000851  0.962287  -0.001  0.112198  0.000123  1.028462  0.0  0.11785  -2.3e-05  1.02396  0.0  0.103502  0.108665  0.00021  1.031549  0.0
H  H6  1  0.70254618  0.32154254  0.33706701  1  0.110501  -0.000149  0.92924  0.0  0.12103  -0.000182  0.984438  0.0  0.124679  -0.000174  0.982143  0.0  0.111201  0.117743  -0.00014  0.987482  0.0
H  H7  1  0.19700964  0.68543234  0.66384295  1  0.098658  0.000182  0.942762  0.0  0.109968  7.9e-05  0.998957  0.0  0.115671  3.5e-05  0.99391  0.0  0.105501  0.107036  0.000147  1.001183  0.0
H  H8  1  0.47665911  0.91635819  0.21578888  1  0.304665  0.000286  0.896371  -0.001  0.294945  0.002055  0.953764  0.0  0.298228  0.0016  0.9525  0.0  0.306007  0.291384  0.001731  0.955721  0.0
H  H9  1  0.00892337  0.04749119  0.78668154  1  0.313188  -0.000475  0.911476  0.0  0.30026  0.000171  0.972204  0.001  0.306063  -7.2e-05  0.968859  0.001  0.297797  0.296386  0.000362  0.974493  0.001
H  H10  1  0.38503597  0.99252382  0.37812508  1  0.314324  -2.5e-05  0.925916  0.0  0.297487  -0.00025  0.989433  0.0  0.305368  -0.000562  0.983491  0.0  0.30277  0.292163  -6e-05  0.992598  0.0
H  H11  1  0.87599090  0.99044624  0.62668433  1  0.314817  -0.000133  0.931815  0.0  0.297576  0.001004  0.996154  0.001  0.306783  0.000611  0.989232  0.001  0.299492  0.292079  0.001071  1.000085  0.001
H  H12  1  0.73834523  0.61753050  0.24681363  1  0.403398  0.000179  0.887725  0.0  0.37559  -0.000234  0.961608  -0.001  0.385103  -0.000204  0.950884  0.0  0.3041  0.368119  -0.000259  0.969458  -0.001
H  H13  1  0.28946672  0.44611412  0.64414249  1  0.42664  0.000591  0.832164  0.001  0.408191  0.001722  0.889876  0.002  0.415094  0.001044  0.879411  0.002  0.322477  0.402069  0.002131  0.898207  0.002
H  H14  1  0.63735377  0.70320982  0.39322209  1  0.417346  -0.000205  0.849692  -0.001  0.394279  0.001271  0.916377  0.0  0.401372  0.001214  0.909577  0.001  0.313941  0.38838  0.001082  0.922233  0.0
H  H15  1  0.09227975  0.31542883  0.59294828  1  0.433334  -0.000204  0.863036  0.001  0.402136  0.000661  0.926199  0.002  0.41283  0.000226  0.910825  0.002  0.303018  0.394712  0.00103  0.936981  0.002
H  H16  1  0.40362547  0.62391134  0.14457269  1  0.404032  0.000228  0.918009  -0.001  0.375145  0.001169  0.979832  0.001  0.383159  0.000656  0.968175  0.0  0.296517  0.368378  0.001291  0.989514  0.001
H  H17  1  0.92795042  0.39738725  0.85345257  1  0.421875  0.000205  0.88575  0.001  0.391579  0.001035  0.94915  0.002  0.401658  0.00068  0.93468  0.002  0.295969  0.38416  0.001505  0.959943  0.003
H  H18  1  0.14618243  0.54433111  0.11760835  1  0.419599  0.000592  0.863826  0.001  0.391471  0.000139  0.940166  0.0  0.39856  0.000282  0.932499  0.0  0.301476  0.384905  0.000188  0.947206  0.0
H  H19  1  0.66221960  0.46547454  0.90459008  1  0.42413  0.000254  0.870289  0.001  0.391204  0.000947  0.945974  0.002  0.400118  0.000627  0.933177  0.002  0.296197  0.383967  0.001192  0.956353  0.003
C  C20  1  0.89518572  0.10750016  0.43378083  1  0.67025  0.009105  3.798757  0.009  0.613582  0.014733  4.097693  0.012  0.654192  0.008199  4.085617  0.007  0.223389  0.579482  0.025119  4.111746  0.02
C  C21  1  0.38851954  0.88535291  0.56531126  1  0.647336  0.023955  3.826753  0.016  0.591611  0.028313  4.12821  0.019  0.631847  0.017839  4.1114  0.013  0.216347  0.561903  0.032637  4.137633  0.022
C  C22  1  0.98535279  0.14759904  0.31274229  1  -0.150703  0.003289  3.72667  0.003  -0.138662  0.003664  3.97037  0.002  -0.147601  0.001766  3.986573  0.001  -0.014949  -0.13324  0.006489  3.963357  0.004
C  C23  1  0.49265534  0.84204205  0.68611227  1  -0.170839  0.043881  3.716347  0.035  -0.162236  0.041088  3.96817  0.03  -0.157349  0.021522  3.969596  0.016  -0.029902  -0.157392  0.040451  3.959235  0.029
C  C24  1  0.19117825  0.07099869  0.23398058  1  0.281875  -0.00382  3.726481  -0.004  0.274691  0.000382  3.974434  0.0  0.286475  -0.00053  3.994438  -0.001  0.098341  0.264542  0.003185  3.964253  0.002
C  C25  1  0.70521418  0.91238684  0.76902427  1  0.300889  -0.0096  3.77139  -0.011  0.290264  0.003066  4.024636  0.0  0.300877  -0.000792  4.036428  -0.002  0.099704  0.282417  0.007951  4.012499  0.004
C  C26  1  0.26955019  0.11021441  0.11969487  1  -0.171243  0.006363  3.684721  0.005  -0.198781  0.001257  3.935033  0.0  -0.206457  -1e-05  3.959083  0.0  -0.086724  -0.194875  0.004063  3.924382  0.002
C  C27  1  0.77785411  0.87564857  0.88935582  1  -0.182188  0.032786  3.679595  0.026  -0.209873  0.026218  3.933974  0.019  -0.206322  0.012753  3.940219  0.01  -0.096943  -0.208204  0.028894  3.923  0.02
C  C28  1  0.14494006  0.22679276  0.08361681  1  -0.044618  -0.000702  3.762365  -0.001  -0.024562  0.004214  4.000391  0.003  -0.029386  0.002052  4.02367  0.002  -0.017868  -0.025959  0.010693  3.991406  0.008
C  C29  1  0.64843906  0.76828011  0.92872045  1  -0.049104  0.00401  3.80542  -0.003  -0.033003  0.01707  4.0521  0.007  -0.030783  0.003016  4.055407  -0.001  -0.028202  -0.033307  0.023584  4.043415  0.012
C  C30  1  0.93889745  0.30220092  0.16117167  1  -0.075857  0.004916  3.724678  0.004  -0.103721  0.003221  3.980445  0.002  -0.107516  0.001786  4.002149  0.001  -0.087379  -0.101731  0.004122  3.971172  0.002
C  C31  1  0.43841393  0.69749493  0.84583159  1  -0.109201  0.028786  3.758761  0.023  -0.138129  0.023397  4.023477  0.017  -0.136615  0.014192  4.033057  0.011  -0.103693  -0.136259  0.022556  4.012873  0.016
C  C32  1  0.86189558  0.26373327  0.27560073  1  -0.042312  -0.000812  3.730667  -0.001  -0.06733  0.002862  3.986738  0.002  -0.064742  0.001477  4.004577  0.001  -0.078445  -0.071516  0.006881  3.979231  0.005
C  C33  1  0.36463938  0.73447508  0.72674079  1  -0.064375  -0.009465  3.775395  -0.011  -0.088619  0.002718  4.036351  -0.001  -0.084466  -0.001574  4.042831  -0.003  -0.090355  -0.09077  0.00633  4.025552  0.002
C  C34  1  0.23005915  0.27119887  0.96243825  1  0.655333  0.004458  3.886733  0.004  0.602197  0.008727  4.18097  0.007  0.638198  0.006011  4.170545  0.005  0.219691  0.576596  0.013728  4.190631  0.011
C  C35  1  0.73450333  0.72933887  0.05373424  1  0.596694  0.073624  3.839158  0.057  0.543807  0.068826  4.136856  0.05  0.594349  0.036887  4.107817  0.028  0.197803  0.517973  0.064209  4.144173  0.046
N  N36  1  0.31978560  0.95503460  0.27545424  1  -0.622959  0.014975  3.163963  0.022  -0.59525  0.008304  3.421262  0.014  -0.622552  0.004145  3.424761  0.01  -0.60431  -0.57438  0.010243  3.420234  0.017
N  N37  1  0.83967255  0.01899237  0.73071054  1  -0.693209  0.025794  3.132615  0.015  -0.649402  0.03043  3.381944  0.014  -0.670789  0.026933  3.375128  0.012  -0.596703  -0.632178  0.03329  3.384981  0.016
O  O38  1  0.23655791  0.62079989  0.19081490  1  -0.785124  0.002063  2.022426  0.007  -0.742097  -0.003427  2.251364  0.001  -0.767169  -0.00442  2.230126  0.0  -0.572286  -0.720964  -0.005129  2.267543  0.0
O  O39  1  0.74320098  0.39992544  0.82143401  1  -0.849828  0.034629  1.904633  0.019  -0.790684  0.04431  2.123602  0.024  -0.815066  0.039612  2.090688  0.02  -0.57646  -0.771604  0.048013  2.148739  0.027
O  O40  1  0.89464667  0.97323670  0.43269852  1  -0.585201  0.002393  2.198875  0.006  -0.533261  0.000561  2.474411  0.006  -0.56479  -0.001727  2.465349  0.004  -0.297343  -0.510161  0.002783  2.482393  0.008
O  O41  1  0.39694513  0.01719518  0.56162929  1  -0.643268  0.041443  2.104592  0.029  -0.570699  0.049879  2.359563  0.035  -0.597999  0.042637  2.344533  0.029  -0.300849  -0.547791  0.054075  2.367644  0.039
O  O42  1  0.81838144  0.20993648  0.53760225  1  -0.654565  0.030719  2.035239  0.019  -0.582483  0.039224  2.283219  0.025  -0.61568  0.033999  2.269846  0.021  -0.300402  -0.561007  0.044065  2.295999  0.029
O  O43  1  0.28697351  0.78452546  0.46442045  1  -0.589094  0.004588  2.09604  0.014  -0.533739  -0.001436  2.360419  0.007  -0.563214  -0.006175  2.353405  0.0  -0.304769  -0.510592  0.000677  2.367456  0.01
O  O44  1  0.33744364  0.17325637  0.86513868  1  -0.666166  0.033739  2.067072  0.019  -0.598975  0.039401  2.333909  0.02  -0.632016  0.035518  2.323081  0.017  -0.310949  -0.577275  0.044883  2.342849  0.026
O  O45  1  0.86784765  0.82325712  0.14620969  1  -0.592759  -0.008529  2.22581  -0.004  -0.542924  -0.015208  2.511902  -0.012  -0.570601  -0.019869  2.501314  -0.018  -0.31319  -0.517919  -0.008606  2.512932  -0.003
O  O46  1  0.18557551  0.40155928  0.95951444  1  -0.649971  0.002772  2.022955  0.003  -0.588234  0.00551  2.247779  0.006  -0.612988  0.003753  2.236666  0.004  -0.312155  -0.572821  0.007332  2.257399  0.008
O  O47  1  0.67094661  0.60608621  0.07079530  1  -0.67255  0.01591  2.073704  0.016  -0.601092  0.023527  2.287163  0.024  -0.617375  0.013078  2.264796  0.014  -0.320019  -0.583814  0.021105  2.296225  0.021
O  O48  1  0.79655671  0.66407001  0.34426241  1  -0.736995  0.00285  1.930726  0.008  -0.688688  -0.002303  2.137144  0.002  -0.71611  -0.00173  2.120769  0.001  -0.547692  -0.668314  -0.002501  2.151512  0.002
O  O49  1  0.27590789  0.34107427  0.61823985  1  -0.821291  0.027619  1.864433  0.014  -0.766067  0.038051  2.063455  0.021  -0.785577  0.033986  2.030561  0.018  -0.558356  -0.750681  0.041612  2.087617  0.024
