# generated using pymatgen
data_NaH18C11SNO2
_symmetry_space_group_name_H-M   'P 1'
_cell_length_a   7.29156011
_cell_length_b   11.54541777
_cell_length_c   15.71865135
_cell_angle_alpha   89.99976877
_cell_angle_beta   90.00087105
_cell_angle_gamma   109.40053989
_symmetry_Int_Tables_number   1
_chemical_formula_structural   NaH18C11SNO2
_chemical_formula_sum   'Na4 H72 C44 S4 N4 O8'
_cell_volume   1248.12527327
_cell_formula_units_Z   4
loop_
 _symmetry_equiv_pos_site_id
 _symmetry_equiv_pos_as_xyz
  1  'x, y, z'
loop_
 _atom_site_type_symbol
 _atom_site_label
 _atom_site_symmetry_multiplicity
 _atom_site_fract_x
 _atom_site_fract_y
 _atom_site_fract_z
 _atom_site_occupancy
 _atom_site_hle17_bader_spin_density
 _atom_site_hle17_ddec_charge
 _atom_site_hle17_ddec_spin_density
 _atom_site_hle17_ddec_sum_bond_order
 _atom_site_hle17_magmom
 _atom_site_hse06_10hf_bader_spin_density
 _atom_site_hse06_10hf_ddec_charge
 _atom_site_hse06_10hf_ddec_spin_density
 _atom_site_hse06_10hf_ddec_sum_bond_order
 _atom_site_hse06_10hf_magmom
 _atom_site_hse06_bader_spin_density
 _atom_site_hse06_ddec_charge
 _atom_site_hse06_ddec_spin_density
 _atom_site_hse06_ddec_sum_bond_order
 _atom_site_hse06_magmom
 _atom_site_pbe_bader_spin_density
 _atom_site_pbe_cm5_charge
 _atom_site_pbe_ddec_charge
 _atom_site_pbe_ddec_spin_density
 _atom_site_pbe_ddec_sum_bond_order
 _atom_site_pbe_magmom
Na  Na0  1  0.76729260  0.48563013  0.97764627  1  0  0.856911  0  0.449141  0  0  0.781563  0  0.632555  0  0  0.794368  0  0.61204  0  0  0.649294  0.772377  0  0.64702  0
Na  Na1  1  0.23270568  0.01436965  0.47764991  1  0  0.856933  0  0.449104  0  0  0.781594  0  0.632521  0  0  0.794395  0  0.612002  0  0  0.649321  0.772406  0  0.646987  0
Na  Na2  1  0.23269971  0.51435826  0.02234803  1  0  0.856936  0  0.44909  0  0  0.781578  0  0.632534  0  0  0.79438  0  0.612019  0  0  0.649309  0.772394  0  0.647001  0
Na  Na3  1  0.76730626  0.98563907  0.52234757  1  0  0.856966  0  0.449049  0  0  0.781607  0  0.632513  0  0  0.794409  0  0.611995  0  0  0.649313  0.772419  0  0.646979  0
H  H4  1  0.79344802  0.00652187  0.02280115  1  0  0.079067  0  0.99475  0  0  0.094969  0  1.055726  0  0  0.097015  0  1.054782  0  0  0.090188  0.093481  0  1.056446  0
H  H5  1  0.20655694  0.49347205  0.52280248  1  0  0.079147  0  0.994697  0  0  0.09499  0  1.055748  0  0  0.097035  0  1.054804  0  0  0.090222  0.093507  0  1.056462  0
H  H6  1  0.20656046  0.99346037  0.97720206  1  0  0.079173  0  0.994686  0  0  0.095028  0  1.055705  0  0  0.097073  0  1.054761  0  0  0.090224  0.093545  0  1.056419  0
H  H7  1  0.79343985  0.50653099  0.47720772  1  0  0.079107  0  0.994838  0  0  0.094957  0  1.055857  0  0  0.097004  0  1.054913  0  0  0.090226  0.093479  0  1.056562  0
H  H8  1  0.83651881  0.94811026  0.17176690  1  0  0.073303  0  0.99007  0  0  0.085641  0  1.052454  0  0  0.088826  0  1.051287  0  0  0.083243  0.083407  0  1.053369  0
H  H9  1  0.16348894  0.55189728  0.67175841  1  0  0.073375  0  0.990054  0  0  0.085785  0  1.052352  0  0  0.088963  0  1.051188  0  0  0.083276  0.08355  0  1.053268  0
H  H10  1  0.16349916  0.05189399  0.82824267  1  0  0.073348  0  0.989981  0  0  0.085714  0  1.05234  0  0  0.088903  0  1.051163  0  0  0.083257  0.083477  0  1.053261  0
H  H11  1  0.83651571  0.44810222  0.32825434  1  0  0.073324  0  0.990042  0  0  0.085768  0  1.052307  0  0  0.088941  0  1.051146  0  0  0.083265  0.083523  0  1.053235  0
H  H12  1  0.92459709  0.11185309  0.28483983  1  0  0.063564  0  0.99463  0  0  0.074082  0  1.06454  0  0  0.077442  0  1.061157  0  0  0.087203  0.071577  0  1.06706  0
H  H13  1  0.07539362  0.38815822  0.78483675  1  0  0.063714  0  0.994562  0  0  0.074169  0  1.064531  0  0  0.077526  0  1.06115  0  0  0.087262  0.071699  0  1.067038  0
H  H14  1  0.07539783  0.88815447  0.71516019  1  0  0.063569  0  0.994649  0  0  0.074093  0  1.064555  0  0  0.077451  0  1.061172  0  0  0.087235  0.071596  0  1.067092  0
H  H15  1  0.92462628  0.61183603  0.21516900  1  0  0.063711  0  0.994499  0  0  0.07417  0  1.064462  0  0  0.077526  0  1.061084  0  0  0.087288  0.071707  0  1.066967  0
H  H16  1  0.95989350  0.32566925  0.24869977  1  0  0.084009  0  0.982301  0  0  0.098239  0  1.0432  0  0  0.101039  0  1.042266  0  0  0.087832  0.096212  0  1.044041  0
H  H17  1  0.04009511  0.17433470  0.74869325  1  0  0.08402  0  0.982247  0  0  0.098195  0  1.043193  0  0  0.100988  0  1.042275  0  0  0.087801  0.096208  0  1.043988  0
H  H18  1  0.04009135  0.67432905  0.75130025  1  0  0.084003  0  0.98221  0  0  0.098173  0  1.043184  0  0  0.100969  0  1.042258  0  0  0.087792  0.096172  0  1.043997  0
H  H19  1  0.95993582  0.82566245  0.25130486  1  0  0.084144  0  0.982302  0  0  0.098253  0  1.043281  0  0  0.101081  0  1.042319  0  0  0.087834  0.096233  0  1.044117  0
H  H20  1  0.84804861  0.05767726  0.88854284  1  0  0.117664  0  0.961105  0  0  0.135271  0  1.025399  0  0  0.136266  0  1.026253  0  0  0.091115  0.134509  0  1.02485  0
H  H21  1  0.15196179  0.44232806  0.38854785  1  0  0.117632  0  0.961062  0  0  0.13523  0  1.025388  0  0  0.136226  0  1.026241  0  0  0.091067  0.13446  0  1.024851  0
H  H22  1  0.15195883  0.94231954  0.11144955  1  0  0.11759  0  0.961132  0  0  0.13519  0  1.025468  0  0  0.136185  0  1.026322  0  0  0.091095  0.134421  0  1.024929  0
H  H23  1  0.84803683  0.55767591  0.61144709  1  0  0.117539  0  0.961211  0  0  0.135175  0  1.02549  0  0  0.13617  0  1.026344  0  0  0.091074  0.134408  0  1.024949  0
H  H24  1  0.73636767  0.13802641  0.82069618  1  0  0.123123  0  0.955745  0  0  0.146448  0  1.011792  0  0  0.147706  0  1.012165  0  0  0.097934  0.145479  0  1.011639  0
H  H25  1  0.26364729  0.36198438  0.32069711  1  0  0.123045  0  0.955765  0  0  0.146365  0  1.011831  0  0  0.147621  0  1.012207  0  0  0.097911  0.145396  0  1.011674  0
H  H26  1  0.26364894  0.86197509  0.17930066  1  0  0.123026  0  0.955769  0  0  0.146346  0  1.011837  0  0  0.147603  0  1.012215  0  0  0.097922  0.145376  0  1.011684  0
H  H27  1  0.73635279  0.63801140  0.67930036  1  0  0.122978  0  0.955951  0  0  0.146297  0  1.012007  0  0  0.147551  0  1.012388  0  0  0.097906  0.145329  0  1.011854  0
H  H28  1  0.60225886  0.05241225  0.90868621  1  0  0.116333  0  0.955257  0  0  0.134098  0  1.020256  0  0  0.135405  0  1.020341  0  0  0.090266  0.133104  0  1.020271  0
H  H29  1  0.39774858  0.44758850  0.40869228  1  0  0.116299  0  0.955197  0  0  0.134068  0  1.020175  0  0  0.135374  0  1.02026  0  0  0.090227  0.133071  0  1.020191  0
H  H30  1  0.39774178  0.94757078  0.09130363  1  0  0.116274  0  0.955286  0  0  0.134027  0  1.020304  0  0  0.135333  0  1.020389  0  0  0.090212  0.133034  0  1.020321  0
H  H31  1  0.60226110  0.55241563  0.59130011  1  0  0.1163  0  0.955167  0  0  0.134048  0  1.020204  0  0  0.135353  0  1.020287  0  0  0.090195  0.133053  0  1.020222  0
H  H32  1  0.56017064  0.40104993  0.71388195  1  0  0.07745  0  0.950432  0  0  0.096488  0  1.015342  0  0  0.096404  0  1.016774  0  0  0.094684  0.096432  0  1.01447  0
H  H33  1  0.43979654  0.09895185  0.21388551  1  0  0.077441  0  0.950593  0  0  0.096533  0  1.015421  0  0  0.096449  0  1.016853  0  0  0.094652  0.096477  0  1.014542  0
H  H34  1  0.43981004  0.59895105  0.28611299  1  0  0.077425  0  0.950553  0  0  0.096478  0  1.015435  0  0  0.096393  0  1.016867  0  0  0.094653  0.096419  0  1.014555  0
H  H35  1  0.56019983  0.90104753  0.78611642  1  0  0.077414  0  0.950534  0  0  0.096493  0  1.015403  0  0  0.096408  0  1.016836  0  0  0.094649  0.096436  0  1.014524  0
H  H36  1  0.46533404  0.29944391  0.80077408  1  0  0.067171  0  0.955441  0  0  0.082712  0  1.026638  0  0  0.083491  0  1.026423  0  0  0.088993  0.082062  0  1.02689  0
H  H37  1  0.53464713  0.20056090  0.30078119  1  0  0.067209  0  0.955334  0  0  0.082744  0  1.026536  0  0  0.083523  0  1.026319  0  0  0.088962  0.082089  0  1.026789  0
H  H38  1  0.53466785  0.70055555  0.19921831  1  0  0.067302  0  0.955356  0  0  0.082804  0  1.026575  0  0  0.083581  0  1.026359  0  0  0.089068  0.082144  0  1.02683  0
H  H39  1  0.46534049  0.79943744  0.69922456  1  0  0.067159  0  0.955282  0  0  0.082688  0  1.026517  0  0  0.08347  0  1.026297  0  0  0.088934  0.082032  0  1.026773  0
H  H40  1  0.72032909  0.34536700  0.77548965  1  0  0.082832  0  0.96409  0  0  0.098492  0  1.034098  0  0  0.098706  0  1.0343  0  0  0.097796  0.098232  0  1.034034  0
H  H41  1  0.27964386  0.15463675  0.27549194  1  0  0.082916  0  0.96408  0  0  0.098516  0  1.034162  0  0  0.09873  0  1.034364  0  0  0.097752  0.098253  0  1.034099  0
H  H42  1  0.27966580  0.65464329  0.22449955  1  0  0.082832  0  0.964031  0  0  0.098521  0  1.034014  0  0  0.098737  0  1.034217  0  0  0.097815  0.098256  0  1.033951  0
H  H43  1  0.72033778  0.84536060  0.72450681  1  0  0.082755  0  0.964247  0  0  0.098459  0  1.034222  0  0  0.098675  0  1.034426  0  0  0.097746  0.098198  0  1.034156  0
H  H44  1  0.36052753  0.47600957  0.86485783  1  0  0.04512  0  0.945281  0  0  0.057256  0  1.016759  0  0  0.058398  0  1.015228  0  0  0.102505  0.056313  0  1.018031  0
H  H45  1  0.63945996  0.02399540  0.36485728  1  0  0.045212  0  0.945298  0  0  0.057237  0  1.016765  0  0  0.058377  0  1.015228  0  0  0.102512  0.056307  0  1.018041  0
H  H46  1  0.63947291  0.52399807  0.13514537  1  0  0.045211  0  0.945252  0  0  0.057251  0  1.016715  0  0  0.058396  0  1.015178  0  0  0.102507  0.056317  0  1.017982  0
H  H47  1  0.36052766  0.97600294  0.63514655  1  0  0.045278  0  0.94518  0  0  0.057262  0  1.016716  0  0  0.058407  0  1.01518  0  0  0.102524  0.056328  0  1.017988  0
H  H48  1  0.45622284  0.55245575  0.76869904  1  0  0.055518  0  0.939773  0  0  0.072314  0  1.00285  0  0  0.071503  0  1.004257  0  0  0.102919  0.072807  0  1.001946  0
H  H49  1  0.54376329  0.94755705  0.26870167  1  0  0.055566  0  0.93983  0  0  0.072296  0  1.002827  0  0  0.071482  0  1.004235  0  0  0.102924  0.072804  0  1.00193  0
H  H50  1  0.54377760  0.44755189  0.23129907  1  0  0.05559  0  0.939826  0  0  0.072298  0  1.00289  0  0  0.07149  0  1.004301  0  0  0.10292  0.072798  0  1.001986  0
H  H51  1  0.45623398  0.05244416  0.73130344  1  0  0.055524  0  0.939863  0  0  0.072242  0  1.002905  0  0  0.071432  0  1.004315  0  0  0.102915  0.072745  0  1.002002  0
H  H52  1  0.71246348  0.71370299  0.85284050  1  0  0.060541  0  0.947035  0  0  0.074032  0  1.012473  0  0  0.073555  0  1.01409  0  0  0.101916  0.074238  0  1.011554  0
H  H53  1  0.28752379  0.78629534  0.35283864  1  0  0.060435  0  0.946913  0  0  0.07398  0  1.01232  0  0  0.073503  0  1.013936  0  0  0.101912  0.074186  0  1.011401  0
H  H54  1  0.28754074  0.28629286  0.14715952  1  0  0.060512  0  0.947036  0  0  0.074042  0  1.012441  0  0  0.073566  0  1.014055  0  0  0.101933  0.074247  0  1.011529  0
H  H55  1  0.71246109  0.21370023  0.64716392  1  0  0.060526  0  0.946966  0  0  0.074026  0  1.012403  0  0  0.073549  0  1.014019  0  0  0.101928  0.074235  0  1.011488  0
H  H56  1  0.46492297  0.70654950  0.87241703  1  0  0.067595  0  0.943993  0  0  0.081408  0  1.007128  0  0  0.080825  0  1.00888  0  0  0.105261  0.081737  0  1.006007  0
H  H57  1  0.53507224  0.79346081  0.37242133  1  0  0.06749  0  0.943993  0  0  0.081355  0  1.007102  0  0  0.080774  0  1.008848  0  0  0.105216  0.081686  0  1.005979  0
H  H58  1  0.53509172  0.29346199  0.12757981  1  0  0.067633  0  0.943996  0  0  0.081416  0  1.007188  0  0  0.080828  0  1.008942  0  0  0.105254  0.081748  0  1.006062  0
H  H59  1  0.46491859  0.20653849  0.62758187  1  0  0.06757  0  0.944079  0  0  0.081407  0  1.0072  0  0  0.080825  0  1.00895  0  0  0.105264  0.081741  0  1.006079  0
H  H60  1  0.55623534  0.79780858  0.01450456  1  0  0.067062  0  0.979909  0  0  0.078628  0  1.055991  0  0  0.07947  0  1.055963  0  0  0.087189  0.077925  0  1.056084  0
H  H61  1  0.44375195  0.70218755  0.51450776  1  0  0.067052  0  0.979998  0  0  0.078625  0  1.056067  0  0  0.079473  0  1.056035  0  0  0.087148  0.077921  0  1.056162  0
H  H62  1  0.44376195  0.20218990  0.98549228  1  0  0.067069  0  0.979918  0  0  0.078647  0  1.055979  0  0  0.079496  0  1.055946  0  0  0.087166  0.077946  0  1.056071  0
H  H63  1  0.55624165  0.29781179  0.48549735  1  0  0.067071  0  0.979941  0  0  0.078629  0  1.056022  0  0  0.079471  0  1.055995  0  0  0.08719  0.077929  0  1.056115  0
H  H64  1  0.80137321  0.81323168  0.98172641  1  0  0.078278  0  0.972977  0  0  0.09302  0  1.041391  0  0  0.092898  0  1.042968  0  0  0.092249  0.092986  0  1.040395  0
H  H65  1  0.19862522  0.68678335  0.48173249  1  0  0.078277  0  0.973174  0  0  0.093047  0  1.041541  0  0  0.092926  0  1.043121  0  0  0.092271  0.093012  0  1.040538  0
H  H66  1  0.19862628  0.18677959  0.01827107  1  0  0.078307  0  0.973087  0  0  0.093071  0  1.041464  0  0  0.092951  0  1.043042  0  0  0.092292  0.093039  0  1.040468  0
H  H67  1  0.80137250  0.31321878  0.51827707  1  0  0.07833  0  0.973018  0  0  0.093082  0  1.041411  0  0  0.092962  0  1.042989  0  0  0.092325  0.093049  0  1.040411  0
H  H68  1  0.70442109  0.73398849  0.07782994  1  0  0.080515  0  0.956721  0  0  0.096661  0  1.025885  0  0  0.097077  0  1.025563  0  0  0.100016  0.096258  0  1.026208  0
H  H69  1  0.29557245  0.76601327  0.57783574  1  0  0.080449  0  0.956638  0  0  0.096629  0  1.025801  0  0  0.097044  0  1.02548  0  0  0.099974  0.096222  0  1.026133  0
H  H70  1  0.29557753  0.26601548  0.92216690  1  0  0.080489  0  0.956656  0  0  0.096661  0  1.025818  0  0  0.097076  0  1.025499  0  0  0.100005  0.096259  0  1.026145  0
H  H71  1  0.70442253  0.23398609  0.42217128  1  0  0.080566  0  0.956607  0  0  0.096699  0  1.025786  0  0  0.097115  0  1.025465  0  0  0.10004  0.0963  0  1.026109  0
H  H72  1  0.95217617  0.46440694  0.14377706  1  0  0.247899  0  0.997126  0  0  0.249366  0  1.051276  0  0  0.253745  0  1.048982  0  0  0.250502  0.246318  0  1.052846  0
H  H73  1  0.04783010  0.03559259  0.64377799  1  0  0.247885  0  0.997131  0  0  0.249348  0  1.051291  0  0  0.253727  0  1.048996  0  0  0.250493  0.246303  0  1.052851  0
H  H74  1  0.04781659  0.53558236  0.85621533  1  0  0.247899  0  0.997019  0  0  0.249354  0  1.051209  0  0  0.253737  0  1.048901  0  0  0.250452  0.246294  0  1.052811  0
H  H75  1  0.95219068  0.96440623  0.35621567  1  0  0.247904  0  0.997141  0  0  0.249363  0  1.051298  0  0  0.25374  0  1.049008  0  0  0.25048  0.246313  0  1.052873  0
C  C76  1  0.89637659  0.29329994  0.11483188  1  0  0.290293  0  3.954442  0  0  0.284368  0  4.198182  0  0  0.297745  0  4.217513  0  0  0.071396  0.27555  0  4.184731  0
C  C77  1  0.10361213  0.20669657  0.61483080  1  0  0.290361  0  3.954413  0  0  0.28439  0  4.198235  0  0  0.297768  0  4.217564  0  0  0.071366  0.27556  0  4.184805  0
C  C78  1  0.10361293  0.70669114  0.88516560  1  0  0.290234  0  3.954434  0  0  0.284252  0  4.198225  0  0  0.297629  0  4.217556  0  0  0.071356  0.275432  0  4.18477  0
C  C79  1  0.89639162  0.79330109  0.38516859  1  0  0.290518  0  3.954211  0  0  0.284474  0  4.198116  0  0  0.297851  0  4.21745  0  0  0.0713  0.275651  0  4.184672  0
C  C80  1  0.84892545  0.19749331  0.05150772  1  0  -0.092729  0  3.757371  0  0  -0.065324  0  4.00283  0  0  -0.070336  0  4.025596  0  0  -0.036208  -0.062348  0  3.987636  0
C  C81  1  0.15108873  0.30250624  0.55150732  1  0  -0.092644  0  3.756943  0  0  -0.065237  0  4.00243  0  0  -0.07025  0  4.025197  0  0  -0.036189  -0.062254  0  3.987227  0
C  C82  1  0.15108065  0.80249801  0.94849166  1  0  -0.092653  0  3.756876  0  0  -0.065168  0  4.002244  0  0  -0.070179  0  4.025007  0  0  -0.036155  -0.06218  0  3.987032  0
C  C83  1  0.84893244  0.69750170  0.44849206  1  0  -0.092831  0  3.75695  0  0  -0.065361  0  4.002397  0  0  -0.070377  0  4.025162  0  0  -0.036154  -0.062378  0  3.987196  0
C  C84  1  0.82809276  0.07643032  0.07236521  1  0  -0.13208  0  3.867161  0  0  -0.151555  0  4.112314  0  0  -0.149279  0  4.133006  0  0  -0.121045  -0.152671  0  4.098068  0
C  C85  1  0.17193411  0.42356852  0.57236206  1  0  -0.132187  0  3.867016  0  0  -0.151641  0  4.112261  0  0  -0.149364  0  4.132949  0  0  -0.12116  -0.152761  0  4.098013  0
C  C86  1  0.17191706  0.92355740  0.92763863  1  0  -0.132174  0  3.867022  0  0  -0.151638  0  4.112209  0  0  -0.149362  0  4.132903  0  0  -0.12115  -0.152764  0  4.097967  0
C  C87  1  0.82807652  0.57643198  0.42764432  1  0  -0.132014  0  3.867275  0  0  -0.151483  0  4.112502  0  0  -0.149207  0  4.133189  0  0  -0.1211  -0.152609  0  4.098261  0
C  C88  1  0.85487611  0.04333463  0.15625868  1  0  -0.167658  0  3.88562  0  0  -0.178801  0  4.143534  0  0  -0.185914  0  4.166533  0  0  -0.146463  -0.174146  0  4.127794  0
C  C89  1  0.14513280  0.45667498  0.65625016  1  0  -0.167701  0  3.885464  0  0  -0.178883  0  4.143315  0  0  -0.185989  0  4.166316  0  0  -0.146469  -0.174234  0  4.127603  0
C  C90  1  0.14512899  0.95666578  0.84374579  1  0  -0.167751  0  3.885381  0  0  -0.178923  0  4.143295  0  0  -0.186039  0  4.166295  0  0  -0.146471  -0.174277  0  4.127583  0
C  C91  1  0.85486266  0.54332257  0.34376068  1  0  -0.167778  0  3.885523  0  0  -0.179002  0  4.143428  0  0  -0.186108  0  4.166439  0  0  -0.146583  -0.174345  0  4.1277  0
C  C92  1  0.90318433  0.13465081  0.21897593  1  0  -0.081971  0  3.90922  0  0  -0.099817  0  4.167478  0  0  -0.096134  0  4.187085  0  0  -0.119738  -0.101811  0  4.153898  0
C  C93  1  0.09680185  0.36535854  0.71897179  1  0  -0.082238  0  3.909333  0  0  -0.10005  0  4.167618  0  0  -0.096365  0  4.187219  0  0  -0.119832  -0.102084  0  4.154033  0
C  C94  1  0.09680968  0.86535492  0.78102345  1  0  -0.081991  0  3.909226  0  0  -0.099851  0  4.167502  0  0  -0.096166  0  4.187107  0  0  -0.119805  -0.101869  0  4.153914  0
C  C95  1  0.90320514  0.63463735  0.28103587  1  0  -0.082222  0  3.909143  0  0  -0.100038  0  4.167448  0  0  -0.096357  0  4.187059  0  0  -0.119857  -0.102073  0  4.153836  0
C  C96  1  0.92172109  0.25541713  0.19913124  1  0  -0.232638  0  3.772939  0  0  -0.243521  0  4.023161  0  0  -0.251436  0  4.043052  0  0  -0.13145  -0.23834  0  4.009687  0
C  C97  1  0.07826851  0.24459771  0.69912414  1  0  -0.23263  0  3.772977  0  0  -0.243417  0  4.02316  0  0  -0.251332  0  4.043053  0  0  -0.131344  -0.238265  0  4.009684  0
C  C98  1  0.07827199  0.74458949  0.80087133  1  0  -0.232625  0  3.772897  0  0  -0.243433  0  4.023121  0  0  -0.251349  0  4.043017  0  0  -0.131385  -0.238269  0  4.009635  0
C  C99  1  0.92174715  0.75540741  0.30087143  1  0  -0.232755  0  3.772887  0  0  -0.243469  0  4.02308  0  0  -0.251404  0  4.042953  0  0  -0.131355  -0.238302  0  4.009633  0
C  C100  1  0.74684905  0.10999152  0.88667138  1  0  -0.328613  0  3.680444  0  0  -0.398609  0  3.927581  0  0  -0.400243  0  3.935968  0  0  -0.231846  -0.397275  0  3.921783  0
C  C101  1  0.25315855  0.39001102  0.38667661  1  0  -0.328444  0  3.680437  0  0  -0.398395  0  3.927526  0  0  -0.400027  0  3.935913  0  0  -0.23173  -0.397055  0  3.92172  0
C  C102  1  0.25314971  0.88999604  0.11332228  1  0  -0.328403  0  3.680632  0  0  -0.398398  0  3.927817  0  0  -0.400033  0  3.93621  0  0  -0.231764  -0.397064  0  3.922014  0
C  C103  1  0.74685018  0.60999674  0.61332150  1  0  -0.328333  0  3.680668  0  0  -0.398325  0  3.927797  0  0  -0.399955  0  3.936184  0  0  -0.231728  -0.396992  0  3.922  0
C  C104  1  0.59271249  0.37530232  0.77817705  1  0  -0.079491  0  3.675252  0  0  -0.171945  0  3.939701  0  0  -0.166642  0  3.945312  0  0  -0.147063  -0.175342  0  3.935787  0
C  C105  1  0.40726977  0.12470066  0.27818032  1  0  -0.079549  0  3.675533  0  0  -0.172045  0  3.939979  0  0  -0.166741  0  3.945584  0  0  -0.146947  -0.175436  0  3.93606  0
C  C106  1  0.40729074  0.62470263  0.22181724  1  0  -0.07955  0  3.675419  0  0  -0.172058  0  3.939903  0  0  -0.166754  0  3.945507  0  0  -0.147089  -0.175441  0  3.93598  0
C  C107  1  0.59272200  0.87529774  0.72182098  1  0  -0.079355  0  3.675355  0  0  -0.171914  0  3.93977  0  0  -0.166616  0  3.945383  0  0  -0.146929  -0.175304  0  3.935851  0
C  C108  1  0.49485437  0.53648655  0.83451464  1  0  0.055472  0  3.671771  0  0  -0.002801  0  3.938293  0  0  0.00366  0  3.943733  0  0  -0.075006  -0.007128  0  3.934569  0
C  C109  1  0.50512716  0.96351805  0.33451696  1  0  0.054884  0  3.672368  0  0  -0.003027  0  3.938422  0  0  0.003438  0  3.94386  0  0  -0.075234  -0.007418  0  3.934775  0
C  C110  1  0.50514149  0.46351738  0.16548220  1  0  0.055081  0  3.672275  0  0  -0.002875  0  3.938377  0  0  0.003573  0  3.943836  0  0  -0.07513  -0.00723  0  3.934681  0
C  C111  1  0.49486046  0.03648029  0.66548433  1  0  0.055089  0  3.672085  0  0  -0.002837  0  3.938173  0  0  0.003612  0  3.943635  0  0  -0.075139  -0.007196  0  3.934495  0
C  C112  1  0.57092946  0.65784969  0.87988376  1  0  0.03862  0  3.649512  0  0  -0.01481  0  3.909144  0  0  -0.008811  0  3.915233  0  0  -0.079795  -0.018866  0  3.905031  0
C  C113  1  0.42906651  0.84215608  0.37988590  1  0  0.038962  0  3.649086  0  0  -0.014623  0  3.908605  0  0  -0.008623  0  3.914689  0  0  -0.079741  -0.018662  0  3.904502  0
C  C114  1  0.42907517  0.34215255  0.12011435  1  0  0.038524  0  3.649586  0  0  -0.01495  0  3.909098  0  0  -0.008944  0  3.915188  0  0  -0.079846  -0.018999  0  3.904987  0
C  C115  1  0.57092569  0.15784597  0.62011730  1  0  0.038642  0  3.649445  0  0  -0.014864  0  3.908972  0  0  -0.008863  0  3.915065  0  0  -0.079831  -0.018925  0  3.90489  0
C  C116  1  0.66845269  0.75324759  0.01285347  1  0  -0.089017  0  3.671334  0  0  -0.179619  0  3.938257  0  0  -0.174061  0  3.942361  0  0  -0.149572  -0.18317  0  3.935396  0
C  C117  1  0.33155198  0.74675608  0.51285831  1  0  -0.088955  0  3.671497  0  0  -0.179665  0  3.938392  0  0  -0.174117  0  3.942495  0  0  -0.149522  -0.183197  0  3.935505  0
C  C118  1  0.33155010  0.24675370  0.98714464  1  0  -0.089071  0  3.671428  0  0  -0.17971  0  3.938322  0  0  -0.17416  0  3.94242  0  0  -0.149583  -0.18326  0  3.935462  0
C  C119  1  0.66844943  0.25324519  0.48715062  1  0  -0.089042  0  3.671385  0  0  -0.179635  0  3.938294  0  0  -0.174077  0  3.942396  0  0  -0.1496  -0.183189  0  3.935434  0
S  S120  1  0.83554609  0.25016500  0.94701827  1  0  -0.030863  0  2.556239  0  0  -0.010729  0  2.910998  0  0  -0.013552  0  2.911932  0  0  -0.008715  -0.008635  0  2.910463  0
S  S121  1  0.16446403  0.24983583  0.44701057  1  0  -0.030974  0  2.556244  0  0  -0.010823  0  2.910964  0  0  -0.013644  0  2.911894  0  0  -0.008713  -0.008732  0  2.910413  0
S  S122  1  0.16445355  0.74982714  0.05298875  1  0  -0.030869  0  2.556201  0  0  -0.010743  0  2.910905  0  0  -0.013562  0  2.911835  0  0  -0.008693  -0.008649  0  2.910356  0
S  S123  1  0.83552719  0.75017259  0.55298691  1  0  -0.030866  0  2.556033  0  0  -0.010717  0  2.91074  0  0  -0.013538  0  2.911669  0  0  -0.008698  -0.008625  0  2.910197  0
N  N124  1  0.91683009  0.40942434  0.09089270  1  0  -0.933637  0  2.922523  0  0  -0.892978  0  3.185714  0  0  -0.915427  0  3.186295  0  0  -0.744654  -0.877189  0  3.184843  0
N  N125  1  0.08316470  0.09057497  0.59089245  1  0  -0.933593  0  2.922543  0  0  -0.892924  0  3.185757  0  0  -0.915371  0  3.186338  0  0  -0.744637  -0.877134  0  3.184884  0
N  N126  1  0.08316589  0.59056592  0.90910095  1  0  -0.933569  0  2.922346  0  0  -0.892886  0  3.185543  0  0  -0.915335  0  3.186131  0  0  -0.744549  -0.877095  0  3.18468  0
N  N127  1  0.91683211  0.90942533  0.40909993  1  0  -0.933647  0  2.922386  0  0  -0.892954  0  3.185636  0  0  -0.915402  0  3.18622  0  0  -0.744509  -0.877161  0  3.184771  0
O  O128  1  0.64039558  0.47845452  0.83408899  1  0  -0.314909  0  2.311485  0  0  -0.2369  0  2.56799  0  0  -0.252087  0  2.569812  0  0  -0.283897  -0.226228  0  2.566398  0
O  O129  1  0.35958996  0.02154857  0.33409222  1  0  -0.314659  0  2.31181  0  0  -0.236675  0  2.568134  0  0  -0.251859  0  2.569953  0  0  -0.283733  -0.225988  0  2.566558  0
O  O130  1  0.35959938  0.52154758  0.16590658  1  0  -0.314772  0  2.311724  0  0  -0.23678  0  2.568105  0  0  -0.251959  0  2.569931  0  0  -0.283858  -0.226107  0  2.566513  0
O  O131  1  0.64039952  0.97844798  0.66590716  1  0  -0.314792  0  2.311669  0  0  -0.236775  0  2.56803  0  0  -0.251955  0  2.56986  0  0  -0.283811  -0.22609  0  2.566431  0
O  O132  1  0.59571632  0.63791101  0.96904102  1  0  -0.344737  0  2.299752  0  0  -0.26766  0  2.55971  0  0  -0.281635  0  2.558449  0  0  -0.297049  -0.257863  0  2.56034  0
O  O133  1  0.40427991  0.86209486  0.46904611  1  0  -0.344783  0  2.299363  0  0  -0.267682  0  2.559434  0  0  -0.281653  0  2.558158  0  0  -0.297034  -0.257883  0  2.560052  0
O  O134  1  0.40428831  0.36209122  0.03095646  1  0  -0.344593  0  2.299619  0  0  -0.267555  0  2.559626  0  0  -0.281528  0  2.558359  0  0  -0.297004  -0.257754  0  2.560252  0
O  O135  1  0.59571045  0.13790625  0.53096027  1  0  -0.344733  0  2.299704  0  0  -0.26769  0  2.559738  0  0  -0.281666  0  2.558474  0  0  -0.297073  -0.257884  0  2.560365  0
