# generated using pymatgen
data_Cd3H30(C21O8)2
_symmetry_space_group_name_H-M   'P 1'
_cell_length_a   7.12419043
_cell_length_b   21.36207289
_cell_length_c   21.41182249
_cell_angle_alpha   60.09320356
_cell_angle_beta   84.19411368
_cell_angle_gamma   90.09943767
_symmetry_Int_Tables_number   1
_chemical_formula_structural   Cd3H30(C21O8)2
_chemical_formula_sum   'Cd6 H60 C84 O32'
_cell_volume   2805.04978422
_cell_formula_units_Z   2
loop_
 _symmetry_equiv_pos_site_id
 _symmetry_equiv_pos_as_xyz
  1  'x, y, z'
loop_
 _atom_site_type_symbol
 _atom_site_label
 _atom_site_symmetry_multiplicity
 _atom_site_fract_x
 _atom_site_fract_y
 _atom_site_fract_z
 _atom_site_occupancy
 _atom_site_pbe_bader_charge
 _atom_site_pbe_bader_spin_density
 _atom_site_pbe_cm5_charge
 _atom_site_pbe_ddec_charge
 _atom_site_pbe_ddec_spin_density
 _atom_site_pbe_ddec_sum_bond_order
 _atom_site_pbe_magmom
Cd  Cd0  1  0.15566254  0.69331850  0.55128928  1  1.339429  0  0.788488  1.053214  0  2.042377  0
Cd  Cd1  1  0.65162608  0.75098859  0.55483121  1  1.342718  0  0.783882  1.059829  0  2.040832  0
Cd  Cd2  1  0.25714421  0.91840912  0.00160608  1  1.292328  0  0.768795  1.003926  0  2.007775  0
Cd  Cd3  1  0.84432936  0.30668188  0.44870747  1  1.33947  0  0.788504  1.053252  0  2.042343  0
Cd  Cd4  1  0.34836075  0.24901919  0.44515199  1  1.342293  0  0.783873  1.05993  0  2.040588  0
Cd  Cd5  1  0.74286954  0.08159379  0.99839233  1  1.292391  0  0.768794  1.003919  0  2.00768  0
H  H6  1  0.91536028  0.91321154  0.91771523  1  0.075805  0  0.099029  0.100624  0  1.039375  0
H  H7  1  0.16923866  0.90594841  0.83400505  1  0.092386  0  0.099847  0.111985  0  1.044855  0
H  H8  1  0.74764460  0.85367626  0.73302904  1  0.041728  0  0.094448  0.086905  0  1.04386  0
H  H9  1  0.49555068  0.85967549  0.81852680  1  0.079724  0  0.104499  0.107525  0  1.01345  0
H  H10  1  0.99241962  0.78645631  0.72592426  1  0.074313  0  0.106301  0.107787  0  1.021154  0
H  H11  1  0.48878271  0.88392156  0.57161802  1  0.113617  0  0.106701  0.115776  0  1.0253  0
H  H12  1  0.29498220  0.96829694  0.71107946  1  0.080144  0  0.107879  0.107471  0  1.012516  0
H  H13  1  0.41173837  0.06772776  0.61721919  1  0.085423  0  0.102916  0.109196  0  1.004307  0
H  H14  1  0.67861085  0.15799731  0.57347942  1  0.098906  0  0.100686  0.108418  0  1.031815  0
H  H15  1  0.04685226  0.01149419  0.54680851  1  0.115789  0  0.102493  0.106832  0  1.023351  0
H  H16  1  0.77958951  0.92018820  0.59037752  1  0.044177  0  0.095558  0.092194  0  1.039591  0
H  H17  1  0.46083856  0.55808220  0.45207108  1  0.115862  0  0.103195  0.106132  0  1.023914  0
H  H18  1  0.72950737  0.51115232  0.40819478  1  0.099079  0  0.102457  0.108704  0  1.014306  0
H  H19  1  0.09575487  0.68534846  0.38309046  1  0.087284  0  0.100274  0.104907  0  1.012411  0
H  H20  1  0.82698287  0.73194409  0.42586970  1  0.093771  0  0.098272  0.105761  0  1.036713  0
H  H21  1  0.00600195  0.45668417  0.42401200  1  0.121486  0  0.107752  0.115905  0  1.018694  0
H  H22  1  0.52273970  0.50959669  0.28052062  1  0.075179  0  0.106924  0.108845  0  1.02008  0
H  H23  1  0.22298432  0.67852489  0.29190493  1  0.058989  0  0.104766  0.10233  0  1.019504  0
H  H24  1  0.34819850  0.73809143  0.17240336  1  0.093682  0  0.097764  0.110375  0  1.055037  0
H  H25  1  0.77099053  0.58423526  0.26892188  1  0.057183  0  0.100801  0.102127  0  1.026155  0
H  H26  1  0.02144008  0.67817966  0.18709379  1  0.094907  0  0.104073  0.107376  0  1.015262  0
H  H27  1  0.59945110  0.83054723  0.09083902  1  0.110607  0  0.098036  0.096733  0  1.049332  0
H  H28  1  0.22643816  0.92400201  0.13502097  1  0.622012  0  0.335951  0.418029  0  0.852555  0
H  H29  1  0.33586112  0.99959885  0.07415513  1  0.651455  0  0.290384  0.386785  0  0.962573  0
H  H30  1  0.20254554  0.07165063  0.92971465  1  0.658897  0  0.283075  0.3906  0  0.954861  0
H  H31  1  0.40667346  0.05639314  0.90250869  1  0.651826  0  0.293299  0.389088  0  0.93616  0
H  H32  1  0.83551612  0.74936252  0.66327461  1  0.652493  0  0.284525  0.385704  0  0.957394  0
H  H33  1  0.65471417  0.79437891  0.66139478  1  0.60176  0  0.299872  0.3723  0  0.946986  0
H  H34  1  0.33374912  0.59593926  0.66510176  1  0.667168  0  0.288299  0.389929  0  0.952111  0
H  H35  1  0.14202137  0.61208258  0.69724313  1  0.609877  0  0.31747  0.405579  0  0.877494  0
H  H36  1  0.08466462  0.08679024  0.08228419  1  0.075767  0  0.099038  0.100691  0  1.039385  0
H  H37  1  0.83078261  0.09404157  0.16599725  1  0.092405  0  0.099851  0.112055  0  1.044933  0
H  H38  1  0.25234895  0.14630658  0.26698243  1  0.041691  0  0.09439  0.086887  0  1.04391  0
H  H39  1  0.50445935  0.14031092  0.18148746  1  0.078686  0  0.104484  0.10748  0  1.013427  0
H  H40  1  0.00759678  0.21353800  0.27407668  1  0.074439  0  0.106295  0.107798  0  1.021132  0
H  H41  1  0.51120779  0.11608930  0.42836826  1  0.113836  0  0.106721  0.115764  0  1.025451  0
H  H42  1  0.70502366  0.03169123  0.28893040  1  0.080213  0  0.107979  0.107619  0  1.012203  0
H  H43  1  0.58826418  0.93226880  0.38277939  1  0.085284  0  0.102905  0.109212  0  1.004401  0
H  H44  1  0.32138347  0.84200447  0.42650723  1  0.098604  0  0.100693  0.108423  0  1.031874  0
H  H45  1  0.95314501  0.98850574  0.45318544  1  0.115793  0  0.102482  0.106698  0  1.023403  0
H  H46  1  0.22042573  0.07980477  0.40963111  1  0.044384  0  0.095567  0.092249  0  1.039557  0
H  H47  1  0.53915213  0.44190878  0.54793623  1  0.116121  0  0.103139  0.10597  0  1.024012  0
H  H48  1  0.27049448  0.48883217  0.59182959  1  0.099592  0  0.102427  0.108675  0  1.01427  0
H  H49  1  0.90421012  0.31465895  0.61690550  1  0.086897  0  0.100353  0.105105  0  1.012315  0
H  H50  1  0.17296751  0.26806483  0.57411494  1  0.093492  0  0.098314  0.105826  0  1.036766  0
H  H51  1  0.99400681  0.54331621  0.57598313  1  0.121407  0  0.107719  0.115894  0  1.01854  0
H  H52  1  0.47727230  0.49041096  0.71947937  1  0.074691  0  0.106978  0.108903  0  1.019976  0
H  H53  1  0.77702450  0.32147822  0.70810340  1  0.059129  0  0.104798  0.102302  0  1.019666  0
H  H54  1  0.65181159  0.26190939  0.82760974  1  0.093711  0  0.097791  0.110392  0  1.054979  0
H  H55  1  0.22904609  0.41577772  0.73109096  1  0.056895  0  0.100829  0.102109  0  1.026178  0
H  H56  1  0.97857169  0.32183663  0.81291805  1  0.094953  0  0.104056  0.107312  0  1.015226  0
H  H57  1  0.40054811  0.16946149  0.90917735  1  0.104131  0  0.097998  0.096779  0  1.04927  0
H  H58  1  0.77356563  0.07600730  0.86497811  1  0.621838  0  0.335935  0.417969  0  0.852654  0
H  H59  1  0.66415049  0.00040784  0.92584206  1  0.651576  0  0.290336  0.386747  0  0.962613  0
H  H60  1  0.79746024  0.92835439  0.07028496  1  0.658967  0  0.283118  0.390665  0  0.954793  0
H  H61  1  0.59333982  0.94361280  0.09749439  1  0.651901  0  0.293331  0.389158  0  0.936055  0
H  H62  1  0.16449710  0.25064365  0.33670640  1  0.652302  0  0.284537  0.385786  0  0.957346  0
H  H63  1  0.34528536  0.20561835  0.33859892  1  0.601573  0  0.299921  0.372426  0  0.94714  0
H  H64  1  0.66625472  0.40406488  0.33489274  1  0.667215  0  0.288241  0.389884  0  0.952192  0
H  H65  1  0.85798280  0.38791386  0.30275872  1  0.60984  0  0.317402  0.405507  0  0.877535  0
C  C66  1  0.53733714  0.89659713  0.91956043  1  1.498442  0  0.203568  0.568005  0  4.184041  0
C  C67  1  0.68996827  0.88890454  0.87186017  1  -0.069341  0  -0.021721  -0.043768  0  4.003882  0
C  C68  1  0.88031047  0.90174055  0.87588345  1  -0.012181  0  -0.084528  -0.083763  0  3.968509  0
C  C69  1  0.02207216  0.89795993  0.82838731  1  -0.016404  0  -0.088963  -0.128706  0  3.948744  0
C  C70  1  0.97628700  0.88076977  0.77617699  1  0.017987  0  -0.000258  0.079822  0  3.979173  0
C  C71  1  0.78528709  0.86612169  0.77386169  1  -0.033972  0  -0.089292  -0.12467  0  3.97737  0
C  C72  1  0.64354852  0.87010254  0.82097414  1  -0.032062  0  -0.081473  -0.081006  0  3.972707  0
C  C73  1  0.12350526  0.87908797  0.72339764  1  0.019512  0  -0.002398  0.077773  0  4.014959  0
C  C74  1  0.10744782  0.82819915  0.70094262  1  -0.036447  0  -0.080667  -0.140338  0  3.928312  0
C  C75  1  0.23997344  0.82891735  0.64772602  1  -0.029857  0  -0.020937  -0.027971  0  3.998369  0
C  C76  1  0.39266389  0.88090492  0.61625400  1  -0.076166  0  -0.08432  -0.157106  0  3.916234  0
C  C77  1  0.41528953  0.93124206  0.63949719  1  -0.033391  0  -0.002806  0.072957  0  3.99852  0
C  C78  1  0.27962032  0.92922048  0.69306241  1  -0.037308  0  -0.072244  -0.15245  0  3.895469  0
C  C79  1  0.57552860  0.98624317  0.60908666  1  -0.032058  0  -0.002  0.075137  0  3.981398  0
C  C80  1  0.55146523  0.05406415  0.60371040  1  -0.026317  0  -0.087618  -0.122673  0  3.9527  0
C  C81  1  0.70155788  0.10543692  0.57837199  1  -0.051148  0  -0.08356  -0.07266  0  3.963305  0
C  C82  1  0.88108033  0.09072507  0.55710513  1  0.005344  0  -0.024403  -0.047333  0  3.979957  0
C  C83  1  0.90694461  0.02324968  0.56239600  1  -0.040148  0  -0.082499  -0.080976  0  3.965741  0
C  C84  1  0.75590963  0.97201555  0.58740181  1  -0.043536  0  -0.091247  -0.135285  0  3.975886  0
C  C85  1  0.03860981  0.14764401  0.52607909  1  1.500077  0  0.202062  0.579571  0  4.191438  0
C  C86  1  0.20981428  0.77494897  0.62416801  1  1.545851  0  0.212067  0.591851  0  4.167368  0
C  C87  1  0.46758300  0.67387408  0.47233942  1  1.502815  0  0.201485  0.576453  0  4.191144  0
C  C88  1  0.62567160  0.64801818  0.44192104  1  -0.003628  0  -0.026457  -0.050588  0  3.984774  0
C  C89  1  0.60069710  0.58562258  0.43675679  1  -0.124648  0  -0.080912  -0.080513  0  3.962545  0
C  C90  1  0.75223742  0.55962236  0.41193728  1  0.022324  0  -0.086953  -0.132069  0  3.957997  0
C  C91  1  0.93260554  0.59576849  0.39062395  1  -0.056054  0  0.002007  0.0817  0  3.973858  0
C  C92  1  0.95597567  0.65820541  0.39611288  1  -0.07464  0  -0.090399  -0.128354  0  3.964706  0
C  C93  1  0.80519289  0.68420877  0.42095443  1  -0.015438  0  -0.086636  -0.078268  0  3.974444  0
C  C94  1  0.09336176  0.57086015  0.36099076  1  0.009987  0  -0.002255  0.068384  0  3.991945  0
C  C95  1  0.11018976  0.49747733  0.38286475  1  -0.030424  0  -0.072481  -0.119194  0  3.884463  0
C  C96  1  0.26484315  0.47599280  0.35367143  1  -0.007836  0  -0.019579  -0.034831  0  4.006778  0
C  C97  1  0.40455007  0.52726353  0.30306084  1  -0.019539  0  -0.077844  -0.132787  0  3.921152  0
C  C98  1  0.39157596  0.60068034  0.28051973  1  -0.03299  0  -0.004064  0.070423  0  4.017789  0
C  C99  1  0.23456533  0.62135318  0.30955856  1  -0.035451  0  -0.072498  -0.151968  0  3.900819  0
C  C100  1  0.28852442  0.39834013  0.37792474  1  1.52613  0  0.21483  0.60073  0  4.145069  0
C  C101  1  0.54110405  0.65503203  0.22889233  1  -0.01702  0  0.001333  0.083854  0  3.97695  0
C  C102  1  0.49543763  0.72496253  0.17804607  1  -0.040733  0  -0.092832  -0.13488  0  3.956391  0
C  C103  1  0.73218507  0.63830620  0.23042286  1  -0.030239  0  -0.087567  -0.127445  0  3.963874  0
C  C104  1  0.87342310  0.69085564  0.18493737  1  -0.065479  0  -0.081381  -0.080302  0  3.966076  0
C  C105  1  0.82722042  0.76137016  0.13606347  1  -0.029776  0  -0.024661  -0.047477  0  4.002576  0
C  C106  1  0.63648169  0.77734344  0.13187004  1  -0.01476  0  -0.086841  -0.08133  0  3.969898  0
C  C107  1  0.98017582  0.81737286  0.09000089  1  1.488326  0  0.201435  0.56336  0  4.190918  0
C  C108  1  0.46268443  0.10340316  0.08043608  1  1.498106  0  0.203594  0.568056  0  4.183508  0
C  C109  1  0.31003371  0.11109332  0.12814670  1  -0.068691  0  -0.021825  -0.044171  0  4.003639  0
C  C110  1  0.11968775  0.09825429  0.12411892  1  -0.01219  0  -0.084609  -0.083838  0  3.968571  0
C  C111  1  0.97793105  0.10203171  0.17161496  1  -0.016944  0  -0.088956  -0.128796  0  3.948899  0
C  C112  1  0.02372856  0.11922025  0.22382459  1  0.017873  0  -0.000184  0.080029  0  3.9792  0
C  C113  1  0.21471138  0.13386490  0.22614829  1  -0.033672  0  -0.089322  -0.124825  0  3.977574  0
C  C114  1  0.35645352  0.12988659  0.17903917  1  -0.031649  0  -0.081368  -0.080629  0  3.972406  0
C  C115  1  0.87650415  0.12090631  0.27660453  1  0.020063  0  -0.00241  0.07758  0  4.0148  0
C  C116  1  0.89255375  0.17179895  0.29905762  1  -0.036646  0  -0.080635  -0.140205  0  3.92824  0
C  C117  1  0.76002296  0.17108405  0.35227147  1  -0.029833  0  -0.020954  -0.028142  0  3.998577  0
C  C118  1  0.60732301  0.11909867  0.38374286  1  -0.076374  0  -0.084346  -0.157092  0  3.916405  0
C  C119  1  0.58470985  0.06875687  0.36050976  1  -0.033089  0  -0.00279  0.072988  0  3.998366  0
C  C120  1  0.72038397  0.07077589  0.30694133  1  -0.037291  0  -0.072302  -0.152489  0  3.89503  0
C  C121  1  0.42447560  0.01375325  0.39091566  1  -0.03243  0  -0.002049  0.074984  0  3.981395  0
C  C122  1  0.44854293  0.94593241  0.39628749  1  -0.026391  0  -0.087575  -0.122728  0  3.952641  0
C  C123  1  0.29844077  0.89456361  0.42161974  1  -0.050741  0  -0.083569  -0.072664  0  3.963366  0
C  C124  1  0.11891229  0.90927391  0.44288571  1  0.004782  0  -0.024467  -0.047226  0  3.980078  0
C  C125  1  0.09306513  0.97674857  0.43759915  1  -0.039869  0  -0.082478  -0.080898  0  3.965502  0
C  C126  1  0.24410318  0.02798137  0.41260086  1  -0.043822  0  -0.091235  -0.135206  0  3.975814  0
C  C127  1  0.96137946  0.85236101  0.47390671  1  1.500137  0  0.20203  0.579343  0  4.192185  0
C  C128  1  0.79018421  0.22505798  0.37582259  1  1.545707  0  0.211973  0.591764  0  4.167559  0
C  C129  1  0.53237033  0.32611736  0.52765799  1  1.503319  0  0.201572  0.576885  0  4.190928  0
C  C130  1  0.37429888  0.35197309  0.55807948  1  -0.003502  0  -0.026569  -0.050991  0  3.985243  0
C  C131  1  0.39928739  0.41436575  0.56325061  1  -0.124895  0  -0.080933  -0.080337  0  3.962691  0
C  C132  1  0.24775463  0.44036626  0.58807621  1  0.022227  0  -0.086839  -0.131993  0  3.957823  0
C  C133  1  0.06737765  0.40422730  0.60938327  1  -0.055829  0  0.001887  0.081506  0  3.973838  0
C  C134  1  0.04399225  0.34179442  0.60388652  1  -0.074873  0  -0.090419  -0.128533  0  3.964667  0
C  C135  1  0.19476769  0.31579124  0.57904052  1  -0.015635  0  -0.086519  -0.078009  0  3.974573  0
C  C136  1  0.90662780  0.42913877  0.63901752  1  0.010116  0  -0.002359  0.068395  0  3.992109  0
C  C137  1  0.88981904  0.50252124  0.61713637  1  -0.030177  0  -0.072365  -0.119054  0  3.884365  0
C  C138  1  0.73516904  0.52400961  0.64632635  1  -0.007892  0  -0.019597  -0.034948  0  4.00687  0
C  C139  1  0.59546693  0.47274091  0.69693905  1  -0.018814  0  -0.077965  -0.132932  0  3.921155  0
C  C140  1  0.60844353  0.39932072  0.71948539  1  -0.033687  0  -0.004093  0.070408  0  4.017789  0
C  C141  1  0.76543831  0.37864574  0.69044869  1  -0.035517  0  -0.072495  -0.151948  0  3.901119  0
C  C142  1  0.71147080  0.60166293  0.62207108  1  1.525965  0  0.214961  0.600924  0  4.144903  0
C  C143  1  0.45891830  0.34497592  0.77111317  1  -0.016114  0  0.001407  0.084018  0  3.976474  0
C  C144  1  0.50457475  0.27504372  0.82196344  1  -0.042421  0  -0.092995  -0.135031  0  3.955967  0
C  C145  1  0.26783089  0.36170377  0.76958663  1  -0.030544  0  -0.087639  -0.127474  0  3.963849  0
C  C146  1  0.12658757  0.30915593  0.81507252  1  -0.065308  0  -0.081209  -0.080026  0  3.966101  0
C  C147  1  0.17278276  0.23863988  0.86394511  1  -0.028922  0  -0.024683  -0.047624  0  4.002912  0
C  C148  1  0.36351588  0.22266601  0.86814092  1  -0.00781  0  -0.086747  -0.081412  0  3.969674  0
C  C149  1  0.01983371  0.18263757  0.90999603  1  1.488872  0  0.201379  0.563486  0  4.191317  0
O  O150  1  0.58141523  0.92167137  0.96079251  1  -1.176157  0  -0.334138  -0.585733  0  2.285248  0
O  O151  1  0.36669728  0.88025507  0.91913778  1  -1.134226  0  -0.310926  -0.526907  0  2.1842  0
O  O152  1  0.05801174  0.73446289  0.64792898  1  -1.18776  0  -0.317209  -0.575413  0  2.223019  0
O  O153  1  0.33376437  0.77107060  0.57861277  1  -1.174796  0  -0.32687  -0.592871  0  2.402507  0
O  O154  1  0.01041408  0.20913347  0.52142781  1  -1.185283  0  -0.339831  -0.601513  0  2.327085  0
O  O155  1  0.19947859  0.13480720  0.50378177  1  -1.141476  0  -0.322856  -0.55856  0  2.207562  0
O  O156  1  0.30701402  0.63829741  0.49463734  1  -1.138912  0  -0.317532  -0.541169  0  2.202479  0
O  O157  1  0.49367909  0.73121581  0.47665939  1  -1.183075  0  -0.343178  -0.607747  0  2.31475  0
O  O158  1  0.15795510  0.35002601  0.42039213  1  -1.178604  0  -0.33045  -0.592102  0  2.402164  0
O  O159  1  0.44250040  0.37853055  0.35915607  1  -1.176482  0  -0.314942  -0.562042  0  2.246224  0
O  O160  1  0.15134884  0.80078833  0.09214497  1  -1.137018  0  -0.315241  -0.533629  0  2.200486  0
O  O161  1  0.93929477  0.88376479  0.04736203  1  -1.173332  0  -0.33125  -0.584685  0  2.274704  0
O  O162  1  0.32307209  0.94500698  0.09337581  1  -1.238778  0  -0.562695  -0.766105  0  2.067495  0
O  O163  1  0.27304654  0.03855490  0.91571493  1  -1.28054  0  -0.594943  -0.768797  0  2.029496  0
O  O164  1  0.69445031  0.74969511  0.66384174  1  -1.227088  0  -0.582614  -0.743423  0  2.038512  0
O  O165  1  0.19256262  0.59312986  0.66630501  1  -1.234278  0  -0.578462  -0.749546  0  2.012254  0
O  O166  1  0.41857733  0.07833338  0.03920077  1  -1.17599  0  -0.334109  -0.585623  0  2.284933  0
O  O167  1  0.63332389  0.11974881  0.08086267  1  -1.134091  0  -0.310902  -0.52692  0  2.184075  0
O  O168  1  0.94198804  0.26554175  0.35206685  1  -1.187674  0  -0.317161  -0.575379  0  2.222972  0
O  O169  1  0.66622606  0.22893911  0.42137592  1  -1.174732  0  -0.326816  -0.592754  0  2.402523  0
O  O170  1  0.98956921  0.79086701  0.47856692  1  -1.185022  0  -0.339723  -0.60133  0  2.327165  0
O  O171  1  0.80050006  0.86520519  0.49619213  1  -1.141333  0  -0.322922  -0.558498  0  2.207939  0
O  O172  1  0.69294021  0.36169372  0.50535363  1  -1.139321  0  -0.317591  -0.541355  0  2.202778  0
O  O173  1  0.50626391  0.26876878  0.52335241  1  -1.182856  0  -0.343191  -0.607891  0  2.314133  0
O  O174  1  0.84203432  0.64997715  0.57960155  1  -1.178592  0  -0.330555  -0.592248  0  2.402156  0
O  O175  1  0.55749127  0.62146996  0.64083689  1  -1.176508  0  -0.314964  -0.562033  0  2.2462  0
O  O176  1  0.84866161  0.19921940  0.90785271  1  -1.137029  0  -0.315201  -0.533682  0  2.200564  0
O  O177  1  0.06071011  0.11624529  0.95263010  1  -1.173783  0  -0.331303  -0.584739  0  2.274881  0
O  O178  1  0.67693976  0.05499957  0.90662517  1  -1.238706  0  -0.562641  -0.765975  0  2.067676  0
O  O179  1  0.72696616  0.96144899  0.08428586  1  -1.280744  0  -0.595026  -0.768956  0  2.029354  0
O  O180  1  0.30556390  0.25031011  0.33613593  1  -1.226448  0  -0.582725  -0.743674  0  2.038596  0
O  O181  1  0.80743701  0.40687369  0.33369182  1  -1.234259  0  -0.578332  -0.749431  0  2.012209  0
