# generated using pymatgen
data_SnH16C11O2
_symmetry_space_group_name_H-M   'P 1'
_cell_length_a   10.09466637
_cell_length_b   10.33852582
_cell_length_c   12.83300000
_cell_angle_alpha   113.02955305
_cell_angle_beta   90.00000000
_cell_angle_gamma   90.00000000
_symmetry_Int_Tables_number   1
_chemical_formula_structural   SnH16C11O2
_chemical_formula_sum   'Sn4 H64 C44 O8'
_cell_volume   1232.56465544
_cell_formula_units_Z   4
loop_
 _symmetry_equiv_pos_site_id
 _symmetry_equiv_pos_as_xyz
  1  'x, y, z'
loop_
 _atom_site_type_symbol
 _atom_site_label
 _atom_site_symmetry_multiplicity
 _atom_site_fract_x
 _atom_site_fract_y
 _atom_site_fract_z
 _atom_site_occupancy
 _atom_site_hle17_bader_spin_density
 _atom_site_hle17_ddec_charge
 _atom_site_hle17_ddec_spin_density
 _atom_site_hle17_ddec_sum_bond_order
 _atom_site_hle17_magmom
 _atom_site_hse06_10hf_bader_spin_density
 _atom_site_hse06_10hf_ddec_charge
 _atom_site_hse06_10hf_ddec_spin_density
 _atom_site_hse06_10hf_ddec_sum_bond_order
 _atom_site_hse06_10hf_magmom
 _atom_site_hse06_bader_spin_density
 _atom_site_hse06_ddec_charge
 _atom_site_hse06_ddec_spin_density
 _atom_site_hse06_ddec_sum_bond_order
 _atom_site_hse06_magmom
 _atom_site_pbe_bader_charge
 _atom_site_pbe_bader_spin_density
 _atom_site_pbe_cm5_charge
 _atom_site_pbe_ddec_charge
 _atom_site_pbe_ddec_spin_density
 _atom_site_pbe_ddec_sum_bond_order
 _atom_site_pbe_magmom
Sn  Sn0  1  0.40646019  0.33083442  0.77211698  1  0  1.366195  0  2.885655  0  0  1.236817  0  3.369535  0  0  1.275477  0  3.354196  0  1.684862  0  0.519892  1.21027  0  3.379344  0
Sn  Sn1  1  0.90645888  0.16916567  0.72788586  1  0  1.366264  0  2.885719  0  0  1.236925  0  3.369567  0  0  1.275591  0  3.354217  0  1.68504  0  0.519969  1.210377  0  3.379378  0
Sn  Sn2  1  0.59354314  0.66916786  0.22788312  1  0  1.36623  0  2.885623  0  0  1.236847  0  3.369504  0  0  1.275506  0  3.354157  0  1.684773  0  0.519931  1.2103  0  3.379314  0
Sn  Sn3  1  0.09354445  0.83083451  0.27211436  1  0  1.366132  0  2.885676  0  0  1.236788  0  3.369529  0  0  1.275455  0  3.354184  0  1.684986  0  0.519916  1.210242  0  3.37934  0
H  H4  1  0.55487421  0.73435835  0.82376735  1  0  0.097617  0  0.962839  0  0  0.104347  0  1.028016  0  0  0.107904  0  1.025861  0  0.091695  0  0.099385  0.101851  0  1.029424  0
H  H5  1  0.05487056  0.76564192  0.67623569  1  0  0.097593  0  0.962932  0  0  0.104348  0  1.028072  0  0  0.107908  0  1.025914  0  0.090556  0  0.099373  0.101849  0  1.029491  0
H  H6  1  0.44511823  0.26563552  0.17623399  1  0  0.097602  0  0.962727  0  0  0.104332  0  1.027935  0  0  0.107893  0  1.025775  0  0.091052  0  0.099346  0.101837  0  1.029334  0
H  H7  1  0.94512881  0.23435405  0.32375774  1  0  0.09759  0  0.962897  0  0  0.104325  0  1.028075  0  0  0.107882  0  1.025917  0  0.090541  0  0.099351  0.101825  0  1.02949  0
H  H8  1  0.37469292  0.92125365  0.61207457  1  0  0.088831  0  0.960543  0  0  0.102079  0  1.019487  0  0  0.104654  0  1.018685  0  0.041138  0  0.100525  0.100132  0  1.020281  0
H  H9  1  0.87469756  0.57874241  0.88792325  1  0  0.08881  0  0.960572  0  0  0.102058  0  1.019517  0  0  0.104633  0  1.018713  0  0.041195  0  0.100532  0.100111  0  1.020311  0
H  H10  1  0.62530447  0.07874022  0.38792988  1  0  0.088792  0  0.960311  0  0  0.102019  0  1.019291  0  0  0.104598  0  1.018493  0  0.041612  0  0.100521  0.100072  0  1.020085  0
H  H11  1  0.12530578  0.42125777  0.11206917  1  0  0.088817  0  0.960443  0  0  0.102046  0  1.019409  0  0  0.104623  0  1.018609  0  0.041936  0  0.100555  0.100098  0  1.020206  0
H  H12  1  0.54630433  0.76596143  0.64132899  1  0  0.086406  0  0.955238  0  0  0.100286  0  1.011122  0  0  0.102427  0  1.011387  0  0.072868  0  0.100226  0.098729  0  1.011155  0
H  H13  1  0.04629871  0.73404094  0.85867160  1  0  0.086443  0  0.955275  0  0  0.100312  0  1.011168  0  0  0.102454  0  1.011426  0  0.072866  0  0.100251  0.098755  0  1.0112  0
H  H14  1  0.45369206  0.23403349  0.35867425  1  0  0.086424  0  0.955237  0  0  0.100304  0  1.011123  0  0  0.102445  0  1.011384  0  0.072832  0  0.100239  0.098745  0  1.011157  0
H  H15  1  0.95369967  0.26595819  0.14132126  1  0  0.086322  0  0.955369  0  0  0.100251  0  1.011186  0  0  0.102392  0  1.011449  0  0.064939  0  0.100223  0.098692  0  1.011218  0
H  H16  1  0.39474113  0.86064140  0.97659606  1  0  0.088236  0  0.970192  0  0  0.101401  0  1.028981  0  0  0.103837  0  1.02895  0  0.056041  0  0.097528  0.099537  0  1.0294  0
H  H17  1  0.89474676  0.63935466  0.52340332  1  0  0.08825  0  0.970157  0  0  0.10146  0  1.028903  0  0  0.103898  0  1.028872  0  0.056056  0  0.097535  0.099594  0  1.029327  0
H  H18  1  0.60526022  0.13935562  0.02340783  1  0  0.088251  0  0.970113  0  0  0.101421  0  1.028901  0  0  0.103858  0  1.02887  0  0.055871  0  0.09754  0.099555  0  1.029322  0
H  H19  1  0.10525558  0.36064131  0.47658933  1  0  0.088242  0  0.970179  0  0  0.101432  0  1.028928  0  0  0.103869  0  1.028897  0  0.055917  0  0.097538  0.099568  0  1.029347  0
H  H20  1  0.21024865  0.15256378  0.00620143  1  0  0.109395  0  0.950229  0  0  0.131117  0  1.012499  0  0  0.132126  0  1.013106  0  0.023004  0  0.091587  0.130319  0  1.012001  0
H  H21  1  0.71024735  0.34743631  0.49379828  1  0  0.109388  0  0.950239  0  0  0.13111  0  1.012503  0  0  0.13212  0  1.01311  0  0.023016  0  0.091582  0.130313  0  1.012006  0
H  H22  1  0.78975369  0.84744166  0.99380277  1  0  0.10941  0  0.950206  0  0  0.131124  0  1.012499  0  0  0.132133  0  1.013106  0  0.02308  0  0.091615  0.130326  0  1.012001  0
H  H23  1  0.28974905  0.65255966  0.50620138  1  0  0.109414  0  0.950234  0  0  0.131137  0  1.012501  0  0  0.132147  0  1.013106  0  0.023043  0  0.091594  0.13034  0  1.012004  0
H  H24  1  0.21215164  0.00934776  0.04892753  1  0  0.111933  0  0.943245  0  0  0.137601  0  0.997088  0  0  0.139276  0  0.99684  0  0.05264  0  0.094392  0.136315  0  0.997324  0
H  H25  1  0.71215132  0.49065338  0.45107252  1  0  0.111907  0  0.94328  0  0  0.137575  0  0.997125  0  0  0.13925  0  0.996877  0  0.052628  0  0.09438  0.136288  0  0.997361  0
H  H26  1  0.78784674  0.99065662  0.95107791  1  0  0.111921  0  0.943291  0  0  0.137595  0  0.997122  0  0  0.139269  0  0.996877  0  0.052673  0  0.094423  0.136305  0  0.997362  0
H  H27  1  0.28784012  0.50934259  0.54892403  1  0  0.11192  0  0.943238  0  0  0.137593  0  0.997084  0  0  0.139266  0  0.996839  0  0.052612  0  0.09438  0.136317  0  0.99731  0
H  H28  1  0.09357318  0.01530178  0.94784290  1  0  0.106573  0  0.95935  0  0  0.125676  0  1.026365  0  0  0.127235  0  1.025969  0  0.062785  0  0.091091  0.124344  0  1.026817  0
H  H29  1  0.59357583  0.48470251  0.55216126  1  0  0.106565  0  0.959362  0  0  0.125669  0  1.026376  0  0  0.127232  0  1.025979  0  0.062782  0  0.091088  0.124337  0  1.026828  0
H  H30  1  0.90643015  0.98470155  0.05215986  1  0  0.106534  0  0.959385  0  0  0.12565  0  1.026382  0  0  0.127212  0  1.025988  0  0.062681  0  0.091109  0.124319  0  1.026833  0
H  H31  1  0.40642354  0.51530082  0.44784306  1  0  0.106592  0  0.959336  0  0  0.125698  0  1.026354  0  0  0.127259  0  1.025956  0  0.062797  0  0.091093  0.124366  0  1.026808  0
H  H32  1  0.17741151  0.45334852  0.74949774  1  0  0.154268  0  0.995107  0  0  0.172683  0  1.052316  0  0  0.174893  0  1.053867  0  0.051216  0  0.0849  0.171125  0  1.051025  0
H  H33  1  0.67741318  0.04665472  0.75050453  1  0  0.154346  0  0.995231  0  0  0.172768  0  1.052407  0  0  0.174978  0  1.053956  0  0.051185  0  0.084937  0.171212  0  1.051113  0
H  H34  1  0.82258489  0.54665691  0.25050647  1  0  0.154268  0  0.995107  0  0  0.172677  0  1.052331  0  0  0.174885  0  1.053881  0  0.051209  0  0.084882  0.17112  0  1.051036  0
H  H35  1  0.32258817  0.95334546  0.24949178  1  0  0.154296  0  0.995381  0  0  0.172715  0  1.05256  0  0  0.174924  0  1.054111  0  0.051256  0  0.084921  0.171159  0  1.051265  0
H  H36  1  0.30827963  0.58109669  0.78365783  1  0  0.157692  0  1.003924  0  0  0.174526  0  1.062488  0  0  0.176771  0  1.064135  0  0.075301  0  0.084491  0.173067  0  1.061053  0
H  H37  1  0.80827931  0.91890357  0.71634444  1  0  0.157697  0  1.003898  0  0  0.174525  0  1.062478  0  0  0.176769  0  1.064123  0  0.075505  0  0.084492  0.173065  0  1.061043  0
H  H38  1  0.69171776  0.41890769  0.21634682  1  0  0.157713  0  1.003918  0  0  0.174532  0  1.062495  0  0  0.176777  0  1.064141  0  0.075495  0  0.084504  0.173071  0  1.061061  0
H  H39  1  0.19172699  0.08109661  0.28365266  1  0  0.15768  0  1.003901  0  0  0.17449  0  1.062497  0  0  0.176732  0  1.064146  0  0.0755  0  0.084438  0.17303  0  1.061061  0
H  H40  1  0.23384230  0.53710000  0.89156679  1  0  0.141706  0  1.011634  0  0  0.159887  0  1.070701  0  0  0.162063  0  1.071864  0  0.011004  0  0.079592  0.15807  0  1.070468  0
H  H41  1  0.73384099  0.96290027  0.60843391  1  0  0.141774  0  1.01158  0  0  0.159957  0  1.070644  0  0  0.16213  0  1.07181  0  0.011055  0  0.079618  0.158136  0  1.070415  0
H  H42  1  0.76615905  0.46289913  0.10843387  1  0  0.141763  0  1.011579  0  0  0.159942  0  1.070648  0  0  0.162114  0  1.071813  0  0.01105  0  0.079615  0.158122  0  1.070417  0
H  H43  1  0.26616729  0.03710201  0.39156384  1  0  0.141776  0  1.011598  0  0  0.159962  0  1.070648  0  0  0.162137  0  1.07181  0  0.011066  0  0.079621  0.158143  0  1.070417  0
H  H44  1  0.46681781  0.18190822  0.89790044  1  0  0.151858  0  1.014513  0  0  0.167417  0  1.075219  0  0  0.169241  0  1.077715  0  0.050085  0  0.084898  0.165837  0  1.074092  0
H  H45  1  0.96682244  0.31809397  0.60210461  1  0  0.151844  0  1.01452  0  0  0.167418  0  1.075218  0  0  0.169241  0  1.077716  0  0.050014  0  0.084935  0.165839  0  1.074089  0
H  H46  1  0.53317364  0.81809616  0.10210266  1  0  0.151839  0  1.014553  0  0  0.167421  0  1.075243  0  0  0.169246  0  1.077737  0  0.04996  0  0.084937  0.165844  0  1.074111  0
H  H47  1  0.03318089  0.68190621  0.39789326  1  0  0.151851  0  1.014524  0  0  0.16742  0  1.075229  0  0  0.169244  0  1.077725  0  0.050024  0  0.084921  0.165841  0  1.074099  0
H  H48  1  0.43978076  0.36086623  0.99150164  1  0  0.159046  0  0.983154  0  0  0.17725  0  1.038597  0  0  0.179945  0  1.039266  0  0.042483  0  0.086457  0.175338  0  1.038028  0
H  H49  1  0.93978539  0.13913281  0.50850242  1  0  0.159033  0  0.983102  0  0  0.177218  0  1.038573  0  0  0.179922  0  1.03923  0  0.04256  0  0.086448  0.175307  0  1.038005  0
H  H50  1  0.56021069  0.63913710  0.00850034  1  0  0.159024  0  0.98312  0  0  0.177222  0  1.038576  0  0  0.179923  0  1.039237  0  0.042558  0  0.086432  0.17531  0  1.03801  0
H  H51  1  0.06021695  0.86086316  0.49149647  1  0  0.159033  0  0.983151  0  0  0.177225  0  1.038615  0  0  0.179927  0  1.039276  0  0.042565  0  0.086432  0.175312  0  1.038049  0
H  H52  1  0.59348668  0.31039736  0.91619650  1  0  0.155013  0  0.998717  0  0  0.171872  0  1.056639  0  0  0.174937  0  1.056551  0  0.041282  0  0.08568  0.169511  0  1.056973  0
H  H53  1  0.09349096  0.18960273  0.58380945  1  0  0.155063  0  0.998633  0  0  0.17191  0  1.056567  0  0  0.174975  0  1.056478  0  0.041282  0  0.085698  0.169552  0  1.056899  0
H  H54  1  0.40650774  0.68960387  0.08381106  1  0  0.15504  0  0.998655  0  0  0.17189  0  1.056596  0  0  0.174955  0  1.056508  0  0.041394  0  0.085687  0.169539  0  1.056921  0
H  H55  1  0.90651139  0.81039640  0.41618887  1  0  0.155019  0  0.9987  0  0  0.171896  0  1.056599  0  0  0.174962  0  1.05651  0  0.041328  0  0.085706  0.169534  0  1.056935  0
H  H56  1  0.34595893  0.14146187  0.56170197  1  0  0.144316  0  1.01028  0  0  0.163362  0  1.067104  0  0  0.166076  0  1.067368  0  0.046374  0  0.081584  0.161227  0  1.067469  0
H  H57  1  0.84596258  0.35853822  0.93830398  1  0  0.144287  0  1.010287  0  0  0.163337  0  1.06711  0  0  0.166051  0  1.067375  0  0.046373  0  0.081572  0.161201  0  1.067477  0
H  H58  1  0.65404143  0.85853831  0.43829980  1  0  0.144294  0  1.01032  0  0  0.163341  0  1.067136  0  0  0.166054  0  1.067402  0  0.046342  0  0.08157  0.161204  0  1.067503  0
H  H59  1  0.15403877  0.64146511  0.06169411  1  0  0.144313  0  1.010232  0  0  0.163374  0  1.067037  0  0  0.166089  0  1.067302  0  0.046398  0  0.081586  0.161238  0  1.067404  0
H  H60  1  0.51585261  0.11798841  0.59185640  1  0  0.156635  0  0.997369  0  0  0.174404  0  1.056414  0  0  0.176887  0  1.057413  0  0.040502  0  0.086281  0.172532  0  1.055977  0
H  H61  1  0.01585788  0.38201167  0.90814721  1  0  0.156601  0  0.997348  0  0  0.17437  0  1.056406  0  0  0.176853  0  1.057405  0  0.04085  0  0.086273  0.172503  0  1.055961  0
H  H62  1  0.48414775  0.88201492  0.40814714  1  0  0.156621  0  0.997361  0  0  0.174374  0  1.056432  0  0  0.176857  0  1.057431  0  0.040488  0  0.086257  0.172503  0  1.055992  0
H  H63  1  0.98414347  0.61799481  0.09185343  1  0  0.156599  0  0.997391  0  0  0.17436  0  1.056446  0  0  0.176844  0  1.057445  0  0.040806  0  0.086257  0.172497  0  1.055997  0
H  H64  1  0.47051877  0.25948917  0.55197786  1  0  0.151026  0  0.997394  0  0  0.170005  0  1.055043  0  0  0.172323  0  1.056106  0  0.035227  0  0.085791  0.168408  0  1.054306  0
H  H65  1  0.97052341  0.24051092  0.94802497  1  0  0.150962  0  0.997428  0  0  0.16992  0  1.055116  0  0  0.172235  0  1.056182  0  0.035156  0  0.085765  0.168323  0  1.054379  0
H  H66  1  0.52948060  0.74051311  0.44802379  1  0  0.151012  0  0.997412  0  0  0.169982  0  1.055073  0  0  0.1723  0  1.056138  0  0.035238  0  0.085779  0.168384  0  1.054337  0
H  H67  1  0.02947893  0.75949661  0.05197756  1  0  0.15096  0  0.99741  0  0  0.169922  0  1.055097  0  0  0.172239  0  1.056161  0  0.035083  0  0.085758  0.168324  0  1.054361  0
C  C68  1  0.28810264  0.97724772  0.77779246  1  0  -0.133095  0  3.75633  0  0  -0.113469  0  3.988957  0  0  -0.120229  0  4.009951  0  -0.094842  0  -0.01972  -0.108762  0  3.974565  0
C  C69  1  0.78810430  0.52274939  0.72220414  1  0  -0.133101  0  3.756116  0  0  -0.113541  0  3.988809  0  0  -0.120279  0  4.009788  0  -0.094776  0  -0.019737  -0.108846  0  3.974411  0
C  C70  1  0.71189178  0.02275561  0.22221498  1  0  -0.133104  0  3.7562  0  0  -0.113488  0  3.988813  0  0  -0.120248  0  4.009824  0  -0.094353  0  -0.019774  -0.10879  0  3.974418  0
C  C71  1  0.21189804  0.47724553  0.27778818  1  0  -0.133064  0  3.75608  0  0  -0.113555  0  3.988826  0  0  -0.120291  0  4.009804  0  -0.094631  0  -0.019807  -0.108861  0  3.974428  0
C  C72  1  0.18628649  0.07161221  0.75894452  1  0  0.67874  0  3.853356  0  0  0.62274  0  4.151811  0  0  0.657842  0  4.141621  0  1.56185  0  0.237185  0.598961  0  4.157663  0
C  C73  1  0.68629113  0.42838157  0.74105633  1  0  0.678709  0  3.853151  0  0  0.62271  0  4.151623  0  0  0.657786  0  4.141469  0  1.561854  0  0.237246  0.598963  0  4.157436  0
C  C74  1  0.81371486  0.92837956  0.24105772  1  0  0.678714  0  3.853268  0  0  0.622729  0  4.151668  0  0  0.657803  0  4.141519  0  1.562128  0  0.237226  0.598978  0  4.157491  0
C  C75  1  0.31371220  0.57161650  0.25894011  1  0  0.678634  0  3.853249  0  0  0.622661  0  4.151712  0  0  0.657736  0  4.141558  0  1.561881  0  0.237193  0.598915  0  4.157525  0
C  C76  1  0.48135717  0.80393053  0.81111280  1  0  -0.059977  0  3.770431  0  0  -0.074389  0  4.023095  0  0  -0.074314  0  4.041815  0  -0.041146  0  -0.091425  -0.075442  0  4.010753  0
C  C77  1  0.98135982  0.69607078  0.68888824  1  0  -0.059937  0  3.770333  0  0  -0.074363  0  4.022996  0  0  -0.074291  0  4.041718  0  -0.039997  0  -0.091368  -0.075418  0  4.010652  0
C  C78  1  0.51863626  0.19605598  0.18889089  1  0  -0.059938  0  3.770645  0  0  -0.074344  0  4.023312  0  0  -0.074274  0  4.042038  0  -0.042031  0  -0.091379  -0.075396  0  4.010967  0
C  C79  1  0.01864153  0.30392939  0.31110418  1  0  -0.059949  0  3.77061  0  0  -0.074374  0  4.023318  0  0  -0.074299  0  4.042038  0  -0.040493  0  -0.091356  -0.075429  0  4.010972  0
C  C80  1  0.37919232  0.90732765  0.69198001  1  0  -0.100985  0  3.78891  0  0  -0.123753  0  4.039755  0  0  -0.124664  0  4.060672  0  -0.005156  0  -0.093142  -0.122352  0  4.025161  0
C  C81  1  0.87919300  0.59267156  0.80802193  1  0  -0.100986  0  3.788704  0  0  -0.123746  0  4.039567  0  0  -0.124661  0  4.06048  0  -0.005186  0  -0.093185  -0.122345  0  4.024976  0
C  C82  1  0.62080704  0.09267253  0.30801709  1  0  -0.100888  0  3.789212  0  0  -0.123653  0  4.040068  0  0  -0.12457  0  4.060998  0  -0.006289  0  -0.093127  -0.122249  0  4.025472  0
C  C83  1  0.12080736  0.40732651  0.19197450  1  0  -0.101045  0  3.78884  0  0  -0.123779  0  4.039743  0  0  -0.124697  0  4.06066  0  -0.006423  0  -0.093219  -0.122377  0  4.025151  0
C  C84  1  0.47555311  0.82026441  0.70839810  1  0  -0.070273  0  3.787387  0  0  -0.085016  0  4.04153  0  0  -0.087379  0  4.062991  0  -0.019385  0  -0.092901  -0.083074  0  4.026552  0
C  C85  1  0.97555379  0.67974006  0.79160393  1  0  -0.070297  0  3.787337  0  0  -0.085029  0  4.041468  0  0  -0.087394  0  4.062934  0  -0.019499  0  -0.092903  -0.083087  0  4.026491  0
C  C86  1  0.52444626  0.17972841  0.29160369  1  0  -0.070319  0  3.787865  0  0  -0.085066  0  4.042011  0  0  -0.087427  0  4.063476  0  -0.017953  0  -0.092916  -0.083126  0  4.027033  0
C  C87  1  0.02444955  0.32026432  0.20838982  1  0  -0.070162  0  3.787616  0  0  -0.084926  0  4.041725  0  0  -0.087291  0  4.063189  0  -0.01075  0  -0.092898  -0.082983  0  4.026744  0
C  C88  1  0.29215329  0.96113350  0.88193928  1  0  0.123174  0  3.744512  0  0  0.142819  0  3.979127  0  0  0.144123  0  4.00356  0  -0.028266  0  -0.00786  0.140956  0  3.963563  0
C  C89  1  0.79215892  0.53886466  0.61805843  1  0  0.123156  0  3.744452  0  0  0.142865  0  3.979027  0  0  0.144163  0  4.003458  0  -0.027749  0  -0.007864  0.141006  0  3.963457  0
C  C90  1  0.70784905  0.03885932  0.11806017  1  0  0.123112  0  3.744209  0  0  0.142762  0  3.978853  0  0  0.144074  0  4.003276  0  -0.027692  0  -0.007835  0.140891  0  3.963303  0
C  C91  1  0.20784540  0.46112921  0.38193278  1  0  0.123219  0  3.744471  0  0  0.142934  0  3.979062  0  0  0.144233  0  4.003492  0  -0.027722  0  -0.007778  0.141076  0  3.963493  0
C  C92  1  0.39021399  0.87394099  0.89644801  1  0  -0.130683  0  3.749743  0  0  -0.147809  0  3.992043  0  0  -0.151669  0  4.014005  0  -0.076268  0  -0.09245  -0.145029  0  3.978302  0
C  C93  1  0.89021862  0.62605297  0.60354993  1  0  -0.130694  0  3.749555  0  0  -0.147877  0  3.991857  0  0  -0.151737  0  4.01382  0  -0.076766  0  -0.092498  -0.145095  0  3.978114  0
C  C94  1  0.60977052  0.12605183  0.10355456  1  0  -0.13073  0  3.749424  0  0  -0.147871  0  3.991749  0  0  -0.151733  0  4.01371  0  -0.076338  0  -0.092517  -0.145088  0  3.978013  0
C  C95  1  0.10978273  0.37393985  0.39644173  1  0  -0.130683  0  3.749745  0  0  -0.147827  0  3.992022  0  0  -0.151686  0  4.013984  0  -0.076667  0  -0.092459  -0.145048  0  3.978281  0
C  C96  1  0.19700602  0.03803847  0.97604195  1  0  -0.339758  0  3.736761  0  0  -0.422929  0  3.975656  0  0  -0.425329  0  3.984799  0  -0.065232  0  -0.240175  -0.420808  0  3.969635  0
C  C97  1  0.69700570  0.46196162  0.52395777  1  0  -0.339714  0  3.736737  0  0  -0.422899  0  3.975597  0  0  -0.425303  0  3.984741  0  -0.065218  0  -0.240154  -0.420776  0  3.969575  0
C  C98  1  0.80299632  0.96196591  0.02396349  1  0  -0.33969  0  3.737082  0  0  -0.42286  0  3.975926  0  0  -0.425265  0  3.985072  0  -0.065249  0  -0.240254  -0.420733  0  3.969909  0
C  C99  1  0.30299169  0.53803646  0.47604022  1  0  -0.339814  0  3.736759  0  0  -0.423006  0  3.975649  0  0  -0.425406  0  3.984791  0  -0.065181  0  -0.240205  -0.420895  0  3.969623  0
C  C100  1  0.26468136  0.49581073  0.80259741  1  0  -0.71399  0  3.525214  0  0  -0.7521  0  3.752492  0  0  -0.765845  0  3.759681  0  -0.452222  0  -0.339232  -0.741832  0  3.746761  0
C  C101  1  0.76468104  0.00419356  0.69740597  1  0  -0.714181  0  3.525354  0  0  -0.752284  0  3.7526  0  0  -0.766033  0  3.759808  0  -0.45242  0  -0.339307  -0.742018  0  3.746869  0
C  C102  1  0.73531603  0.50419155  0.19740503  1  0  -0.714087  0  3.525206  0  0  -0.752165  0  3.75248  0  0  -0.765911  0  3.759687  0  -0.452425  0  -0.339252  -0.7419  0  3.746747  0
C  C103  1  0.23532427  0.99581082  0.30259401  1  0  -0.714084  0  3.525432  0  0  -0.752158  0  3.752667  0  0  -0.765909  0  3.759878  0  -0.452577  0  -0.33923  -0.741895  0  3.746933  0
C  C104  1  0.48649949  0.29174073  0.91206990  1  0  -0.715286  0  3.513195  0  0  -0.752762  0  3.743213  0  0  -0.765904  0  3.748642  0  -0.436306  0  -0.333452  -0.743243  0  3.739576  0
C  C105  1  0.98650313  0.20825831  0.58793572  1  0  -0.715337  0  3.513173  0  0  -0.752815  0  3.743258  0  0  -0.765964  0  3.74867  0  -0.436447  0  -0.333515  -0.743303  0  3.739609  0
C  C106  1  0.51349394  0.70825945  0.08793187  1  0  -0.715279  0  3.513145  0  0  -0.752758  0  3.743174  0  0  -0.765901  0  3.748591  0  -0.436382  0  -0.333475  -0.743256  0  3.739515  0
C  C107  1  0.01350218  0.79173976  0.41206461  1  0  -0.715259  0  3.513226  0  0  -0.752766  0  3.743262  0  0  -0.765914  0  3.748681  0  -0.436515  0  -0.333468  -0.743248  0  3.73962  0
C  C108  1  0.43879806  0.19506382  0.59792520  1  0  -0.717296  0  3.527541  0  0  -0.759673  0  3.758741  0  0  -0.773251  0  3.765217  0  -0.442886  0  -0.337572  -0.750405  0  3.754793  0
C  C109  1  0.93880071  0.30493311  0.90207742  1  0  -0.717172  0  3.527502  0  0  -0.759532  0  3.758732  0  0  -0.773107  0  3.765214  0  -0.443184  0  -0.33753  -0.750268  0  3.754776  0
C  C110  1  0.56120230  0.80493846  0.40207646  1  0  -0.717237  0  3.527533  0  0  -0.759589  0  3.758744  0  0  -0.773166  0  3.765218  0  -0.442875  0  -0.337533  -0.750322  0  3.754794  0
C  C111  1  0.06119865  0.69507232  0.09792289  1  0  -0.71715  0  3.527473  0  0  -0.759516  0  3.758688  0  0  -0.773095  0  3.765169  0  -0.443069  0  -0.337503  -0.750256  0  3.754729  0
O  O112  1  0.21635782  0.19467179  0.76837984  1  0  -0.634826  0  2.043546  0  0  -0.561242  0  2.279528  0  0  -0.589014  0  2.273972  0  -1.202014  0  -0.271833  -0.541753  0  2.282395  0
O  O113  1  0.71636048  0.30533145  0.73162866  1  0  -0.634684  0  2.043659  0  0  -0.561125  0  2.279659  0  0  -0.588889  0  2.274116  0  -1.202022  0  -0.271786  -0.541651  0  2.282514  0
O  O114  1  0.78364551  0.80533574  0.23162814  1  0  -0.634759  0  2.043879  0  0  -0.561133  0  2.279802  0  0  -0.588899  0  2.274271  0  -1.202201  0  -0.271761  -0.541658  0  2.28266  0
O  O115  1  0.28364484  0.69466662  0.26836933  1  0  -0.634639  0  2.043684  0  0  -0.561095  0  2.279685  0  0  -0.588858  0  2.274146  0  -1.201962  0  -0.271745  -0.54162  0  2.282539  0
O  O116  1  0.06886112  0.02161630  0.73430039  1  0  -0.612492  0  2.017528  0  0  -0.543189  0  2.253825  0  0  -0.570481  0  2.247255  0  -1.176672  0  -0.27176  -0.523861  0  2.257102  0
O  O117  1  0.56885486  0.47838694  0.76570032  1  0  -0.612594  0  2.017187  0  0  -0.543227  0  2.253421  0  0  -0.570508  0  2.246866  0  -1.176624  0  -0.271811  -0.523906  0  2.256683  0
O  O118  1  0.93114320  0.97838598  0.26570048  1  0  -0.612514  0  2.01737  0  0  -0.543211  0  2.253643  0  0  -0.570491  0  2.247088  0  -1.176701  0  -0.271803  -0.523894  0  2.256913  0
O  O119  1  0.43114748  0.52161534  0.23429822  1  0  -0.612571  0  2.017318  0  0  -0.543224  0  2.25356  0  0  -0.570506  0  2.247008  0  -1.176689  0  -0.271802  -0.523905  0  2.256823  0
