# generated using pymatgen
data_ZnH12C14(NO)4
_symmetry_space_group_name_H-M   'P 1'
_cell_length_a   7.75119612
_cell_length_b   12.23470222
_cell_length_c   16.64170000
_cell_angle_alpha   90.00000000
_cell_angle_beta   90.00000000
_cell_angle_gamma   99.56818446
_symmetry_Int_Tables_number   1
_chemical_formula_structural   ZnH12C14(NO)4
_chemical_formula_sum   'Zn4 H48 C56 N16 O16'
_cell_volume   1556.23689328
_cell_formula_units_Z   4
loop_
 _symmetry_equiv_pos_site_id
 _symmetry_equiv_pos_as_xyz
  1  'x, y, z'
loop_
 _atom_site_type_symbol
 _atom_site_label
 _atom_site_symmetry_multiplicity
 _atom_site_fract_x
 _atom_site_fract_y
 _atom_site_fract_z
 _atom_site_occupancy
 _atom_site_hle17_bader_spin_density
 _atom_site_hle17_ddec_charge
 _atom_site_hle17_ddec_spin_density
 _atom_site_hle17_ddec_sum_bond_order
 _atom_site_hle17_magmom
 _atom_site_hse06_10hf_bader_spin_density
 _atom_site_hse06_10hf_ddec_charge
 _atom_site_hse06_10hf_ddec_spin_density
 _atom_site_hse06_10hf_ddec_sum_bond_order
 _atom_site_hse06_10hf_magmom
 _atom_site_hse06_bader_spin_density
 _atom_site_hse06_ddec_charge
 _atom_site_hse06_ddec_spin_density
 _atom_site_hse06_ddec_sum_bond_order
 _atom_site_hse06_magmom
 _atom_site_pbe_bader_charge
 _atom_site_pbe_bader_spin_density
 _atom_site_pbe_cm5_charge
 _atom_site_pbe_ddec_charge
 _atom_site_pbe_ddec_spin_density
 _atom_site_pbe_ddec_sum_bond_order
 _atom_site_pbe_magmom
Zn  Zn0  1  0.84331796  0.92068804  0.68622436  1  0  0.965858  0  1.889311  0  0  0.769999  0  2.370576  0  0  0.818812  0  2.316216  0  1.261226  0  0.697086  0.736005  0  2.407801  0
Zn  Zn1  1  0.15668222  0.57931539  0.18622496  1  0  0.965849  0  1.889255  0  0  0.769963  0  2.370493  0  0  0.818773  0  2.316124  0  1.261058  0  0.697044  0.735962  0  2.407717  0
Zn  Zn2  1  0.15667874  0.07931370  0.31377624  1  0  0.966007  0  1.889272  0  0  0.770136  0  2.370523  0  0  0.818925  0  2.316154  0  1.261159  0  0.69714  0.736142  0  2.407752  0
Zn  Zn3  1  0.84334221  0.42068386  0.81378044  1  0  0.965876  0  1.889158  0  0  0.769955  0  2.370421  0  0  0.818797  0  2.316003  0  1.260755  0  0.697017  0.735949  0  2.407652  0
H  H4  1  0.14662146  0.88579973  0.78462477  1  0  0.304784  0  0.902567  0  0  0.289457  0  0.957302  0  0  0.297284  0  0.950968  0  0.53016  0  0.332399  0.283891  0  0.961916  0
H  H5  1  0.85338926  0.61420453  0.28461455  1  0  0.304948  0  0.902245  0  0  0.28949  0  0.957159  0  0  0.297329  0  0.950819  0  0.530246  0  0.332443  0.283922  0  0.961776  0
H  H6  1  0.85337460  0.11420449  0.21536802  1  0  0.304851  0  0.902478  0  0  0.289465  0  0.957278  0  0  0.297293  0  0.950948  0  0.530107  0  0.33241  0.283899  0  0.961892  0
H  H7  1  0.14663133  0.38580466  0.71537643  1  0  0.304684  0  0.902647  0  0  0.289354  0  0.957379  0  0  0.297187  0  0.951043  0  0.530251  0  0.332416  0.283789  0  0.96199  0
H  H8  1  0.84324586  0.66372420  0.72169250  1  0  0.30943  0  0.927136  0  0  0.284799  0  0.998319  0  0  0.292863  0  0.991939  0  0.568937  0  0.323107  0.27909  0  1.002894  0
H  H9  1  0.15673862  0.83627840  0.22170091  1  0  0.309415  0  0.927452  0  0  0.284777  0  0.998607  0  0  0.292838  0  0.992233  0  0.568845  0  0.323149  0.27907  0  1.003169  0
H  H10  1  0.15674051  0.33627256  0.27831051  1  0  0.309406  0  0.927249  0  0  0.284828  0  0.998361  0  0  0.292888  0  0.991986  0  0.569028  0  0.323155  0.279118  0  1.002936  0
H  H11  1  0.84326928  0.16373162  0.77830750  1  0  0.309513  0  0.927178  0  0  0.284834  0  0.998421  0  0  0.292895  0  0.992044  0  0.569359  0  0.323162  0.279126  0  1.002986  0
H  H12  1  0.61356523  0.44156413  0.55955882  1  0  0.086421  0  0.966735  0  0  0.096448  0  1.03108  0  0  0.099288  0  1.030146  0  0.08106  0  0.096972  0.094417  0  1.031808  0
H  H13  1  0.38640345  0.05842597  0.05955101  1  0  0.086492  0  0.966583  0  0  0.096367  0  1.031096  0  0  0.0992  0  1.030172  0  0.080975  0  0.096938  0.094338  0  1.031818  0
H  H14  1  0.38644759  0.55843512  0.44044058  1  0  0.086406  0  0.966789  0  0  0.09649  0  1.031078  0  0  0.099326  0  1.030143  0  0.081012  0  0.096993  0.094459  0  1.031805  0
H  H15  1  0.61354718  0.94155754  0.94043998  1  0  0.08641  0  0.966835  0  0  0.096459  0  1.031151  0  0  0.099294  0  1.030218  0  0.081136  0  0.09699  0.09443  0  1.031873  0
H  H16  1  0.49821674  0.38343822  0.42379444  1  0  0.081562  0  0.957215  0  0  0.092395  0  1.018905  0  0  0.094996  0  1.017676  0  0.057652  0  0.097528  0.09053  0  1.01979  0
H  H17  1  0.50177993  0.11656514  0.92379204  1  0  0.081596  0  0.957227  0  0  0.092405  0  1.018948  0  0  0.095001  0  1.017724  0  0.057609  0  0.097539  0.090541  0  1.019833  0
H  H18  1  0.50180146  0.61656186  0.57620556  1  0  0.081528  0  0.95724  0  0  0.092367  0  1.018933  0  0  0.094969  0  1.017707  0  0.057532  0  0.097497  0.090504  0  1.019817  0
H  H19  1  0.49822020  0.88343494  0.07620856  1  0  0.081552  0  0.957235  0  0  0.092382  0  1.018931  0  0  0.094978  0  1.01771  0  0.05765  0  0.097539  0.090518  0  1.019816  0
H  H20  1  0.51336392  0.19379006  0.37371903  1  0  0.091471  0  0.948105  0  0  0.101799  0  1.009852  0  0  0.105271  0  1.007556  0  0.074664  0  0.100246  0.099282  0  1.011648  0
H  H21  1  0.48665168  0.30621661  0.87371783  1  0  0.091451  0  0.948053  0  0  0.101738  0  1.009865  0  0  0.105211  0  1.007569  0  0.074739  0  0.100237  0.099223  0  1.011657  0
H  H22  1  0.48664717  0.80620753  0.62628578  1  0  0.091393  0  0.948218  0  0  0.101767  0  1.009925  0  0  0.105238  0  1.007628  0  0.074572  0  0.100217  0.099249  0  1.011724  0
H  H23  1  0.51336223  0.69378679  0.12628578  1  0  0.091407  0  0.948121  0  0  0.101744  0  1.009875  0  0  0.105216  0  1.007579  0  0.074803  0  0.100212  0.099228  0  1.011671  0
H  H24  1  0.62471021  0.05795019  0.46407398  1  0  0.103559  0  0.944503  0  0  0.112592  0  1.00624  0  0  0.115705  0  1.004672  0  0.112344  0  0.105863  0.110332  0  1.007457  0
H  H25  1  0.37530645  0.44205068  0.96407999  1  0  0.103494  0  0.944618  0  0  0.112505  0  1.006379  0  0  0.115617  0  1.004814  0  0.112417  0  0.105834  0.110246  0  1.007597  0
H  H26  1  0.37529120  0.94204492  0.53593263  1  0  0.103609  0  0.944537  0  0  0.112656  0  1.006268  0  0  0.11577  0  1.0047  0  0.112341  0  0.105869  0.110396  0  1.007487  0
H  H27  1  0.62472596  0.55795437  0.03592902  1  0  0.103549  0  0.944537  0  0  0.112611  0  1.006245  0  0  0.115725  0  1.004676  0  0.112359  0  0.105875  0.110351  0  1.007465  0
H  H28  1  0.46967895  0.99053761  0.78399322  1  0  0.116376  0  0.950392  0  0  0.125308  0  1.01376  0  0  0.128539  0  1.010079  0  0.182642  0  0.124972  0.122865  0  1.016467  0
H  H29  1  0.53032127  0.50948075  0.28397399  1  0  0.11623  0  0.950515  0  0  0.125184  0  1.013852  0  0  0.128429  0  1.010157  0  0.184037  0  0.125008  0.122722  0  1.01658  0
H  H30  1  0.53031730  0.00945750  0.21599176  1  0  0.116355  0  0.950434  0  0  0.125273  0  1.013814  0  0  0.1285  0  1.010142  0  0.183  0  0.124966  0.122862  0  1.016485  0
H  H31  1  0.46969097  0.49054088  0.71600017  1  0  0.116312  0  0.950352  0  0  0.12521  0  1.013769  0  0  0.128442  0  1.010087  0  0.182875  0  0.124926  0.122784  0  1.016458  0
H  H32  1  0.45099481  0.18570850  0.70330735  1  0  0.133153  0  0.981698  0  0  0.137873  0  1.045509  0  0  0.141136  0  1.045126  0  0.110727  0  0.105367  0.135535  0  1.045914  0
H  H33  1  0.54899025  0.31429486  0.20329954  1  0  0.133244  0  0.98157  0  0  0.13803  0  1.045296  0  0  0.141292  0  1.044916  0  0.110979  0  0.105458  0.13569  0  1.045706  0
H  H34  1  0.54901114  0.81429407  0.29668904  1  0  0.133166  0  0.981711  0  0  0.137899  0  1.0455  0  0  0.141161  0  1.045117  0  0.110793  0  0.105398  0.13556  0  1.045906  0
H  H35  1  0.45102025  0.68572014  0.79668123  1  0  0.13325  0  0.981628  0  0  0.138055  0  1.045333  0  0  0.141319  0  1.044947  0  0.11082  0  0.105469  0.135713  0  1.045744  0
H  H36  1  0.10555249  0.16056614  0.65410685  1  0  0.110285  0  0.94618  0  0  0.12193  0  1.003864  0  0  0.124424  0  1.001203  0  0.14992  0  0.122222  0.120039  0  1.005818  0
H  H37  1  0.89444091  0.33941981  0.15411286  1  0  0.110198  0  0.946178  0  0  0.121935  0  1.003782  0  0  0.12443  0  1.001116  0  0.153868  0  0.122202  0.12002  0  1.005766  0
H  H38  1  0.89445091  0.83944638  0.34589796  1  0  0.110199  0  0.946239  0  0  0.121907  0  1.003868  0  0  0.124404  0  1.001212  0  0.149545  0  0.12222  0.12001  0  1.005814  0
H  H39  1  0.10558374  0.66058027  0.84588834  1  0  0.110291  0  0.946205  0  0  0.122033  0  1.00378  0  0  0.12453  0  1.001113  0  0.149909  0  0.122257  0.12014  0  1.005738  0
H  H40  1  0.93348965  0.52222972  0.62540426  1  0  0.102819  0  0.972086  0  0  0.111924  0  1.036616  0  0  0.114086  0  1.034806  0  0.146453  0  0.12159  0.110305  0  1.037936  0
H  H41  1  0.06649289  0.97777040  0.12541567  1  0  0.102856  0  0.972216  0  0  0.111991  0  1.036702  0  0  0.114146  0  1.034896  0  0.146682  0  0.121612  0.110371  0  1.038021  0
H  H42  1  0.06648616  0.47776124  0.37459935  1  0  0.102845  0  0.972207  0  0  0.11195  0  1.036729  0  0  0.114112  0  1.034916  0  0.146149  0  0.121577  0.110331  0  1.038051  0
H  H43  1  0.93349262  0.02222803  0.87458853  1  0  0.102851  0  0.972231  0  0  0.111975  0  1.036715  0  0  0.114135  0  1.034907  0  0.146332  0  0.121617  0.110358  0  1.038029  0
H  H44  1  0.98360360  0.62934316  0.47749028  1  0  0.129097  0  0.980136  0  0  0.136797  0  1.039213  0  0  0.140017  0  1.038918  0  0.11532  0  0.104382  0.1345  0  1.039549  0
H  H45  1  0.01640242  0.87067270  0.97749809  1  0  0.129315  0  0.980134  0  0  0.136923  0  1.039286  0  0  0.140142  0  1.03899  0  0.11495  0  0.104463  0.134625  0  1.039625  0
H  H46  1  0.01638555  0.37064946  0.52251393  1  0  0.129187  0  0.980256  0  0  0.13686  0  1.039333  0  0  0.140082  0  1.039036  0  0.114995  0  0.104382  0.134563  0  1.03967  0
H  H47  1  0.98357467  0.12931328  0.02251272  1  0  0.129304  0  0.980156  0  0  0.136991  0  1.039218  0  0  0.140209  0  1.038924  0  0.115046  0  0.104456  0.134691  0  1.039559  0
H  H48  1  0.92666969  0.84071705  0.51133959  1  0  0.11057  0  0.928623  0  0  0.122874  0  0.984595  0  0  0.125344  0  0.982068  0  0.122864  0  0.126945  0.121027  0  0.986466  0
H  H49  1  0.07335054  0.65930380  0.01134199  1  0  0.110614  0  0.92861  0  0  0.12293  0  0.984567  0  0  0.125404  0  0.982034  0  0.123132  0  0.126914  0.12108  0  0.98644  0
H  H50  1  0.07333172  0.15927806  0.48866101  1  0  0.110554  0  0.928674  0  0  0.122857  0  0.984665  0  0  0.125321  0  0.982141  0  0.122733  0  0.126952  0.121012  0  0.986531  0
H  H51  1  0.92665862  0.34069131  0.98867483  1  0  0.110613  0  0.928733  0  0  0.12291  0  0.984691  0  0  0.125382  0  0.982166  0  0.1227  0  0.126872  0.121063  0  0.986561  0
C  C52  1  0.73515658  0.08899333  0.61713347  1  0  0.638052  0  3.904641  0  0  0.587627  0  4.193451  0  0  0.621757  0  4.187295  0  1.508938  0  0.203688  0.564498  0  4.196847  0
C  C53  1  0.26483556  0.41100256  0.11713046  1  0  0.637961  0  3.904611  0  0  0.587549  0  4.193398  0  0  0.621676  0  4.18725  0  1.508375  0  0.20366  0.56442  0  4.196802  0
C  C54  1  0.26484894  0.91100757  0.38287134  1  0  0.63783  0  3.904845  0  0  0.587397  0  4.193664  0  0  0.621526  0  4.18751  0  1.50856  0  0.203588  0.564254  0  4.197056  0
C  C55  1  0.73516543  0.58899586  0.88286834  1  0  0.638092  0  3.904686  0  0  0.58768  0  4.193464  0  0  0.621811  0  4.18731  0  1.509066  0  0.203673  0.564544  0  4.19687  0
C  C56  1  0.68189966  0.17314436  0.56159827  1  0  -0.088346  0  3.746543  0  0  -0.071891  0  3.977007  0  0  -0.080132  0  4.000403  0  0.041156  0  -0.015368  -0.066625  0  3.961437  0
C  C57  1  0.31808278  0.32684407  0.06159106  1  0  -0.088155  0  3.746937  0  0  -0.071657  0  3.977258  0  0  -0.079898  0  4.000662  0  0.041961  0  -0.015311  -0.06639  0  3.961684  0
C  C58  1  0.31810779  0.82685406  0.43840773  1  0  -0.088236  0  3.746733  0  0  -0.071748  0  3.977199  0  0  -0.079984  0  4.000602  0  0.042057  0  -0.015332  -0.066436  0  3.961569  0
C  C59  1  0.68189969  0.67314275  0.93840473  1  0  -0.088346  0  3.746764  0  0  -0.071876  0  3.977243  0  0  -0.080116  0  4.000646  0  0.041456  0  -0.015392  -0.066571  0  3.961621  0
C  C60  1  0.68286082  0.28267564  0.58827403  1  0  -0.055318  0  3.728708  0  0  -0.039188  0  3.957475  0  0  -0.04292  0  3.978491  0  -0.07326  0  -0.008965  -0.03671  0  3.943459  0
C  C61  1  0.31711153  0.21731860  0.08826502  1  0  -0.055422  0  3.728897  0  0  -0.039267  0  3.957583  0  0  -0.042996  0  3.978585  0  -0.073032  0  -0.009058  -0.036796  0  3.943573  0
C  C62  1  0.31714662  0.71732278  0.41172777  1  0  -0.055069  0  3.72836  0  0  -0.039034  0  3.957229  0  0  -0.042783  0  3.978279  0  -0.072607  0  -0.008913  -0.036572  0  3.943206  0
C  C63  1  0.68285160  0.78267319  0.91172657  1  0  -0.055115  0  3.728506  0  0  -0.039046  0  3.95732  0  0  -0.042792  0  3.978363  0  -0.072869  0  -0.00889  -0.036589  0  3.943304  0
C  C64  1  0.61351060  0.35698125  0.53879532  1  0  -0.101894  0  3.756787  0  0  -0.121446  0  3.99969  0  0  -0.124599  0  4.021386  0  -0.009583  0  -0.092762  -0.119345  0  3.985018  0
C  C65  1  0.38648024  0.14301464  0.03878390  1  0  -0.101855  0  3.756519  0  0  -0.121282  0  3.99941  0  0  -0.124431  0  4.021101  0  -0.00928  0  -0.092682  -0.119186  0  3.984751  0
C  C66  1  0.38650264  0.64301468  0.46120889  1  0  -0.101995  0  3.756655  0  0  -0.121592  0  3.999633  0  0  -0.124731  0  4.021323  0  -0.009937  0  -0.092815  -0.119494  0  3.984971  0
C  C67  1  0.61349343  0.85697798  0.96120649  1  0  -0.101949  0  3.75687  0  0  -0.121506  0  3.999814  0  0  -0.124647  0  4.021507  0  -0.009929  0  -0.092785  -0.119405  0  3.985151  0
C  C68  1  0.55133394  0.32475696  0.46208320  1  0  -0.050147  0  3.768581  0  0  -0.065601  0  4.020361  0  0  -0.065822  0  4.041479  0  -0.102552  0  -0.08625  -0.065233  0  4.005882  0
C  C69  1  0.44865390  0.17524225  0.96207960  1  0  -0.05029  0  3.768895  0  0  -0.065715  0  4.020614  0  0  -0.065932  0  4.041727  0  -0.102745  0  -0.086301  -0.065345  0  4.006135  0
C  C70  1  0.44867265  0.67524312  0.53791860  1  0  -0.050107  0  3.768761  0  0  -0.065562  0  4.02055  0  0  -0.065786  0  4.04167  0  -0.102696  0  -0.086241  -0.065193  0  4.006068  0
C  C71  1  0.55132514  0.82475120  0.03791740  1  0  -0.050107  0  3.768906  0  0  -0.065553  0  4.020684  0  0  -0.065772  0  4.041797  0  -0.102687  0  -0.086261  -0.065185  0  4.006205  0
C  C72  1  0.55874643  0.21816903  0.43408967  1  0  -0.059477  0  3.750644  0  0  -0.076853  0  4.007074  0  0  -0.079114  0  4.026967  0  0.026687  0  -0.087456  -0.075423  0  3.993606  0
C  C73  1  0.44125777  0.28183350  0.93409027  1  0  -0.059474  0  3.750425  0  0  -0.076819  0  4.006855  0  0  -0.079079  0  4.026745  0  0.026641  0  -0.087438  -0.075391  0  3.993392  0
C  C74  1  0.44126423  0.78182691  0.56591574  1  0  -0.059347  0  3.750457  0  0  -0.076741  0  4.006841  0  0  -0.079001  0  4.026748  0  0.027287  0  -0.087387  -0.075311  0  3.993371  0
C  C75  1  0.55874840  0.71816989  0.06591274  1  0  -0.059424  0  3.750689  0  0  -0.076807  0  4.007108  0  0  -0.079068  0  4.027003  0  0.026965  0  -0.087457  -0.075375  0  3.993637  0
C  C76  1  0.62194939  0.14239878  0.48414946  1  0  -0.049331  0  3.710694  0  0  -0.074428  0  3.961157  0  0  -0.073045  0  3.979744  0  -0.087254  0  -0.075981  -0.075164  0  3.948558  0
C  C77  1  0.37805266  0.35760540  0.98415066  1  0  -0.049235  0  3.710656  0  0  -0.074334  0  3.961107  0  0  -0.072955  0  3.979698  0  -0.087498  0  -0.075946  -0.075074  0  3.94851  0
C  C78  1  0.37805505  0.85760295  0.51585535  1  0  -0.049579  0  3.71068  0  0  -0.074706  0  3.961184  0  0  -0.073325  0  3.979768  0  -0.08784  0  -0.076068  -0.075455  0  3.948574  0
C  C79  1  0.62196147  0.64239882  0.01585535  1  0  -0.049452  0  3.710778  0  0  -0.074578  0  3.961265  0  0  -0.073194  0  3.97985  0  -0.087739  0  -0.076011  -0.075328  0  3.948659  0
C  C80  1  0.35956233  0.01955489  0.75561571  1  0  0.072903  0  3.651921  0  0  0.027497  0  3.911463  0  0  0.036701  0  3.925258  0  0.296348  0  0.029198  0.021812  0  3.901925  0
C  C81  1  0.64043779  0.48045178  0.25560009  1  0  0.07316  0  3.65239  0  0  0.027725  0  3.911921  0  0  0.036928  0  3.92572  0  0.295072  0  0.029153  0.022053  0  3.902394  0
C  C82  1  0.64043930  0.98044104  0.24437588  1  0  0.072789  0  3.652113  0  0  0.027378  0  3.911663  0  0  0.036583  0  3.925469  0  0.295365  0  0.029129  0.021665  0  3.902108  0
C  C83  1  0.35957551  0.51956405  0.74437888  1  0  0.072782  0  3.652056  0  0  0.027393  0  3.911633  0  0  0.036605  0  3.925431  0  0.296606  0  0.029002  0.02169  0  3.902092  0
C  C84  1  0.34686452  0.11650131  0.71367228  1  0  -0.203947  0  3.747081  0  0  -0.214573  0  4.005468  0  0  -0.224824  0  4.026453  0  0.059173  0  -0.115088  -0.207969  0  3.991224  0
C  C85  1  0.65312896  0.38350950  0.21366447  1  0  -0.204191  0  3.747338  0  0  -0.214862  0  4.005735  0  0  -0.225117  0  4.026732  0  0.05914  0  -0.11513  -0.208258  0  3.99149  0
C  C86  1  0.65313606  0.88350042  0.28632291  1  0  -0.203865  0  3.747024  0  0  -0.214506  0  4.005424  0  0  -0.224754  0  4.026412  0  0.059135  0  -0.11508  -0.207903  0  3.991183  0
C  C87  1  0.34688843  0.61650716  0.78631871  1  0  -0.204129  0  3.746969  0  0  -0.214812  0  4.005351  0  0  -0.225065  0  4.026341  0  0.057997  0  -0.115074  -0.208212  0  3.991123  0
C  C88  1  0.17227619  0.10428282  0.68810518  1  0  0.060402  0  3.704553  0  0  0.01847  0  3.969212  0  0  0.02785  0  3.983831  0  0.387013  0  0.019839  0.012607  0  3.959065  0
C  C89  1  0.82772756  0.39571307  0.18810458  1  0  0.060598  0  3.70457  0  0  0.018596  0  3.969238  0  0  0.027973  0  3.983853  0  0.382961  0  0.019877  0.012746  0  3.959112  0
C  C90  1  0.82772247  0.89572638  0.31189181  1  0  0.060553  0  3.704433  0  0  0.018572  0  3.969123  0  0  0.027941  0  3.983752  0  0.387581  0  0.019926  0.012723  0  3.958955  0
C  C91  1  0.17229646  0.60428949  0.81189302  1  0  0.06041  0  3.704488  0  0  0.018431  0  3.969143  0  0  0.027801  0  3.983768  0  0.387475  0  0.019811  0.012564  0  3.959004  0
C  C92  1  0.92281018  0.60621166  0.60796073  1  0  0.055177  0  3.68375  0  0  0.008051  0  3.947933  0  0  0.017001  0  3.962921  0  0.347268  0  0.021352  0.002507  0  3.937564  0
C  C93  1  0.07717239  0.89379841  0.10797034  1  0  0.055077  0  3.683422  0  0  0.007897  0  3.947657  0  0  0.016847  0  3.962651  0  0.347358  0  0.021217  0.002355  0  3.937287  0
C  C94  1  0.07717920  0.39378676  0.39203988  1  0  0.055187  0  3.683672  0  0  0.008032  0  3.947885  0  0  0.016986  0  3.96287  0  0.347947  0  0.02135  0.002484  0  3.937519  0
C  C95  1  0.92281872  0.10620167  0.89203447  1  0  0.055146  0  3.683483  0  0  0.008007  0  3.947699  0  0  0.016953  0  3.962691  0  0.347901  0  0.02126  0.002464  0  3.937326  0
C  C96  1  0.94811075  0.66132377  0.53471280  1  0  -0.216124  0  3.776192  0  0  -0.226504  0  4.035449  0  0  -0.237175  0  4.057453  0  0.007556  0  -0.11752  -0.219578  0  4.020517  0
C  C97  1  0.05188970  0.83869541  0.03471641  1  0  -0.216262  0  3.776049  0  0  -0.226536  0  4.035304  0  0  -0.237206  0  4.057308  0  0.007701  0  -0.117598  -0.219613  0  4.020379  0
C  C98  1  0.05187905  0.33867134  0.46529381  1  0  -0.216156  0  3.776013  0  0  -0.226505  0  4.035266  0  0  -0.237179  0  4.057265  0  0.008051  0  -0.117498  -0.219576  0  4.020334  0
C  C99  1  0.94809064  0.16129804  0.96529020  1  0  -0.216257  0  3.776068  0  0  -0.226632  0  4.035332  0  0  -0.237304  0  4.057339  0  0.007146  0  -0.117602  -0.219708  0  4.02041  0
C  C100  1  0.91987882  0.76948740  0.55075503  1  0  0.072223  0  3.700592  0  0  0.029614  0  3.968468  0  0  0.038478  0  3.98413  0  0.408284  0  0.02527  0.024075  0  3.957551  0
C  C101  1  0.08012761  0.73052018  0.05076224  1  0  0.072119  0  3.700751  0  0  0.029474  0  3.968572  0  0  0.038333  0  3.984238  0  0.408278  0  0.025322  0.02394  0  3.957653  0
C  C102  1  0.08011874  0.23051268  0.44925158  1  0  0.072303  0  3.700564  0  0  0.029635  0  3.968457  0  0  0.03851  0  3.984111  0  0.408051  0  0.025242  0.024096  0  3.957539  0
C  C103  1  0.91987446  0.26947741  0.94925038  1  0  0.072064  0  3.701115  0  0  0.029403  0  3.96895  0  0  0.038263  0  3.984623  0  0.408346  0  0.025381  0.023866  0  3.958028  0
C  C104  1  0.77917326  0.32492771  0.66355120  1  0  0.653574  0  3.91116  0  0  0.598443  0  4.220102  0  0  0.633792  0  4.208771  0  1.564055  0  0.205879  0.574306  0  4.227232  0
C  C105  1  0.22079906  0.17505659  0.16353798  1  0  0.653689  0  3.910709  0  0  0.598515  0  4.219694  0  0  0.633872  0  4.208367  0  1.565747  0  0.205984  0.57438  0  4.226829  0
C  C106  1  0.22082621  0.67506491  0.33645541  1  0  0.653346  0  3.911631  0  0  0.598258  0  4.220559  0  0  0.633614  0  4.209232  0  1.563599  0  0.205851  0.574121  0  4.227687  0
C  C107  1  0.77917009  0.82493355  0.83645361  1  0  0.653374  0  3.911604  0  0  0.598324  0  4.22046  0  0  0.633681  0  4.209132  0  1.563643  0  0.205914  0.574187  0  4.227597  0
N  N108  1  0.08350948  0.00632766  0.71329972  1  0  -0.26789  0  3.258143  0  0  -0.205064  0  3.557804  0  0  -0.221524  0  3.572987  0  -0.763471  0  -0.263798  -0.194041  0  3.547503  0
N  N109  1  0.91648737  0.49366161  0.21329912  1  0  -0.26805  0  3.258779  0  0  -0.205257  0  3.558434  0  0  -0.221696  0  3.573623  0  -0.763448  0  -0.263866  -0.194235  0  3.548127  0
N  N110  1  0.91648467  0.99368403  0.28669667  1  0  -0.267999  0  3.258331  0  0  -0.205218  0  3.558014  0  0  -0.221667  0  3.573194  0  -0.763344  0  -0.263875  -0.194197  0  3.547711  0
N  N111  1  0.08353901  0.50634013  0.78669847  1  0  -0.267911  0  3.258557  0  0  -0.205141  0  3.558273  0  0  -0.221588  0  3.573462  0  -0.763085  0  -0.263812  -0.19412  0  3.547977  0
N  N112  1  0.19973384  0.95602975  0.75363154  1  0  -0.158194  0  3.496487  0  0  -0.098663  0  3.72561  0  0  -0.110876  0  3.744534  0  -0.831135  0  -0.281737  -0.0906  0  3.712792  0
N  N113  1  0.80027299  0.54396954  0.25362072  1  0  -0.158297  0  3.496523  0  0  -0.098614  0  3.72563  0  0  -0.110872  0  3.744602  0  -0.831429  0  -0.281774  -0.090548  0  3.712802  0
N  N114  1  0.80026135  0.04397116  0.24636485  1  0  -0.1582  0  3.496735  0  0  -0.098581  0  3.725829  0  0  -0.110806  0  3.744771  0  -0.83076  0  -0.28173  -0.090523  0  3.713023  0
N  N115  1  0.19974071  0.45603800  0.74636906  1  0  -0.157896  0  3.496517  0  0  -0.098313  0  3.725588  0  0  -0.110554  0  3.744539  0  -0.831335  0  -0.281616  -0.090255  0  3.712777  0
N  N116  1  0.87886277  0.77930049  0.62870981  1  0  -0.259961  0  3.222512  0  0  -0.197855  0  3.519819  0  0  -0.213856  0  3.534508  0  -0.764542  0  -0.258978  -0.187055  0  3.509797  0
N  N117  1  0.12113335  0.72071206  0.12871161  1  0  -0.259921  0  3.223004  0  0  -0.197756  0  3.520236  0  0  -0.213752  0  3.534927  0  -0.764712  0  -0.259034  -0.186957  0  3.510203  0
N  N118  1  0.12113368  0.22069047  0.37129200  1  0  -0.260071  0  3.221832  0  0  -0.197864  0  3.519076  0  0  -0.213868  0  3.533752  0  -0.764273  0  -0.258954  -0.187062  0  3.509057  0
N  N119  1  0.87888357  0.27929299  0.87130221  1  0  -0.259781  0  3.223258  0  0  -0.197502  0  3.520351  0  0  -0.2135  0  3.53505  0  -0.764064  0  -0.258889  -0.186701  0  3.510314  0
N  N120  1  0.88157027  0.67928722  0.66260478  1  0  -0.153712  0  3.474914  0  0  -0.092962  0  3.709099  0  0  -0.105282  0  3.728427  0  -0.838753  0  -0.277524  -0.084868  0  3.696137  0
N  N121  1  0.11841313  0.82071124  0.16261860  1  0  -0.153725  0  3.474881  0  0  -0.092962  0  3.709063  0  0  -0.105285  0  3.728393  0  -0.838729  0  -0.277408  -0.08486  0  3.696089  0
N  N122  1  0.11841504  0.32071535  0.33739281  1  0  -0.153778  0  3.474523  0  0  -0.093081  0  3.708631  0  0  -0.1054  0  3.727959  0  -0.839295  0  -0.277591  -0.084985  0  3.695674  0
N  N123  1  0.88159240  0.17929464  0.83739101  1  0  -0.153933  0  3.474942  0  0  -0.093214  0  3.709172  0  0  -0.105537  0  3.728502  0  -0.839237  0  -0.27758  -0.08511  0  3.696201  0
O  O124  1  0.76992308  0.99807625  0.58711790  1  0  -0.622562  0  1.999692  0  0  -0.551232  0  2.255399  0  0  -0.580009  0  2.243808  0  -1.160118  0  -0.322633  -0.531176  0  2.26262  0
O  O125  1  0.23006699  0.50192304  0.08711670  1  0  -0.622588  0  1.999636  0  0  -0.551247  0  2.255334  0  0  -0.58002  0  2.243738  0  -1.160181  0  -0.322638  -0.531194  0  2.262558  0
O  O126  1  0.23008050  0.00192217  0.41288210  1  0  -0.62247  0  1.999879  0  0  -0.551167  0  2.255629  0  0  -0.579936  0  2.244034  0  -1.160543  0  -0.322587  -0.531112  0  2.262856  0
O  O127  1  0.76992885  0.49807539  0.91288029  1  0  -0.622628  0  1.999717  0  0  -0.551272  0  2.255412  0  0  -0.580049  0  2.243813  0  -1.160483  0  -0.322617  -0.531223  0  2.262641  0
O  O128  1  0.74020034  0.10601932  0.69233432  1  0  -0.642537  0  2.030281  0  0  -0.583441  0  2.268876  0  0  -0.609388  0  2.260697  0  -1.175108  0  -0.313566  -0.565249  0  2.273891  0
O  O129  1  0.25977652  0.39397243  0.19233191  1  0  -0.642431  0  2.030183  0  0  -0.583487  0  2.268956  0  0  -0.609446  0  2.26079  0  -1.175125  0  -0.31354  -0.565258  0  2.273883  0
O  O130  1  0.25980558  0.89397330  0.30766809  1  0  -0.642425  0  2.030255  0  0  -0.583324  0  2.268828  0  0  -0.609273  0  2.260652  0  -1.174974  0  -0.313505  -0.565132  0  2.273847  0
O  O131  1  0.74022793  0.60602931  0.80766989  1  0  -0.642447  0  2.030171  0  0  -0.583497  0  2.269003  0  0  -0.609452  0  2.260818  0  -1.17514  0  -0.31355  -0.56524  0  2.273867  0
O  O132  1  0.69297051  0.36742512  0.71865975  1  0  -0.636596  0  2.013741  0  0  -0.565859  0  2.286939  0  0  -0.593418  0  2.269096  0  -1.176061  0  -0.327407  -0.54656  0  2.298503  0
O  O133  1  0.30700829  0.13256912  0.21864954  1  0  -0.636644  0  2.013565  0  0  -0.565904  0  2.286785  0  0  -0.593412  0  2.268828  0  -1.177722  0  -0.327473  -0.546612  0  2.298357  0
O  O134  1  0.30702787  0.63256336  0.28134986  1  0  -0.636456  0  2.013859  0  0  -0.565748  0  2.287064  0  0  -0.593276  0  2.269159  0  -1.175745  0  -0.327413  -0.546449  0  2.298623  0
O  O135  1  0.69296734  0.86743096  0.78134866  1  0  -0.636468  0  2.013893  0  0  -0.565781  0  2.287089  0  0  -0.59331  0  2.269184  0  -1.175785  0  -0.327463  -0.546486  0  2.298655  0
O  O136  1  0.94112965  0.32285054  0.66575951  1  0  -0.631695  0  1.950877  0  0  -0.588279  0  2.184299  0  0  -0.611329  0  2.17349  0  -1.178484  0  -0.318855  -0.571994  0  2.191169  0
O  O137  1  0.05884612  0.17713707  0.16574689  1  0  -0.631837  0  1.950896  0  0  -0.588401  0  2.184349  0  0  -0.611419  0  2.17347  0  -1.178786  0  -0.318906  -0.572086  0  2.19115  0
O  O138  1  0.05887630  0.67715203  0.33424770  1  0  -0.631683  0  1.951195  0  0  -0.588245  0  2.184584  0  0  -0.611299  0  2.173777  0  -1.178646  0  -0.318833  -0.571952  0  2.191442  0
O  O139  1  0.94112262  0.82286135  0.83425071  1  0  -0.631629  0  1.951256  0  0  -0.588278  0  2.184702  0  0  -0.61131  0  2.173854  0  -1.178396  0  -0.318861  -0.571984  0  2.191543  0
