# generated using pymatgen
data_ZnH16C26N2O5
_symmetry_space_group_name_H-M   'P 1'
_cell_length_a   17.00081714
_cell_length_b   18.23997202
_cell_length_c   19.61370184
_cell_angle_alpha   89.76998058
_cell_angle_beta   90.72103250
_cell_angle_gamma   95.78479224
_symmetry_Int_Tables_number   1
_chemical_formula_structural   ZnH16C26N2O5
_chemical_formula_sum   'Zn2 H32 C52 N4 O10'
_cell_volume   6050.62436048
_cell_formula_units_Z   2
loop_
 _symmetry_equiv_pos_site_id
 _symmetry_equiv_pos_as_xyz
  1  'x, y, z'
loop_
 _atom_site_type_symbol
 _atom_site_label
 _atom_site_symmetry_multiplicity
 _atom_site_fract_x
 _atom_site_fract_y
 _atom_site_fract_z
 _atom_site_occupancy
 _atom_site_pbe_bader_charge
 _atom_site_pbe_bader_spin_density
 _atom_site_pbe_cm5_charge
 _atom_site_pbe_ddec_charge
 _atom_site_pbe_ddec_spin_density
 _atom_site_pbe_ddec_sum_bond_order
 _atom_site_pbe_magmom
Zn  Zn0  1  0.50466273  0.42444551  0.49807624  1  1.278354  0  0.668708  0.815546  0  2.429406  0
Zn  Zn1  1  0.49753214  0.57580538  0.49708482  1  1.276481  0  0.668637  0.815975  0  2.424074  0
H  H2  1  0.73180328  0.43619260  0.58616007  1  0.067053  0  0.109129  0.114306  0  0.983644  0
H  H3  1  0.58628097  0.83621663  0.57770253  1  0.082775  0  0.112057  0.117221  0  0.994911  0
H  H4  1  0.41874858  0.30238977  0.42215961  1  0.169328  0  0.13147  0.114932  0  0.98568  0
H  H5  1  0.58237124  0.69883153  0.57254696  1  0.137556  0  0.130152  0.107707  0  0.970302  0
H  H6  1  0.37393178  0.05733376  0.47707189  1  0.059588  0  0.107896  0.107203  0  0.995198  0
H  H7  1  0.62288279  0.94296574  0.52003348  1  0.071589  0  0.10736  0.106891  0  0.996175  0
H  H8  1  0.37237841  0.92223545  0.47672140  1  0.07435  0  0.106845  0.105737  0  0.996875  0
H  H9  1  0.62431537  0.07795520  0.52086476  1  0.077206  0  0.106501  0.106126  0  0.995853  0
H  H10  1  0.87801946  0.43587360  0.60544014  1  0.104343  0  0.109738  0.112629  0  0.993507  0
H  H11  1  0.12754399  0.56459171  0.60325648  1  0.090266  0  0.109919  0.113159  0  0.992251  0
H  H12  1  0.08234382  0.37421769  0.47528298  1  0.078976  0  0.107123  0.106122  0  1.008757  0
H  H13  1  0.27290526  0.56515109  0.58209238  1  0.106709  0  0.112466  0.120905  0  0.975361  0
H  H14  1  0.91844095  0.62760549  0.47794960  1  0.084233  0  0.107097  0.106017  0  1.008249  0
H  H15  1  0.48952189  0.61496346  0.71291952  1  0.093003  0  0.10056  0.103391  0  1.004722  0
H  H16  1  0.49524360  0.38166410  0.28198425  1  0.091851  0  0.103449  0.106995  0  0.999286  0
H  H17  1  0.49071881  0.61640754  0.84006486  1  0.057155  0  0.097979  0.096046  0  1.010912  0
H  H18  1  0.49590280  0.38155154  0.15472915  1  0.039828  0  0.098124  0.096483  0  1.009303  0
H  H19  1  0.50899422  0.38239245  0.84207511  1  0.050326  0  0.09855  0.096964  0  1.009006  0
H  H20  1  0.50233814  0.61836138  0.15452378  1  0.041124  0  0.097729  0.095543  0  1.008581  0
H  H21  1  0.51210016  0.38296100  0.71499465  1  0.079048  0  0.100617  0.103122  0  1.004397  0
H  H22  1  0.50322291  0.61734557  0.28184115  1  0.08429  0  0.10396  0.10777  0  0.999759  0
H  H23  1  0.58214469  0.41750645  0.93678636  1  0.04981  0  0.09938  0.097552  0  1.007065  0
H  H24  1  0.58113860  0.41735424  0.06254311  1  0.052478  0  0.100532  0.100008  0  1.002462  0
H  H25  1  0.41755328  0.58278010  0.05934646  1  0.034404  0  0.099732  0.098091  0  1.003778  0
H  H26  1  0.17611678  0.32002854  0.42175249  1  0.039932  0  0.090652  0.016394  0  0.969695  0
H  H27  1  0.82006534  0.68271549  0.42506274  1  0.040681  0  0.089696  0.015139  0  0.968142  0
H  H28  1  0.41745825  0.58215655  0.93356531  1  0.039414  0  0.099102  0.097335  0  1.006338  0
H  H29  1  0.58810329  0.31448837  0.57592047  1  0.110436  0  0.127782  0.101332  0  0.973901  0
H  H30  1  0.40887639  0.68493228  0.42253613  1  0.126015  0  0.132314  0.108049  0  0.962161  0
H  H31  1  0.58824536  0.17734887  0.58047573  1  0.050251  0  0.11108  0.116991  0  0.996629  0
H  H32  1  0.40737765  0.82190451  0.41818942  1  0.076498  0  0.112637  0.118062  0  0.993804  0
H  H33  1  0.41260500  0.16480214  0.41820523  1  0.077315  0  0.113503  0.119572  0  0.991173  0
C  C34  1  0.49917302  0.49942951  0.36581731  1  1.502763  0  0.218831  0.597448  0  4.155445  0
C  C35  1  0.50044738  0.56602431  0.25324899  1  -0.000683  0  -0.083051  -0.082244  0  3.984642  0
C  C36  1  0.50139258  0.49899997  0.70648155  1  -0.067234  0  -0.022415  -0.03602  0  3.973797  0
C  C37  1  0.49868990  0.49947967  0.28948444  1  0.058339  0  -0.01659  -0.032456  0  3.957042  0
C  C38  1  0.54474867  0.45298316  0.96342045  1  -0.021479  0  -0.094178  -0.129454  0  4.007947  0
C  C39  1  0.45463726  0.54712812  0.03255559  1  0.027643  0  -0.092764  -0.128168  0  4.004134  0
C  C40  1  0.54426124  0.45292164  0.03431992  1  -0.066244  0  -0.093131  -0.130396  0  4.002215  0
C  C41  1  0.45473621  0.54684413  0.96164674  1  -0.095275  0  -0.093621  -0.129613  0  4.006449  0
C  C42  1  0.49924263  0.50003949  0.07043745  1  -0.018549  0  -0.009094  0.066239  0  4.009243  0
C  C43  1  0.49984152  0.49980760  0.92550291  1  0.007194  0  -0.012391  0.060515  0  4.015613  0
C  C44  1  0.55086802  0.27855911  0.54173077  1  0.532113  0  0.058534  0.103881  0  3.938387  0
C  C45  1  0.50214388  0.49870233  0.63027276  1  1.578847  0  0.208909  0.5856  0  4.179001  0
C  C46  1  0.44706741  0.72115253  0.45578094  1  0.514055  0  0.06346  0.107871  0  3.922345  0
C  C47  1  0.55065178  0.20247805  0.54357649  1  -0.040273  0  -0.082467  -0.185447  0  3.965385  0
C  C48  1  0.44618226  0.79719890  0.45434848  1  -0.03629  0  -0.080566  -0.181117  0  3.951948  0
C  C49  1  0.34721819  0.48026207  0.50307268  1  1.632952  0  0.215364  0.59526  0  4.19972  0
C  C50  1  0.65487566  0.52167220  0.50608944  1  1.611837  0  0.215494  0.594115  0  4.201809  0
C  C51  1  0.50051183  0.15876481  0.49905385  1  -0.00697  0  0.014924  0.11215  0  4.000948  0
C  C52  1  0.49671620  0.84144885  0.49810882  1  -0.048633  0  0.01533  0.112836  0  3.994553  0
C  C53  1  0.45200283  0.19538715  0.45466164  1  -0.020103  0  -0.079516  -0.178849  0  3.944424  0
C  C54  1  0.54664283  0.80530334  0.54163893  1  0.017059  0  -0.080763  -0.182007  0  3.952021  0
C  C55  1  0.45545485  0.27181469  0.45576190  1  0.498442  0  0.064937  0.111848  0  3.895266  0
C  C56  1  0.49406811  0.56476005  0.81286816  1  -0.005012  0  -0.095843  -0.141414  0  4.001679  0
C  C57  1  0.54433816  0.72904813  0.53997573  1  0.439337  0  0.062268  0.109794  0  3.917821  0
C  C58  1  0.42894072  0.03250035  0.48562091  1  -0.018064  0  -0.083941  -0.118818  0  3.985294  0
C  C59  1  0.56778429  0.96771628  0.51171671  1  -0.034161  0  -0.083664  -0.118464  0  3.984529  0
C  C60  1  0.42810570  0.95621134  0.48536754  1  -0.05034  0  -0.084996  -0.120366  0  3.986403  0
C  C61  1  0.56859910  0.04397354  0.51210301  1  -0.11703  0  -0.084366  -0.120081  0  3.986251  0
C  C62  1  0.49749605  0.92236923  0.49836280  1  0.013365  0  -0.003906  0.061667  0  4.000819  0
C  C63  1  0.49923570  0.07781598  0.49899381  1  0.009426  0  -0.004873  0.06095  0  4.004468  0
C  C64  1  0.25926081  0.47268527  0.51415603  1  -0.04693  0  0.014297  -0.002408  0  3.853246  0
C  C65  1  0.74304880  0.52871703  0.51767554  1  0.00933  0  0.011615  -0.007079  0  3.857379  0
C  C66  1  0.23051244  0.52389008  0.55826000  1  -0.055252  0  -0.076692  -0.08795  0  3.960886  0
C  C67  1  0.49786263  0.43347581  0.18247392  1  -0.042129  0  -0.095965  -0.144958  0  4.002634  0
C  C68  1  0.77331557  0.47743981  0.56183915  1  -0.005999  0  -0.077199  -0.086532  0  3.96402  0
C  C69  1  0.15008165  0.52355492  0.57047841  1  0.034556  0  -0.072477  -0.124243  0  3.941925  0
C  C70  1  0.85425887  0.47736486  0.57317397  1  0.017456  0  -0.075134  -0.127171  0  3.945752  0
C  C71  1  0.09661593  0.46981836  0.53940487  1  0.328101  0  0.083773  0.165256  0  4.074598  0
C  C72  1  0.90657780  0.53127999  0.54179352  1  0.308932  0  0.083313  0.165022  0  4.077231  0
C  C73  1  0.12491824  0.41564280  0.49890223  1  -0.011745  0  -0.070901  -0.166184  0  3.927989  0
C  C74  1  0.87678578  0.58603150  0.50186077  1  0.017218  0  -0.071645  -0.166435  0  3.929663  0
C  C75  1  0.20550095  0.41758674  0.48401855  1  0.005627  0  -0.017036  -0.003831  0  3.979692  0
C  C76  1  0.79580733  0.58376030  0.48720400  1  -0.086129  0  -0.016439  -0.000865  0  3.981595  0
C  C77  1  0.49422533  0.56448467  0.74199203  1  -0.074375  0  -0.087737  -0.088619  0  3.999682  0
C  C78  1  0.50011130  0.49950623  0.85029882  1  -0.024708  0  -0.006009  0.075712  0  4.006108  0
C  C79  1  0.49715377  0.43316653  0.25339197  1  -0.025438  0  -0.083119  -0.08054  0  3.984941  0
C  C80  1  0.22631829  0.36317831  0.43306568  1  0.94115  0  0.096018  0.271636  0  3.996252  0
C  C81  1  0.77277939  0.63638585  0.43449635  1  0.951708  0  0.095491  0.268935  0  3.996224  0
C  C82  1  0.49888207  0.49993341  0.14567194  1  -0.037896  0  -0.006571  0.072795  0  4.010642  0
C  C83  1  0.50645733  0.43392851  0.81406448  1  -0.067603  0  -0.095422  -0.141296  0  3.99932  0
C  C84  1  0.49983405  0.56620054  0.18230879  1  -0.044732  0  -0.095033  -0.141112  0  3.99837  0
C  C85  1  0.50758553  0.43371844  0.74320098  1  -0.015406  0  -0.087711  -0.088606  0  3.999419  0
N  N86  1  0.01346562  0.46860484  0.54250605  1  -0.468621  0  -0.14799  -0.132784  0  3.267438  0
N  N87  1  0.98978984  0.53222873  0.54348906  1  -0.49059  0  -0.14975  -0.137292  0  3.273512  0
N  N88  1  0.50441175  0.31259309  0.49848630  1  -1.233976  0  -0.319529  -0.19314  0  3.518868  0
N  N89  1  0.49524209  0.68763378  0.49792100  1  -1.234827  0  -0.318784  -0.192947  0  3.515065  0
O  O90  1  0.48973928  0.43703217  0.39576092  1  -1.17014  0  -0.314572  -0.543274  0  2.33623  0
O  O91  1  0.71135087  0.63110357  0.40115113  1  -1.062863  0  -0.256097  -0.328628  0  2.122801  0
O  O92  1  0.48135813  0.55574720  0.59985754  1  -1.162089  0  -0.321274  -0.552346  0  2.324566  0
O  O93  1  0.50912369  0.56191009  0.39532661  1  -1.158105  0  -0.31457  -0.53998  0  2.332753  0
O  O94  1  0.52340174  0.44148452  0.60136850  1  -1.175281  0  -0.320635  -0.553532  0  2.326904  0
O  O95  1  0.38440544  0.42523466  0.51692039  1  -1.155171  0  -0.312014  -0.538411  0  2.318806  0
O  O96  1  0.61832073  0.57723880  0.51866950  1  -1.157273  0  -0.312155  -0.545147  0  2.327638  0
O  O97  1  0.37636051  0.54397886  0.48433414  1  -1.160049  0  -0.317404  -0.550329  0  2.289861  0
O  O98  1  0.62490106  0.45803512  0.48790034  1  -1.159682  0  -0.315233  -0.541745  0  2.287716  0
O  O99  1  0.28894091  0.36305111  0.40310352  1  -1.076763  0  -0.257804  -0.342548  0  2.150239  0
