# generated using pymatgen
data_NdH4C3O8
_symmetry_space_group_name_H-M   'P 1'
_cell_length_a   8.60398561
_cell_length_b   9.56477906
_cell_length_c   16.69068031
_cell_angle_alpha   90.00018202
_cell_angle_beta   90.00000489
_cell_angle_gamma   89.99985611
_symmetry_Int_Tables_number   1
_chemical_formula_structural   NdH4C3O8
_chemical_formula_sum   'Nd8 H32 C24 O64'
_cell_volume   1373.56323004
_cell_formula_units_Z   8
loop_
 _symmetry_equiv_pos_site_id
 _symmetry_equiv_pos_as_xyz
  1  'x, y, z'
loop_
 _atom_site_type_symbol
 _atom_site_label
 _atom_site_symmetry_multiplicity
 _atom_site_fract_x
 _atom_site_fract_y
 _atom_site_fract_z
 _atom_site_occupancy
 _atom_site_hle17_bader_spin_density
 _atom_site_hle17_ddec_charge
 _atom_site_hle17_ddec_spin_density
 _atom_site_hle17_ddec_sum_bond_order
 _atom_site_hle17_magmom
 _atom_site_hse06_10hf_bader_spin_density
 _atom_site_hse06_10hf_ddec_charge
 _atom_site_hse06_10hf_ddec_spin_density
 _atom_site_hse06_10hf_ddec_sum_bond_order
 _atom_site_hse06_10hf_magmom
 _atom_site_hse06_bader_spin_density
 _atom_site_hse06_ddec_charge
 _atom_site_hse06_ddec_spin_density
 _atom_site_hse06_ddec_sum_bond_order
 _atom_site_hse06_magmom
 _atom_site_pbe_bader_spin_density
 _atom_site_pbe_cm5_charge
 _atom_site_pbe_ddec_charge
 _atom_site_pbe_ddec_spin_density
 _atom_site_pbe_ddec_sum_bond_order
 _atom_site_pbe_magmom
Nd  Nd0  1  0.62536961  0.74632116  0.14092604  1  0  2.283414  0  1.60596  0  0  2.108425  0  2.079243  0  0  2.211074  0  1.922053  0  0  1.48308  2.076906  0  2.111517  0
Nd  Nd1  1  0.87463157  0.25367839  0.64092619  1  0  2.283347  0  1.605922  0  0  2.108342  0  2.079214  0  0  2.210997  0  1.922009  0  0  1.483094  2.076826  0  2.111484  0
Nd  Nd2  1  0.12536882  0.75367989  0.85907471  1  0  2.283385  0  1.60599  0  0  2.108393  0  2.079252  0  0  2.211032  0  1.922075  0  0  1.483083  2.076872  0  2.111532  0
Nd  Nd3  1  0.37463072  0.24632096  0.35907307  1  0  2.28339  0  1.605945  0  0  2.108392  0  2.079231  0  0  2.211045  0  1.922035  0  0  1.483117  2.076874  0  2.111502  0
Nd  Nd4  1  0.86810831  0.73621987  0.36437109  1  0  2.282033  0  1.594562  0  0  2.109438  0  2.066739  0  0  2.213543  0  1.907925  0  0  1.473938  2.078581  0  2.097399  0
Nd  Nd5  1  0.63189523  0.26377884  0.86437125  1  0  2.282005  0  1.59455  0  0  2.109368  0  2.066793  0  0  2.213509  0  1.907917  0  0  1.473962  2.078544  0  2.097404  0
Nd  Nd6  1  0.36810746  0.76378064  0.63563087  1  0  2.281996  0  1.594591  0  0  2.109397  0  2.066774  0  0  2.2135  0  1.907963  0  0  1.473913  2.078513  0  2.097476  0
Nd  Nd7  1  0.13189437  0.23622210  0.13562860  1  0  2.282002  0  1.594534  0  0  2.109329  0  2.066815  0  0  2.213496  0  1.907896  0  0  1.473931  2.078532  0  2.097392  0
H  H8  1  0.64109821  0.90853947  0.98125802  1  0  0.447802  0  0.838371  0  0  0.417351  0  0.900849  0  0  0.42744  0  0.886259  0  0  0.311376  0.410318  0  0.911065  0
H  H9  1  0.85890418  0.09146302  0.48125670  1  0  0.447844  0  0.838324  0  0  0.417391  0  0.900795  0  0  0.427483  0  0.886201  0  0  0.311396  0.410357  0  0.911012  0
H  H10  1  0.14109890  0.59146050  0.01874153  1  0  0.447806  0  0.838355  0  0  0.417353  0  0.900841  0  0  0.427443  0  0.886252  0  0  0.311383  0.410319  0  0.911058  0
H  H11  1  0.35890407  0.40853740  0.51874256  1  0  0.447833  0  0.838343  0  0  0.41738  0  0.900812  0  0  0.427472  0  0.886218  0  0  0.311389  0.410345  0  0.91103  0
H  H12  1  0.38233433  0.92367126  0.21232412  1  0  0.428721  0  0.873677  0  0  0.399409  0  0.934773  0  0  0.410073  0  0.919394  0  0  0.303781  0.391774  0  0.945954  0
H  H13  1  0.11766403  0.07632772  0.71232334  1  0  0.428822  0  0.873571  0  0  0.399509  0  0.934663  0  0  0.410173  0  0.919284  0  0  0.303851  0.391873  0  0.945845  0
H  H14  1  0.88233453  0.57632816  0.78767664  1  0  0.428711  0  0.873694  0  0  0.399399  0  0.934789  0  0  0.410063  0  0.919411  0  0  0.303775  0.391763  0  0.945972  0
H  H15  1  0.61766434  0.42367325  0.28767651  1  0  0.428812  0  0.873577  0  0  0.399499  0  0.934669  0  0  0.410164  0  0.919291  0  0  0.303853  0.391864  0  0.94585  0
H  H16  1  0.51543822  0.60224543  0.37585282  1  0  0.449864  0  0.833431  0  0  0.421347  0  0.892101  0  0  0.432505  0  0.875617  0  0  0.313733  0.413536  0  0.903769  0
H  H17  1  0.98456183  0.39775543  0.87585383  1  0  0.449869  0  0.833434  0  0  0.421345  0  0.892113  0  0  0.432504  0  0.875629  0  0  0.31372  0.413536  0  0.903778  0
H  H18  1  0.01543699  0.89775482  0.62414613  1  0  0.449833  0  0.833479  0  0  0.421313  0  0.892156  0  0  0.432471  0  0.875672  0  0  0.313727  0.413502  0  0.903824  0
H  H19  1  0.48456251  0.10224471  0.12414543  1  0  0.449852  0  0.83346  0  0  0.421332  0  0.892135  0  0  0.43249  0  0.87565  0  0  0.313724  0.413522  0  0.903801  0
H  H20  1  0.59220611  0.61998044  0.46067742  1  0  0.440095  0  0.855993  0  0  0.409592  0  0.919036  0  0  0.421  0  0.902295  0  0  0.306828  0.401568  0  0.930942  0
H  H21  1  0.90779628  0.38001985  0.96067900  1  0  0.440122  0  0.855957  0  0  0.409639  0  0.918954  0  0  0.421041  0  0.902221  0  0  0.306856  0.401618  0  0.930853  0
H  H22  1  0.09220724  0.88001964  0.53932273  1  0  0.440117  0  0.855962  0  0  0.409617  0  0.918999  0  0  0.421025  0  0.902258  0  0  0.306844  0.401593  0  0.930905  0
H  H23  1  0.40779457  0.11998047  0.03932086  1  0  0.440115  0  0.855974  0  0  0.409626  0  0.918982  0  0  0.421032  0  0.902244  0  0  0.306842  0.401607  0  0.930881  0
H  H24  1  0.84143949  0.58947362  0.52473710  1  0  0.443338  0  0.853884  0  0  0.413  0  0.916341  0  0  0.423501  0  0.901309  0  0  0.31156  0.405687  0  0.926883  0
H  H25  1  0.65856283  0.41052528  0.02473634  1  0  0.443336  0  0.853896  0  0  0.413003  0  0.916341  0  0  0.423504  0  0.901311  0  0  0.311543  0.405689  0  0.926883  0
H  H26  1  0.34144053  0.91052590  0.47526366  1  0  0.443328  0  0.853901  0  0  0.41299  0  0.916356  0  0  0.42349  0  0.901326  0  0  0.311553  0.405674  0  0.926901  0
H  H27  1  0.15856252  0.08947560  0.97526291  1  0  0.443336  0  0.853897  0  0  0.412997  0  0.916351  0  0  0.423498  0  0.90132  0  0  0.311553  0.405686  0  0.926889  0
H  H28  1  0.81545829  0.74738013  0.54599641  1  0  0.447778  0  0.807381  0  0  0.422773  0  0.872735  0  0  0.431898  0  0.862792  0  0  0.326317  0.416462  0  0.879977  0
H  H29  1  0.68454287  0.25261993  0.04599537  1  0  0.447854  0  0.807307  0  0  0.422849  0  0.872654  0  0  0.431974  0  0.862711  0  0  0.326357  0.416541  0  0.879894  0
H  H30  1  0.31545860  0.75262049  0.45400375  1  0  0.44779  0  0.807362  0  0  0.422787  0  0.872714  0  0  0.431912  0  0.86277  0  0  0.326328  0.416477  0  0.879954  0
H  H31  1  0.18454328  0.24738089  0.95400328  1  0  0.44781  0  0.80736  0  0  0.422805  0  0.872709  0  0  0.431931  0  0.862761  0  0  0.326342  0.416496  0  0.879948  0
H  H32  1  0.27776309  0.87191254  0.14049417  1  0  0.459075  0  0.813007  0  0  0.432444  0  0.867318  0  0  0.443347  0  0.851294  0  0  0.319125  0.424789  0  0.878695  0
H  H33  1  0.22223990  0.12808709  0.64049588  1  0  0.459035  0  0.813068  0  0  0.432399  0  0.867387  0  0  0.443302  0  0.851363  0  0  0.319105  0.424744  0  0.878765  0
H  H34  1  0.77776200  0.62808922  0.85950539  1  0  0.459064  0  0.813023  0  0  0.432434  0  0.867333  0  0  0.443337  0  0.851309  0  0  0.319128  0.424779  0  0.878711  0
H  H35  1  0.72224037  0.37191260  0.35950337  1  0  0.459035  0  0.813067  0  0  0.432405  0  0.867377  0  0  0.443307  0  0.851354  0  0  0.319116  0.424749  0  0.878755  0
H  H36  1  0.52687342  0.77805039  0.96246717  1  0  0.453493  0  0.833731  0  0  0.423211  0  0.894522  0  0  0.434533  0  0.877954  0  0  0.308933  0.415455  0  0.905887  0
H  H37  1  0.97313013  0.22195096  0.46246669  1  0  0.453452  0  0.83378  0  0  0.423154  0  0.894603  0  0  0.434476  0  0.878034  0  0  0.308899  0.415399  0  0.905963  0
H  H38  1  0.02687375  0.72194880  0.03753357  1  0  0.453442  0  0.833807  0  0  0.423166  0  0.894591  0  0  0.434487  0  0.878024  0  0  0.308921  0.41541  0  0.905953  0
H  H39  1  0.47312922  0.27804921  0.53753317  1  0  0.453471  0  0.833753  0  0  0.423175  0  0.894573  0  0  0.434496  0  0.878004  0  0  0.308913  0.41542  0  0.905934  0
C  C40  1  0.36041483  0.50712817  0.10278178  1  0  0.568675  0  3.917652  0  0  0.524034  0  4.211022  0  0  0.55365  0  4.206751  0  0  0.229518  0.503821  0  4.216952  0
C  C41  1  0.13957886  0.49285975  0.60278415  1  0  0.568633  0  3.918191  0  0  0.524005  0  4.211555  0  0  0.553614  0  4.20728  0  0  0.229476  0.503791  0  4.217484  0
C  C42  1  0.86041272  0.99286922  0.89721719  1  0  0.568745  0  3.917565  0  0  0.524069  0  4.211012  0  0  0.553684  0  4.206741  0  0  0.22956  0.503841  0  4.216961  0
C  C43  1  0.63957687  0.00714117  0.39721511  1  0  0.568776  0  3.917995  0  0  0.524083  0  4.211447  0  0  0.553694  0  4.207172  0  0  0.229516  0.503865  0  4.217384  0
C  C44  1  0.41609840  0.45858043  0.18669623  1  0  0.603755  0  3.842508  0  0  0.55971  0  4.131864  0  0  0.590715  0  4.127639  0  0  0.245454  0.538299  0  4.139405  0
C  C45  1  0.08389763  0.54141841  0.68669808  1  0  0.603923  0  3.842401  0  0  0.559848  0  4.131816  0  0  0.590857  0  4.127581  0  0  0.245547  0.538439  0  4.139355  0
C  C46  1  0.91609871  0.04141987  0.81330304  1  0  0.603843  0  3.842336  0  0  0.559788  0  4.131744  0  0  0.590795  0  4.127515  0  0  0.245499  0.538382  0  4.139286  0
C  C47  1  0.58389785  0.95858169  0.31330087  1  0  0.603793  0  3.842608  0  0  0.559767  0  4.131969  0  0  0.590771  0  4.127746  0  0  0.245499  0.53836  0  4.139508  0
C  C48  1  0.86566326  0.48511246  0.10432275  1  0  0.568815  0  3.878492  0  0  0.520929  0  4.170156  0  0  0.551284  0  4.163943  0  0  0.231414  0.500627  0  4.175923  0
C  C49  1  0.63434604  0.51487852  0.60432276  1  0  0.568583  0  3.878466  0  0  0.520653  0  4.17022  0  0  0.551039  0  4.16396  0  0  0.231332  0.500349  0  4.175994  0
C  C50  1  0.36566431  0.01489109  0.89567891  1  0  0.56885  0  3.878174  0  0  0.52088  0  4.17001  0  0  0.551231  0  4.163803  0  0  0.231342  0.500572  0  4.175789  0
C  C51  1  0.13434918  0.98512042  0.39567859  1  0  0.568759  0  3.878069  0  0  0.520821  0  4.169854  0  0  0.551177  0  4.16364  0  0  0.231355  0.500512  0  4.175628  0
C  C52  1  0.91658846  0.51627803  0.19176679  1  0  0.606186  0  3.858319  0  0  0.565026  0  4.150746  0  0  0.596275  0  4.145651  0  0  0.241289  0.543831  0  4.157691  0
C  C53  1  0.58341156  0.48371867  0.69176914  1  0  0.606374  0  3.858295  0  0  0.565248  0  4.150685  0  0  0.596492  0  4.145578  0  0  0.241353  0.544041  0  4.15766  0
C  C54  1  0.41659051  0.98372969  0.80823578  1  0  0.606097  0  3.858208  0  0  0.564923  0  4.150695  0  0  0.596175  0  4.145598  0  0  0.241199  0.543727  0  4.157645  0
C  C55  1  0.08340786  0.01627820  0.30823131  1  0  0.606187  0  3.858417  0  0  0.565035  0  4.150865  0  0  0.596287  0  4.145766  0  0  0.241246  0.543848  0  4.157801  0
C  C56  1  0.94599517  0.93601983  0.11538322  1  0  0.585733  0  3.900938  0  0  0.53513  0  4.207473  0  0  0.566067  0  4.201462  0  0  0.227353  0.513763  0  4.214968  0
C  C57  1  0.55400019  0.06398376  0.61538301  1  0  0.585711  0  3.900766  0  0  0.535113  0  4.207305  0  0  0.566045  0  4.201297  0  0  0.227334  0.513745  0  4.214797  0
C  C58  1  0.44599143  0.56397945  0.88461815  1  0  0.585578  0  3.900852  0  0  0.53496  0  4.207418  0  0  0.565901  0  4.201409  0  0  0.227253  0.513593  0  4.214911  0
C  C59  1  0.05400114  0.43601631  0.38461743  1  0  0.585776  0  3.900734  0  0  0.535175  0  4.207262  0  0  0.566111  0  4.201254  0  0  0.227371  0.513809  0  4.214755  0
C  C60  1  0.81575213  0.04436326  0.13311506  1  0  0.578939  0  3.906256  0  0  0.531829  0  4.211177  0  0  0.562097  0  4.205435  0  0  0.223923  0.510929  0  4.218627  0
C  C61  1  0.68425370  0.95564252  0.63311348  1  0  0.578905  0  3.90606  0  0  0.531797  0  4.210975  0  0  0.562067  0  4.20523  0  0  0.223848  0.510899  0  4.218419  0
C  C62  1  0.31574845  0.45563518  0.86688539  1  0  0.578961  0  3.906244  0  0  0.531874  0  4.211116  0  0  0.562125  0  4.2054  0  0  0.223926  0.510976  0  4.218559  0
C  C63  1  0.18424993  0.54435945  0.36688488  1  0  0.57894  0  3.906253  0  0  0.531866  0  4.211107  0  0  0.562126  0  4.205379  0  0  0.223887  0.510964  0  4.218556  0
O  O64  1  0.42574138  0.61268926  0.07342357  1  0  -0.619686  0  2.083859  0  0  -0.566698  0  2.326944  0  0  -0.59645  0  2.318166  0  0  -0.366257  -0.550412  0  2.331389  0
O  O65  1  0.07427322  0.38731209  0.57342994  1  0  -0.619631  0  2.084733  0  0  -0.566604  0  2.3277  0  0  -0.596383  0  2.318999  0  0  -0.366232  -0.550327  0  2.33215  0
O  O66  1  0.92573725  0.88730694  0.92657599  1  0  -0.619665  0  2.083795  0  0  -0.566681  0  2.326913  0  0  -0.59643  0  2.318135  0  0  -0.366278  -0.550399  0  2.33139  0
O  O67  1  0.57427443  0.11268898  0.42656931  1  0  -0.619606  0  2.084759  0  0  -0.566573  0  2.327785  0  0  -0.596351  0  2.319085  0  0  -0.366195  -0.550295  0  2.332236  0
O  O68  1  0.52248272  0.53060506  0.21843676  1  0  -0.644461  0  2.078186  0  0  -0.589476  0  2.309468  0  0  -0.619589  0  2.300296  0  0  -0.315997  -0.573036  0  2.315224  0
O  O69  1  0.97751847  0.46939805  0.71843731  1  0  -0.644506  0  2.078329  0  0  -0.589518  0  2.309647  0  0  -0.619627  0  2.300468  0  0  -0.31604  -0.57308  0  2.315408  0
O  O70  1  0.02248364  0.96939413  0.78156279  1  0  -0.644477  0  2.078119  0  0  -0.589487  0  2.309408  0  0  -0.6196  0  2.300235  0  0  -0.315989  -0.573047  0  2.315166  0
O  O71  1  0.47751589  0.03060211  0.28156376  1  0  -0.644442  0  2.078461  0  0  -0.58946  0  2.30974  0  0  -0.619569  0  2.300565  0  0  -0.31599  -0.573024  0  2.315499  0
O  O72  1  0.74537706  0.54555406  0.07718550  1  0  -0.66873  0  2.125576  0  0  -0.613238  0  2.368416  0  0  -0.643508  0  2.356517  0  0  -0.37087  -0.596805  0  2.374011  0
O  O73  1  0.75461365  0.45444932  0.57718721  1  0  -0.668605  0  2.126119  0  0  -0.61306  0  2.368892  0  0  -0.643326  0  2.356973  0  0  -0.370759  -0.596625  0  2.374488  0
O  O74  1  0.24537805  0.95444672  0.92281526  1  0  -0.668761  0  2.125494  0  0  -0.613215  0  2.368336  0  0  -0.643475  0  2.356429  0  0  -0.370855  -0.596776  0  2.373934  0
O  O75  1  0.25461802  0.04555239  0.42281325  1  0  -0.668631  0  2.125958  0  0  -0.613094  0  2.368765  0  0  -0.643354  0  2.35687  0  0  -0.370801  -0.596664  0  2.37437  0
O  O76  1  0.84443572  0.61494437  0.22810751  1  0  -0.75219  0  2.073261  0  0  -0.69738  0  2.329824  0  0  -0.735338  0  2.317448  0  0  -0.382448  -0.680616  0  2.336551  0
O  O77  1  0.65555850  0.38505985  0.72810789  1  0  -0.752274  0  2.073487  0  0  -0.697489  0  2.330109  0  0  -0.735451  0  2.317731  0  0  -0.382508  -0.680724  0  2.336848  0
O  O78  1  0.34443804  0.88505410  0.77189205  1  0  -0.75227  0  2.073034  0  0  -0.697431  0  2.329564  0  0  -0.73539  0  2.317188  0  0  -0.382472  -0.680659  0  2.33629  0
O  O79  1  0.15555684  0.11493581  0.27189316  1  0  -0.752265  0  2.073611  0  0  -0.697455  0  2.330204  0  0  -0.735419  0  2.317825  0  0  -0.382492  -0.680703  0  2.336932  0
O  O80  1  0.90311638  0.81028668  0.10578613  1  0  -0.668734  0  2.099582  0  0  -0.612481  0  2.34077  0  0  -0.642993  0  2.329985  0  0  -0.34361  -0.595516  0  2.346759  0
O  O81  1  0.59688363  0.18971371  0.60578496  1  0  -0.668688  0  2.09947  0  0  -0.612456  0  2.340687  0  0  -0.642964  0  2.329903  0  0  -0.343597  -0.595494  0  2.346677  0
O  O82  1  0.40311229  0.68971583  0.89421463  1  0  -0.668663  0  2.099423  0  0  -0.612393  0  2.3406  0  0  -0.642905  0  2.329817  0  0  -0.343574  -0.595428  0  2.34659  0
O  O83  1  0.09688493  0.31028626  0.39421489  1  0  -0.668727  0  2.099484  0  0  -0.612487  0  2.340691  0  0  -0.642995  0  2.329907  0  0  -0.343606  -0.595524  0  2.346681  0
O  O84  1  0.67660156  0.00047322  0.13333670  1  0  -0.673817  0  2.091841  0  0  -0.614599  0  2.334027  0  0  -0.644645  0  2.321581  0  0  -0.365388  -0.597582  0  2.340803  0
O  O85  1  0.82339613  0.99953047  0.63333580  1  0  -0.673775  0  2.091904  0  0  -0.614527  0  2.334048  0  0  -0.64457  0  2.321601  0  0  -0.365368  -0.597512  0  2.340823  0
O  O86  1  0.17659776  0.49952762  0.86666255  1  0  -0.673897  0  2.091792  0  0  -0.614641  0  2.333906  0  0  -0.644679  0  2.321467  0  0  -0.36544  -0.597622  0  2.34068  0
O  O87  1  0.32339713  0.50046700  0.36666137  1  0  -0.673846  0  2.091884  0  0  -0.614633  0  2.334057  0  0  -0.644675  0  2.321615  0  0  -0.365384  -0.597617  0  2.340833  0
O  O88  1  0.58834711  0.82674192  0.00444695  1  0  -0.904637  0  1.84643  0  0  -0.853639  0  2.045744  0  0  -0.878327  0  2.00643  0  0  -0.651242  -0.841544  0  2.069113  0
O  O89  1  0.91165521  0.17326000  0.50444576  1  0  -0.904622  0  1.846447  0  0  -0.853631  0  2.045779  0  0  -0.878312  0  2.006461  0  0  -0.651234  -0.841539  0  2.069148  0
O  O90  1  0.08834541  0.67325817  0.99555320  1  0  -0.904573  0  1.846469  0  0  -0.853584  0  2.045789  0  0  -0.878271  0  2.006481  0  0  -0.651238  -0.841494  0  2.069168  0
O  O91  1  0.41165532  0.32674135  0.49555350  1  0  -0.904644  0  1.846431  0  0  -0.853652  0  2.045759  0  0  -0.878332  0  2.006443  0  0  -0.651242  -0.84156  0  2.069129  0
O  O92  1  0.36405221  0.84367770  0.17564430  1  0  -0.902526  0  1.814964  0  0  -0.854335  0  1.992993  0  0  -0.878666  0  1.954495  0  0  -0.636316  -0.842195  0  2.016325  0
O  O93  1  0.13594962  0.15632213  0.67564666  1  0  -0.90256  0  1.814923  0  0  -0.854358  0  1.992936  0  0  -0.878685  0  1.954436  0  0  -0.636355  -0.842218  0  2.016269  0
O  O94  1  0.86405104  0.65632282  0.82435467  1  0  -0.90249  0  1.814974  0  0  -0.854299  0  1.993006  0  0  -0.878629  0  1.95451  0  0  -0.636305  -0.842158  0  2.016338  0
O  O95  1  0.63595017  0.34367880  0.32435379  1  0  -0.902558  0  1.814924  0  0  -0.854358  0  1.992938  0  0  -0.878684  0  1.95444  0  0  -0.636374  -0.84222  0  2.016272  0
O  O96  1  0.25178619  0.43899385  0.06943436  1  0  -0.668677  0  2.09246  0  0  -0.615926  0  2.334619  0  0  -0.646309  0  2.324247  0  0  -0.367892  -0.599258  0  2.339577  0
O  O97  1  0.24821330  0.56100852  0.56943506  1  0  -0.668717  0  2.092173  0  0  -0.61598  0  2.334316  0  0  -0.646351  0  2.323947  0  0  -0.367902  -0.599294  0  2.339265  0
O  O98  1  0.75178414  0.06100473  0.93056430  1  0  -0.668762  0  2.092508  0  0  -0.615995  0  2.334676  0  0  -0.646374  0  2.324307  0  0  -0.367949  -0.599313  0  2.339632  0
O  O99  1  0.74821476  0.93899435  0.43056450  1  0  -0.668862  0  2.092046  0  0  -0.616111  0  2.334239  0  0  -0.646484  0  2.323869  0  0  -0.367994  -0.599423  0  2.339184  0
O  O100  1  0.35233043  0.35005116  0.21708674  1  0  -0.749466  0  2.100623  0  0  -0.688912  0  2.354919  0  0  -0.727312  0  2.343045  0  0  -0.393547  -0.671847  0  2.361614  0
O  O101  1  0.14766909  0.64995203  0.71708880  1  0  -0.74956  0  2.100519  0  0  -0.688995  0  2.35481  0  0  -0.727387  0  2.342935  0  0  -0.393556  -0.67192  0  2.361506  0
O  O102  1  0.85233043  0.14994824  0.78291312  1  0  -0.749535  0  2.100574  0  0  -0.688972  0  2.354879  0  0  -0.727368  0  2.343003  0  0  -0.393574  -0.671905  0  2.361572  0
O  O103  1  0.64766961  0.85004897  0.28291256  1  0  -0.749526  0  2.100555  0  0  -0.688975  0  2.354831  0  0  -0.727367  0  2.342962  0  0  -0.393555  -0.671906  0  2.361525  0
O  O104  1  0.61193183  0.63235482  0.40250545  1  0  -0.921781  0  1.861829  0  0  -0.875466  0  2.062017  0  0  -0.900028  0  2.022312  0  0  -0.641942  -0.863454  0  2.086445  0
O  O105  1  0.88806939  0.36764410  0.90250580  1  0  -0.921816  0  1.861818  0  0  -0.875494  0  2.062023  0  0  -0.900062  0  2.022324  0  0  -0.641963  -0.863488  0  2.086444  0
O  O106  1  0.11193185  0.86764521  0.59749530  1  0  -0.921784  0  1.861848  0  0  -0.875474  0  2.062042  0  0  -0.900036  0  2.022337  0  0  -0.641963  -0.863459  0  2.08647  0
O  O107  1  0.38806997  0.13235626  0.09749466  1  0  -0.921797  0  1.86184  0  0  -0.87547  0  2.062043  0  0  -0.900041  0  2.022337  0  0  -0.641946  -0.863464  0  2.086463  0
O  O108  1  0.87240872  0.68618043  0.50937832  1  0  -0.873194  0  1.848531  0  0  -0.821264  0  2.04952  0  0  -0.846148  0  2.018029  0  0  -0.633035  -0.808497  0  2.068002  0
O  O109  1  0.62759359  0.31382361  0.00937739  1  0  -0.873291  0  1.848547  0  0  -0.821345  0  2.049522  0  0  -0.846234  0  2.018027  0  0  -0.63307  -0.80858  0  2.068005  0
O  O110  1  0.37240887  0.81382006  0.49062185  1  0  -0.873196  0  1.848528  0  0  -0.821262  0  2.049505  0  0  -0.846143  0  2.018015  0  0  -0.63304  -0.808492  0  2.067988  0
O  O111  1  0.12759302  0.18617839  0.99062127  1  0  -0.87325  0  1.848565  0  0  -0.82131  0  2.04957  0  0  -0.846204  0  2.018075  0  0  -0.633062  -0.808547  0  2.06805  0
O  O112  1  0.94500568  0.39744165  0.06548243  1  0  -0.644242  0  2.170196  0  0  -0.581113  0  2.404006  0  0  -0.611401  0  2.395375  0  0  -0.338831  -0.56439  0  2.408332  0
O  O113  1  0.55498735  0.60256061  0.56548440  1  0  -0.644202  0  2.169693  0  0  -0.581065  0  2.403505  0  0  -0.61139  0  2.394904  0  0  -0.338877  -0.564316  0  2.407813  0
O  O114  1  0.44500533  0.10256277  0.93451983  1  0  -0.64425  0  2.170065  0  0  -0.581089  0  2.40388  0  0  -0.61139  0  2.395272  0  0  -0.338781  -0.564358  0  2.408206  0
O  O115  1  0.05499422  0.89743746  0.43451695  1  0  -0.644251  0  2.169592  0  0  -0.581113  0  2.403408  0  0  -0.611423  0  2.39481  0  0  -0.338815  -0.56437  0  2.40772  0
O  O116  1  0.02344086  0.44021671  0.21887164  1  0  -0.630129  0  2.01861  0  0  -0.586384  0  2.257691  0  0  -0.6172  0  2.249736  0  0  -0.321119  -0.570111  0  2.262046  0
O  O117  1  0.47655517  0.55978440  0.71887355  1  0  -0.630199  0  2.018428  0  0  -0.586501  0  2.257557  0  0  -0.617307  0  2.2496  0  0  -0.321133  -0.570211  0  2.261924  0
O  O118  1  0.52343879  0.05978552  0.78113180  1  0  -0.629983  0  2.018841  0  0  -0.58623  0  2.257937  0  0  -0.617037  0  2.249981  0  0  -0.320994  -0.569953  0  2.262293  0
O  O119  1  0.97655311  0.94021377  0.28112901  1  0  -0.630144  0  2.018568  0  0  -0.586398  0  2.257658  0  0  -0.617204  0  2.249699  0  0  -0.321093  -0.57012  0  2.262013  0
O  O120  1  0.08374355  0.98145205  0.10996525  1  0  -0.662879  0  2.051468  0  0  -0.606871  0  2.292348  0  0  -0.636477  0  2.279384  0  0  -0.354834  -0.590407  0  2.299441  0
O  O121  1  0.41625363  0.01854636  0.60996498  1  0  -0.662922  0  2.051521  0  0  -0.606925  0  2.292404  0  0  -0.636518  0  2.279441  0  0  -0.354837  -0.590448  0  2.299498  0
O  O122  1  0.58374045  0.51854805  0.89003550  1  0  -0.662801  0  2.051523  0  0  -0.60683  0  2.292471  0  0  -0.636432  0  2.27951  0  0  -0.354775  -0.590359  0  2.299563  0
O  O123  1  0.91625496  0.48145289  0.39003548  1  0  -0.662936  0  2.051448  0  0  -0.60695  0  2.29234  0  0  -0.636543  0  2.279374  0  0  -0.354876  -0.590478  0  2.299435  0
O  O124  1  0.85608559  0.16985804  0.14396494  1  0  -0.662497  0  2.043705  0  0  -0.615768  0  2.287511  0  0  -0.644552  0  2.274306  0  0  -0.374282  -0.600626  0  2.294401  0
O  O125  1  0.64391094  0.83014048  0.64396253  1  0  -0.662468  0  2.043502  0  0  -0.61575  0  2.287297  0  0  -0.644526  0  2.274095  0  0  -0.374234  -0.600595  0  2.294184  0
O  O126  1  0.35608342  0.33014344  0.85603492  1  0  -0.662424  0  2.043747  0  0  -0.615713  0  2.287542  0  0  -0.644485  0  2.274346  0  0  -0.374216  -0.600569  0  2.294434  0
O  O127  1  0.14391147  0.66985844  0.35603523  1  0  -0.662464  0  2.043689  0  0  -0.615757  0  2.287466  0  0  -0.644528  0  2.274269  0  0  -0.374242  -0.600609  0  2.294357  0
