# generated using pymatgen
data_Zn2H9C41N2Cl6(O4F3)2
_symmetry_space_group_name_H-M   'P 1'
_cell_length_a   11.02595599
_cell_length_b   13.88451156
_cell_length_c   26.27483155
_cell_angle_alpha   89.62188688
_cell_angle_beta   88.30390364
_cell_angle_gamma   89.67418390
_symmetry_Int_Tables_number   1
_chemical_formula_structural   Zn2H9C41N2Cl6(O4F3)2
_chemical_formula_sum   'Zn4 H18 C82 N4 Cl12 O16 F12'
_cell_volume   4020.50378467
_cell_formula_units_Z   2
loop_
 _symmetry_equiv_pos_site_id
 _symmetry_equiv_pos_as_xyz
  1  'x, y, z'
loop_
 _atom_site_type_symbol
 _atom_site_label
 _atom_site_symmetry_multiplicity
 _atom_site_fract_x
 _atom_site_fract_y
 _atom_site_fract_z
 _atom_site_occupancy
 _atom_site_pbe_bader_charge
 _atom_site_pbe_bader_spin_density
 _atom_site_pbe_cm5_charge
 _atom_site_pbe_ddec_charge
 _atom_site_pbe_ddec_spin_density
 _atom_site_pbe_ddec_sum_bond_order
 _atom_site_pbe_magmom
Zn  Zn0  1  0.52087787  0.39471478  0.50214429  1  1.266043  0  0.668305  0.821478  0  2.40289  0
Zn  Zn1  1  0.51856460  0.59646545  0.50316127  1  1.277249  0  0.671508  0.82131  0  2.443448  0
Zn  Zn2  1  0.47712562  0.60704345  0.08099271  1  1.277299  0  0.67134  0.824334  0  2.41385  0
Zn  Zn3  1  0.47823983  0.40495858  0.08627413  1  1.295556  0  0.670924  0.81812  0  2.419951  0
H  H4  1  0.37314570  0.24552624  0.55211121  1  0.163692  0  0.134885  0.119982  0  0.972898  0
H  H5  1  0.66872478  0.24047526  0.45068887  1  0.152403  0  0.13172  0.114533  0  0.978832  0
H  H6  1  0.65976516  0.74577052  0.45218953  1  0.145147  0  0.135399  0.121284  0  0.971405  0
H  H7  1  0.36545620  0.74978063  0.55421812  1  0.114923  0  0.132515  0.114493  0  0.978218  0
H  H8  1  0.66078933  0.41316521  0.18627158  1  0.120342  0  0.100527  0.123771  0  1.051334  0
H  H9  1  0.67126726  0.35840326  0.37310230  1  0.091433  0  0.098549  0.122181  0  1.042139  0
H  H10  1  0.49974990  0.64074792  0.66081078  1  0.123378  0  0.103671  0.113883  0  1.018327  0
H  H11  1  0.51018053  0.33161031  0.66686236  1  0.084304  0  0.106827  0.118362  0  1.005418  0
H  H12  1  0.50178428  0.34812046  0.92579076  1  0.097745  0  0.103003  0.112256  0  1.01935  0
H  H13  1  0.48901838  0.65716939  0.91905766  1  0.11314  0  0.106778  0.117924  0  1.008185  0
H  H14  1  0.79492376  0.58520152  0.59215139  1  0.084186  0  0.108742  0.137325  0  0.998817  0
H  H15  1  0.24684059  0.57798115  0.58688438  1  0.078861  0  0.105866  0.130541  0  1.014772  0
H  H16  1  0.34816484  0.76210498  0.02543087  1  0.155738  0  0.135686  0.119305  0  0.966792  0
H  H17  1  0.61000058  0.75374026  0.13551164  1  0.172335  0  0.130882  0.116647  0  0.986993  0
H  H18  1  0.61958428  0.24892539  0.13869974  1  0.136441  0  0.12795  0.112558  0  0.996651  0
H  H19  1  0.34913391  0.25694435  0.03208321  1  0.158227  0  0.131975  0.115637  0  0.984821  0
H  H20  1  0.75072171  0.41076701  0.00340904  1  0.127629  0  0.107277  0.134452  0  1.006911  0
H  H21  1  0.20255648  0.41036225  0.99606430  1  0.109352  0  0.106462  0.13168  0  1.00724  0
C  C22  1  0.50672261  0.48393984  0.60202289  1  1.53196  0  0.215992  0.593937  0  4.162943  0
C  C23  1  0.28446504  0.49925324  0.50139854  1  1.635829  0  0.214473  0.61107  0  4.196199  0
C  C24  1  0.52495369  0.49437441  0.40349746  1  1.578741  0  0.214879  0.610043  0  4.165671  0
C  C25  1  0.75535723  0.50709076  0.50488931  1  1.59007  0  0.216753  0.616459  0  4.167587  0
C  C26  1  0.49032593  0.50756378  0.98421445  1  1.560723  0  0.21575  0.593701  0  4.162524  0
C  C27  1  0.24266193  0.49584227  0.08115794  1  1.637466  0  0.217404  0.61747  0  4.164331  0
C  C28  1  0.47706289  0.51993384  0.18221608  1  1.622994  0  0.215481  0.610184  0  4.172449  0
C  C29  1  0.71350774  0.50144701  0.08560708  1  1.578981  0  0.215514  0.606049  0  4.197856  0
C  C30  1  0.43652872  0.20043088  0.53023705  1  0.515356  0  0.070217  0.076881  0  3.834522  0
C  C31  1  0.43070261  0.09959992  0.53191401  1  0.033663  0  0.001725  -0.04117  0  4.050901  0
C  C32  1  0.34330096  0.04728272  0.56222810  1  0.542404  0  0.105675  0.134526  0  4.071343  0
C  C33  1  0.60304797  0.19784960  0.47278784  1  0.447838  0  0.070253  0.077401  0  3.838872  0
C  C34  1  0.60489403  0.09693618  0.47166214  1  0.127635  0  0.001289  -0.039492  0  4.047882  0
C  C35  1  0.69091297  0.04209867  0.44196173  1  0.560393  0  0.104801  0.135897  0  4.075607  0
C  C36  1  0.59613108  0.79062923  0.47406582  1  0.548028  0  0.070277  0.07617  0  3.840526  0
C  C37  1  0.60089657  0.89136966  0.47214524  1  0.039401  0  0.001608  -0.040513  0  4.055149  0
C  C38  1  0.68859113  0.94347582  0.44198624  1  0.541535  0  0.105578  0.134189  0  4.076863  0
C  C39  1  0.43018473  0.79276387  0.53183675  1  0.626972  0  0.06993  0.076484  0  3.838995  0
C  C40  1  0.42730824  0.89373027  0.53268680  1  -0.065721  0  0.000585  -0.04239  0  4.050256  0
C  C41  1  0.34162711  0.94854918  0.56261514  1  0.582274  0  0.106524  0.135994  0  4.071681  0
C  C42  1  0.51665098  0.04631125  0.50186725  1  -0.046051  0  0.014069  0.03265  0  3.971457  0
C  C43  1  0.51483727  0.94452524  0.50219260  1  0.129128  0  0.014309  0.034366  0  3.970095  0
C  C44  1  0.49213809  0.51835951  0.23906989  1  0.028394  0  -0.012244  -0.108304  0  3.904511  0
C  C45  1  0.57826503  0.45264496  0.25954362  1  0.039116  0  -0.002409  0.078142  0  3.966191  0
C  C46  1  0.42404267  0.57671214  0.27170567  1  0.053595  0  0.011312  0.06622  0  4.029553  0
C  C47  1  0.66120250  0.40180087  0.22724459  1  0.057587  0  -0.101231  -0.193686  0  3.978736  0
C  C48  1  0.74684748  0.34046021  0.24678168  1  0.071058  0  0.003039  0.088533  0  4.067952  0
C  C49  1  0.51307629  0.50092798  0.34650544  1  0.046266  0  -0.012806  -0.112012  0  3.888138  0
C  C50  1  0.43456240  0.56810320  0.32558925  1  0.143245  0  0.012728  0.068268  0  4.027309  0
C  C51  1  0.58615494  0.44127945  0.31355536  1  0.037064  0  -0.001201  0.081899  0  3.958464  0
C  C52  1  0.66932608  0.37225481  0.33239275  1  0.066004  0  -0.102706  -0.190736  0  3.95494  0
C  C53  1  0.74777929  0.32240559  0.30009895  1  0.00667  0  0.003686  0.093568  0  4.060944  0
C  C54  1  0.50119946  0.57507384  0.68354882  1  0.091752  0  -0.084157  -0.131826  0  3.954119  0
C  C55  1  0.49977157  0.57932691  0.73672238  1  -0.042819  0  -0.012892  -0.005711  0  4.076822  0
C  C56  1  0.49622049  0.66867442  0.76343272  1  0.518836  0  0.088067  0.117424  0  4.087887  0
C  C57  1  0.50686905  0.39991464  0.68694620  1  -0.043501  0  -0.080119  -0.122288  0  3.915126  0
C  C58  1  0.50494663  0.40208359  0.74028631  1  0.042507  0  -0.010826  -0.003088  0  4.063471  0
C  C59  1  0.50646161  0.31650928  0.77086950  1  0.48524  0  0.090238  0.118638  0  4.084111  0
C  C60  1  0.49954352  0.41367741  0.90296064  1  -0.013593  0  -0.084033  -0.13253  0  3.947656  0
C  C61  1  0.50134395  0.40913638  0.84969469  1  0.083193  0  -0.012905  -0.005742  0  4.069006  0
C  C62  1  0.50492417  0.31987475  0.82284813  1  0.526459  0  0.088145  0.117149  0  4.082728  0
C  C63  1  0.49272776  0.58877876  0.89908648  1  -0.012907  0  -0.080029  -0.121943  0  3.919273  0
C  C64  1  0.49555677  0.58634510  0.84583518  1  0.03302  0  -0.011139  -0.00217  0  4.065211  0
C  C65  1  0.49414351  0.67202716  0.81537824  1  0.475756  0  0.08953  0.117824  0  4.086965  0
C  C66  1  0.50463738  0.48602394  0.65903313  1  0.032114  0  -0.016658  -0.022032  0  3.988111  0
C  C67  1  0.50139759  0.49241430  0.76614861  1  0.067559  0  0.002678  0.014772  0  3.949155  0
C  C68  1  0.49469270  0.50297132  0.92724837  1  0.008864  0  -0.016513  -0.020624  0  3.985028  0
C  C69  1  0.49946296  0.49588109  0.82012055  1  -0.043568  0  0.003009  0.014988  0  3.946705  0
C  C70  1  0.89194303  0.50722135  0.50437708  1  0.094897  0  -0.015783  -0.120088  0  3.915437  0
C  C71  1  0.95492766  0.54314042  0.54696585  1  0.039937  0  -0.001282  0.078213  0  3.971561  0
C  C72  1  0.95658715  0.47385311  0.46193743  1  0.047725  0  0.011213  0.066018  0  4.047263  0
C  C73  1  0.89358238  0.58179756  0.59050807  1  -0.009817  0  -0.094079  -0.182656  0  3.936135  0
C  C74  1  0.95681696  0.61827301  0.63059200  1  0.127812  0  0.006248  0.091494  0  4.064558  0
C  C75  1  0.14823340  0.50208232  0.50254243  1  0.093158  0  -0.013932  -0.111691  0  3.935761  0
C  C76  1  0.08553842  0.46959983  0.46131089  1  0.016577  0  0.009402  0.062832  0  4.051078  0
C  C77  1  0.08494798  0.54113566  0.54572086  1  0.054817  0  -0.002946  0.076152  0  3.978867  0
C  C78  1  0.14795029  0.57848727  0.58747069  1  0.088036  0  -0.096257  -0.187524  0  3.943701  0
C  C79  1  0.08604936  0.61709857  0.62899424  1  0.013788  0  0.004818  0.088967  0  4.068492  0
C  C80  1  0.40592317  0.80432868  0.04963616  1  0.515292  0  0.069718  0.072694  0  3.844313  0
C  C81  1  0.40401993  0.90528367  0.04892035  1  0.036473  0  0.001223  -0.040691  0  4.053323  0
C  C82  1  0.32674421  0.96122324  0.01730306  1  0.535274  0  0.105849  0.134218  0  4.074466  0
C  C83  1  0.55439618  0.79957593  0.11165370  1  0.518018  0  0.070223  0.079362  0  3.830492  0
C  C84  1  0.55995372  0.90027849  0.11361267  1  0.045359  0  0.001277  -0.041204  0  4.051133  0
C  C85  1  0.63824183  0.95125283  0.14629173  1  0.498713  0  0.105275  0.13555  0  4.073536  0
C  C86  1  0.55996927  0.20703192  0.11511828  1  0.46513  0  0.06911  0.077575  0  3.832555  0
C  C87  1  0.56269491  0.10600794  0.11544131  1  0.085396  0  0.001406  -0.039226  0  4.043432  0
C  C88  1  0.63964758  0.04991118  0.14714752  1  0.615893  0  0.104266  0.135858  0  4.070268  0
C  C89  1  0.40856181  0.21142744  0.05440384  1  0.496186  0  0.068084  0.07561  0  3.839229  0
C  C90  1  0.40563842  0.11079367  0.05124975  1  0.082059  0  0.000834  -0.041202  0  4.051253  0
C  C91  1  0.32731056  0.05987123  0.01846812  1  0.603276  0  0.106099  0.136562  0  4.069762  0
C  C92  1  0.48283309  0.95470898  0.08167803  1  -0.023065  0  0.014135  0.033  0  3.97162  0
C  C93  1  0.48393615  0.05646358  0.08270361  1  0.073554  0  0.014467  0.033118  0  3.972769  0
C  C94  1  0.84978855  0.49820691  0.08452361  1  0.083473  0  -0.013549  -0.112307  0  3.94305  0
C  C95  1  0.91281758  0.45436856  0.04261498  1  -0.01159  0  -0.002717  0.075802  0  3.977527  0
C  C96  1  0.91294326  0.53675956  0.12409410  1  0.012647  0  0.008463  0.056766  0  4.055517  0
C  C97  1  0.84961044  0.41175349  0.00236521  1  0.017622  0  -0.093673  -0.180934  0  3.929839  0
C  C98  1  0.91139506  0.36975896  0.96174494  1  0.151001  0  0.005326  0.089606  0  4.066662  0
C  C99  1  0.10613640  0.49519751  0.08206601  1  0.054448  0  -0.014793  -0.118142  0  3.909003  0
C  C100  1  0.04193432  0.53362712  0.12343777  1  0.10255  0  0.010613  0.068098  0  4.050324  0
C  C101  1  0.04282975  0.45381197  0.04098643  1  0.056079  0  -0.001846  0.077803  0  3.97503  0
C  C102  1  0.10390661  0.41162929  0.99833165  1  0.017795  0  -0.096352  -0.186546  0  3.947102  0
C  C103  1  0.04060495  0.37010833  0.95965742  1  -0.006637  0  0.005978  0.090643  0  4.065986  0
N  N104  1  0.52073693  0.24640660  0.50135433  1  -1.203728  0  -0.308094  -0.173764  0  3.530009  0
N  N105  1  0.51291878  0.74449201  0.50330262  1  -1.223427  0  -0.310155  -0.174018  0  3.533955  0
N  N106  1  0.47909836  0.75484011  0.08040147  1  -1.222686  0  -0.309653  -0.172768  0  3.530994  0
N  N107  1  0.48398440  0.25653783  0.08551988  1  -1.250084  0  -0.309359  -0.176317  0  3.525868  0
Cl  Cl108  1  0.34392284  0.64032597  0.36389603  1  -0.176191  0  -0.006116  -0.052327  0  1.629371  0
Cl  Cl109  1  0.32451785  0.66072385  0.24815397  1  -0.172884  0  -0.006175  -0.048534  0  1.64646  0
Cl  Cl110  1  0.85357775  0.28839176  0.20617995  1  -0.197716  0  -0.009761  -0.066287  0  1.539584  0
Cl  Cl111  1  0.84695704  0.23892238  0.32447138  1  -0.185537  0  -0.018969  -0.08196  0  1.562631  0
Cl  Cl112  1  0.16365860  0.42559037  0.40867930  1  -0.173948  0  0.000291  -0.046649  0  1.578281  0
Cl  Cl113  1  0.88245207  0.44113574  0.40810149  1  -0.179922  0  0.00467  -0.051159  0  1.694808  0
Cl  Cl114  1  0.87778019  0.66581452  0.68225019  1  -0.194138  0  -0.019896  -0.080052  0  1.472635  0
Cl  Cl115  1  0.16660967  0.66416680  0.67820839  1  -0.196951  0  -0.014042  -0.072942  0  1.500629  0
Cl  Cl116  1  0.11660760  0.57437827  0.17545684  1  -0.162152  0  -0.007992  -0.058795  0  1.68001  0
Cl  Cl117  1  0.83500474  0.58813434  0.17498924  1  -0.178411  0  0.008077  -0.039295  0  1.590912  0
Cl  Cl118  1  0.83092120  0.31720318  0.91409309  1  -0.189451  0  -0.015573  -0.0743  0  1.491351  0
Cl  Cl119  1  0.11978922  0.31836517  0.90919600  1  -0.193208  0  -0.018289  -0.077937  0  1.482827  0
O  O120  1  0.52138202  0.40275128  0.58055378  1  -1.161469  0  -0.315604  -0.536826  0  2.309683  0
O  O121  1  0.49379391  0.56480227  0.57921997  1  -1.174563  0  -0.321271  -0.558665  0  2.33939  0
O  O122  1  0.33635981  0.57992392  0.49432090  1  -1.155348  0  -0.313513  -0.543424  0  2.336675  0
O  O123  1  0.33497653  0.41827066  0.50838748  1  -1.163055  0  -0.309701  -0.53928  0  2.318184  0
O  O124  1  0.54930582  0.57179873  0.42629195  1  -1.158116  0  -0.314835  -0.548925  0  2.355616  0
O  O125  1  0.51052300  0.41188916  0.42422695  1  -1.147643  0  -0.312494  -0.537475  0  2.305407  0
O  O126  1  0.70390981  0.42603944  0.50074240  1  -1.158233  0  -0.314883  -0.549612  0  2.327797  0
O  O127  1  0.70325881  0.58848711  0.51007647  1  -1.156493  0  -0.310772  -0.535954  0  2.314369  0
O  O128  1  0.47172218  0.58999841  0.00393171  1  -1.160684  0  -0.315271  -0.536128  0  2.326796  0
O  O129  1  0.50522569  0.42883757  0.00872244  1  -1.172683  0  -0.320185  -0.559223  0  2.325489  0
O  O130  1  0.29517493  0.41418537  0.07743292  1  -1.162882  0  -0.312582  -0.540029  0  2.324654  0
O  O131  1  0.29382761  0.57715631  0.08371046  1  -1.162142  0  -0.312322  -0.543131  0  2.332635  0
O  O132  1  0.44999408  0.43988379  0.16242274  1  -1.157289  0  -0.31278  -0.535035  0  2.294571  0
O  O133  1  0.49529207  0.59878396  0.15856474  1  -1.161998  0  -0.312146  -0.548326  0  2.360903  0
O  O134  1  0.66373879  0.58065950  0.07435720  1  -1.146491  0  -0.307297  -0.530945  0  2.30415  0
O  O135  1  0.66045254  0.42254960  0.09708410  1  -1.161908  0  -0.311207  -0.543328  0  2.335696  0
F  F136  1  0.25828786  0.90115142  0.59158149  1  -0.608417  0  -0.075384  -0.094848  0  1.363368  0
F  F137  1  0.26161015  0.09714786  0.59085559  1  -0.610844  0  -0.075322  -0.09267  0  1.350987  0
F  F138  1  0.77063513  0.89357641  0.41356071  1  -0.608438  0  -0.075151  -0.091504  0  1.349645  0
F  F139  1  0.77567138  0.08930351  0.41375077  1  -0.61494  0  -0.076845  -0.097092  0  1.411248  0
F  F140  1  0.49043392  0.75835377  0.83922555  1  -0.613696  0  -0.096296  -0.115552  0  1.347263  0
F  F141  1  0.49454925  0.75168523  0.73593840  1  -0.623127  0  -0.096946  -0.114834  0  1.349826  0
F  F142  1  0.50665549  0.23673546  0.85026762  1  -0.616857  0  -0.097632  -0.115241  0  1.347533  0
F  F143  1  0.50950824  0.23006997  0.74709591  1  -0.618666  0  -0.096862  -0.115913  0  1.345092  0
F  F144  1  0.25299761  0.11093049  0.98857405  1  -0.604266  0  -0.075153  -0.094845  0  1.369399  0
F  F145  1  0.25196875  0.91485102  0.98616397  1  -0.60569  0  -0.076033  -0.093841  0  1.350104  0
F  F146  1  0.71395406  0.09576496  0.17857058  1  -0.612872  0  -0.076279  -0.098331  0  1.414102  0
F  F147  1  0.71136662  0.90041336  0.17681930  1  -0.615582  0  -0.075461  -0.092346  0  1.353429  0
