# generated using pymatgen
data_ZnH10C13BrN4O
_symmetry_space_group_name_H-M   'P 1'
_cell_length_a   14.45019709
_cell_length_b   14.49603787
_cell_length_c   15.05682749
_cell_angle_alpha   105.49959846
_cell_angle_beta   117.30553574
_cell_angle_gamma   104.30354957
_symmetry_Int_Tables_number   1
_chemical_formula_structural   ZnH10C13BrN4O
_chemical_formula_sum   'Zn4 H40 C52 Br4 N16 O4'
_cell_volume   2435.98996660
_cell_formula_units_Z   4
loop_
 _symmetry_equiv_pos_site_id
 _symmetry_equiv_pos_as_xyz
  1  'x, y, z'
loop_
 _atom_site_type_symbol
 _atom_site_label
 _atom_site_symmetry_multiplicity
 _atom_site_fract_x
 _atom_site_fract_y
 _atom_site_fract_z
 _atom_site_occupancy
 _atom_site_pbe_bader_charge
 _atom_site_pbe_bader_spin_density
 _atom_site_pbe_cm5_charge
 _atom_site_pbe_ddec_charge
 _atom_site_pbe_ddec_spin_density
 _atom_site_pbe_ddec_sum_bond_order
 _atom_site_pbe_magmom
Br  Br0  1  0.37843877  0.15149915  0.54503172  1  -0.09904  0  -0.017758  -0.103995  0  1.3448  0
Br  Br1  1  0.69904369  0.28611853  0.68608503  1  -0.084803  0  0.001827  -0.079243  0  1.368456  0
Br  Br2  1  0.60716371  0.83416212  0.45558504  1  -0.097764  0  -0.017539  -0.103986  0  1.345206  0
Br  Br3  1  0.60010279  0.01116491  0.31280475  1  -0.08362  0  0.001389  -0.079658  0  1.367337  0
C  C4  1  0.86018389  0.22190103  0.42431204  1  0.34223  0  0.010072  -0.041275  0  3.942825  0
C  C5  1  0.55613521  0.97690857  0.97133470  1  -0.066717  0  -0.086938  -0.089407  0  3.657582  0
C  C6  1  0.18217209  0.95694570  0.73626163  1  0.379185  0  -0.133781  -0.160368  0  3.904585  0
C  C7  1  0.92969330  0.74365465  0.77969138  1  0.407789  0  -0.134968  -0.173597  0  3.925614  0
C  C8  1  0.22096743  0.44633891  0.26305546  1  0.403635  0  -0.134216  -0.161558  0  3.904768  0
C  C9  1  0.96399716  0.14974335  0.22113492  1  0.376902  0  -0.134705  -0.174468  0  3.925518  0
C  C10  1  0.22556559  0.65657081  0.20561539  1  -0.066214  0  -0.087953  -0.100867  0  3.668953  0
C  C11  1  0.00520337  0.58505809  0.02854860  1  -0.041506  0  -0.086318  -0.088004  0  3.65773  0
C  C12  1  0.45093449  0.01960502  0.79420401  1  -0.054493  0  -0.08809  -0.10139  0  3.666825  0
C  C13  1  0.58517138  0.32045401  0.49105978  1  0.064663  0  -0.091784  -0.152131  0  4.033884  0
C  C14  1  0.45258999  0.37207394  0.59312564  1  0.002308  0  -0.09254  -0.153955  0  4.008154  0
C  C15  1  0.83003911  0.09447700  0.50894703  1  0.047529  0  -0.092387  -0.153848  0  4.036195  0
C  C16  1  0.84235820  0.75334666  0.51597477  1  0.474165  0  0.007169  -0.053114  0  4.001359  0
C  C17  1  0.77988910  0.85953499  0.40731810  1  0.006357  0  -0.093204  -0.156581  0  4.009807  0
C  C18  1  0.57665541  0.29621731  0.56857458  1  -0.111977  0  -0.039943  0.033797  0  4.020771  0
C  C19  1  0.47632325  0.28740822  0.57285684  1  -0.059845  0  -0.035013  0.042174  0  4.038746  0
C  C20  1  0.72830891  0.00785393  0.43135389  1  -0.084691  0  -0.039952  0.033909  0  4.019473  0
C  C21  1  0.71550895  0.90374113  0.42762938  1  -0.068661  0  -0.034724  0.043194  0  4.038503  0
C  C22  1  0.79764701  0.43574928  0.57558023  1  0.354415  0  0.010588  -0.040696  0  3.941431  0
C  C23  1  0.16139243  0.57853863  0.88112984  1  0.389188  0  -0.002634  -0.05443  0  4.076758  0
C  C24  1  0.01705068  0.60611806  0.31033370  1  0.397239  0  0.001082  -0.040887  0  4.017697  0
C  C25  1  0.69718838  0.28006574  0.11906307  1  0.422532  0  -0.002973  -0.054528  0  4.07643  0
C  C26  1  0.29569047  0.70677443  0.68921561  1  0.382038  0  0.001276  -0.042476  0  4.016101  0
C  C27  1  0.23730693  0.32666830  0.48408954  1  0.432849  0  0.007207  -0.052847  0  4.002026  0
C  C28  1  0.05099232  0.66228376  0.85354783  1  0.972558  0  0.178568  0.286979  0  4.10952  0
C  C29  1  0.12633246  0.52051636  0.33664464  1  0.995569  0  0.178669  0.287554  0  4.060214  0
C  C30  1  0.80878684  0.19747949  0.14707827  1  0.979313  0  0.180707  0.289626  0  4.107247  0
C  C31  1  0.18319120  0.78915486  0.66257417  1  0.986688  0  0.177885  0.285742  0  4.065738  0
C  C32  1  0.68087293  0.36122041  0.39110876  1  0.443767  0  0.013897  -0.042833  0  3.948225  0
C  C33  1  0.33907477  0.44688004  0.65903212  1  0.401425  0  0.006631  -0.061682  0  3.994363  0
C  C34  1  0.97032927  0.29025481  0.60878894  1  0.429238  0  0.013197  -0.045361  0  3.951157  0
C  C35  1  0.78802605  0.67998947  0.34125727  1  0.376754  0  0.005434  -0.062611  0  3.990985  0
C  C36  1  0.87690877  0.19697264  0.51317213  1  0.010603  0  -0.042908  0.013095  0  4.110184  0
C  C37  1  0.79638967  0.76727095  0.41845470  1  0.020412  0  -0.046245  0.015257  0  4.125948  0
C  C38  1  0.68350022  0.36323420  0.48662273  1  0.050015  0  -0.042911  0.012287  0  4.10959  0
C  C39  1  0.34898681  0.37778966  0.58186307  1  0.003462  0  -0.047664  0.012561  0  4.131096  0
C  C40  1  0.11407229  0.62799967  0.93058175  1  0.081705  0  -0.052456  -0.159771  0  4.100712  0
C  C41  1  0.09555674  0.58712478  0.28597962  1  0.014449  0  -0.051571  -0.16303  0  4.062489  0
C  C42  1  0.69732290  0.18348124  0.06972914  1  0.087283  0  -0.053334  -0.161555  0  4.104801  0
C  C43  1  0.30086279  0.80930924  0.71331759  1  0.052508  0  -0.050993  -0.160637  0  4.062269  0
C  C44  1  0.47394308  0.07803489  0.91131485  1  -0.043515  0  -0.091553  -0.104172  0  3.70578  0
C  C45  1  0.53275087  0.91875837  0.85426834  1  -0.034168  0  -0.083556  -0.081564  0  3.656524  0
C  C46  1  0.16660038  0.56274698  0.08819290  1  -0.039338  0  -0.091327  -0.102343  0  3.703  0
C  C47  1  0.06442021  0.67844259  0.14593655  1  -0.040171  0  -0.08361  -0.080916  0  3.65572  0
C  C48  1  0.43148186  0.96974416  0.91482353  1  -0.051869  0  -0.089454  -0.098787  0  3.686053  0
C  C49  1  0.57660050  0.02788919  0.85221804  1  -0.024897  0  -0.081008  -0.079526  0  3.634519  0
C  C50  1  0.05424893  0.51676876  0.08434254  1  -0.064481  0  -0.089705  -0.100408  0  3.687469  0
C  C51  1  0.17614120  0.72435474  0.14831897  1  -0.033488  0  -0.081152  -0.079924  0  3.637426  0
C  C52  1  0.40582739  0.90901183  0.79577041  1  0.028558  0  -0.004663  0.096853  0  3.705836  0
C  C53  1  0.60015649  0.08764870  0.97059575  1  0.030333  0  -0.003354  0.106386  0  3.712109  0
C  C54  1  0.11287424  0.60979883  0.20375848  1  0.036059  0  -0.004256  0.096574  0  3.703016  0
C  C55  1  0.11718229  0.62982759  0.02951738  1  0.029861  0  -0.002801  0.105261  0  3.710703  0
H  H56  1  0.79867940  0.17323011  0.33524305  1  0.162704  0  0.112735  0.10562  0  1.022568  0
H  H57  1  0.97129253  0.65401750  0.28786375  1  0.078977  0  0.110875  0.095452  0  1.021027  0
H  H58  1  0.62803901  0.30470887  0.08843489  1  0.047622  0  0.111999  0.09888  0  1.008351  0
H  H59  1  0.36641044  0.68381872  0.71185182  1  0.084973  0  0.111055  0.095959  0  1.0207  0
H  H60  1  0.21659438  0.53994966  0.91152399  1  0.084152  0  0.111818  0.098663  0  1.007686  0
H  H61  1  0.61036379  0.31431220  0.30378233  1  0.072315  0  0.117315  0.105796  0  0.992727  0
H  H62  1  0.40418820  0.50127341  0.74634627  1  0.103267  0  0.117295  0.107291  0  0.993612  0
H  H63  1  0.01096439  0.30736891  0.69612774  1  0.101956  0  0.11722  0.106083  0  0.993356  0
H  H64  1  0.86682882  0.80493927  0.59772674  1  0.061752  0  0.1138  0.10223  0  1.011336  0
H  H65  1  0.75545617  0.65776457  0.25407545  1  0.089534  0  0.117431  0.107354  0  0.992273  0
H  H66  1  0.37138322  0.94368767  0.93777957  1  0.04817  0  0.087481  0.07174  0  1.013221  0
H  H67  1  0.63581617  0.05225117  0.82790162  1  0.045685  0  0.091881  0.079263  0  1.001179  0
H  H68  1  0.00469302  0.43372649  0.06068204  1  0.061552  0  0.087528  0.072204  0  1.012724  0
H  H69  1  0.22537055  0.80787329  0.17335564  1  0.042269  0  0.091663  0.079307  0  1.001736  0
H  H70  1  0.83841633  0.46338083  0.66465437  1  0.132479  0  0.112909  0.105882  0  1.022237  0
H  H71  1  0.45140088  0.14304411  0.93505766  1  0.021145  0  0.085817  0.06763  0  1.014076  0
H  H72  1  0.55633701  0.85465706  0.83036436  1  0.040372  0  0.089262  0.072217  0  1.006206  0
H  H73  1  0.20793730  0.51654026  0.06433822  1  0.026906  0  0.085656  0.067424  0  1.013443  0
H  H74  1  0.02420279  0.72587489  0.17000040  1  0.044198  0  0.089202  0.072085  0  1.005935  0
H  H75  1  0.20699945  0.26932284  0.40230646  1  0.084834  0  0.114087  0.102491  0  1.011516  0
H  H76  1  0.41007868  0.03702028  0.72292343  1  0.050921  0  0.085195  0.07618  0  1.024698  0
H  H77  1  0.60001786  0.96150720  0.04346252  1  0.069868  0  0.087276  0.074524  0  1.013824  0
H  H78  1  0.31458514  0.68696159  0.27686399  1  0.065568  0  0.085049  0.075739  0  1.026166  0
H  H79  1  0.91737861  0.55692375  0.95647587  1  0.057972  0  0.08704  0.074348  0  1.012721  0
H  H80  1  0.52105449  0.44662430  0.61822699  1  0.091522  0  0.105729  0.118321  0  0.980983  0
H  H81  1  0.50385304  0.31275808  0.42401285  1  0.054725  0  0.10361  0.11248  0  0.988156  0
H  H82  1  0.82947743  0.90241725  0.38208029  1  0.088497  0  0.105877  0.119169  0  0.980416  0
H  H83  1  0.88971718  0.08117891  0.57659715  1  0.065396  0  0.103933  0.113143  0  0.988066  0
H  H84  1  0.86171250  0.67282927  0.70017766  1  0.046072  0  0.098295  0.094185  0  1.014283  0
H  H85  1  0.99048191  0.79377413  0.76832078  1  0.03595  0  0.09869  0.093143  0  1.00785  0
H  H86  1  0.88925629  0.78889361  0.80655212  1  0.06832  0  0.114392  0.124035  0  0.960746  0
H  H87  1  0.26297971  0.51569957  0.25593971  1  0.073697  0  0.10291  0.107739  0  1.019975  0
H  H88  1  0.13946948  0.39004220  0.18231846  1  0.040379  0  0.096014  0.08917  0  1.005868  0
H  H89  1  0.27879135  0.40791646  0.28766083  1  0.041365  0  0.105891  0.108151  0  0.976391  0
H  H90  1  0.97233533  0.16149813  0.30041408  1  0.038549  0  0.098567  0.094942  0  1.013636  0
H  H91  1  0.02616519  0.22161046  0.23284264  1  0.054041  0  0.098459  0.093535  0  1.00828  0
H  H92  1  0.98197996  0.08225354  0.19417454  1  0.08878  0  0.114036  0.123257  0  0.96173  0
H  H93  1  0.25921322  0.00631183  0.74408359  1  0.079015  0  0.102893  0.107801  0  1.020858  0
H  H94  1  0.20616809  0.95618085  0.81673653  1  0.041334  0  0.095965  0.088885  0  1.006358  0
H  H95  1  0.11882191  0.98981993  0.71134067  1  0.065067  0  0.105617  0.107537  0  0.977219  0
N  N96  1  0.93891790  0.32065807  0.46480750  1  -0.76986  0  -0.283474  -0.189721  0  3.62538  0
N  N97  1  0.00152978  0.55478300  0.36863247  1  -0.783585  0  -0.2915  -0.188844  0  3.618656  0
N  N98  1  0.79908776  0.34605521  0.21668613  1  -0.864649  0  -0.289202  -0.190479  0  3.570315  0
N  N99  1  0.18569272  0.63279977  0.63101867  1  -0.773711  0  -0.29029  -0.18591  0  3.612699  0
N  N100  1  0.13002607  0.58299050  0.78382647  1  -0.821672  0  -0.289152  -0.189915  0  3.573535  0
N  N101  1  0.05999932  0.63583661  0.76602287  1  -0.812162  0  -0.287792  -0.302758  0  3.489424  0
N  N102  1  0.06916240  0.50168665  0.38442846  1  -0.787848  0  -0.295829  -0.278664  0  3.602912  0
N  N103  1  0.86989759  0.29399692  0.23472484  1  -0.77172  0  -0.288566  -0.302447  0  3.491958  0
N  N104  1  0.86007906  0.66538141  0.49842643  1  -0.782152  0  -0.271526  -0.180269  0  3.542653  0
N  N105  1  0.11646771  0.68431366  0.61503222  1  -0.809385  0  -0.29721  -0.279922  0  3.608357  0
N  N106  1  0.78456164  0.42752461  0.42189081  1  -0.810818  0  -0.275278  -0.174003  0  3.617188  0
N  N107  1  0.22989794  0.43608355  0.61097189  1  -0.776439  0  -0.268355  -0.170137  0  3.554029  0
N  N108  1  0.00545934  0.36310221  0.57812677  1  -0.808672  0  -0.27481  -0.172445  0  3.617181  0
N  N109  1  0.82445040  0.61875141  0.38907990  1  -0.793287  0  -0.268286  -0.171031  0  3.551658  0
N  N110  1  0.85578158  0.47440877  0.53520749  1  -0.767387  0  -0.284092  -0.189922  0  3.628943  0
N  N111  1  0.16696961  0.36248503  0.50152259  1  -0.79108  0  -0.272054  -0.179996  0  3.548182  0
O  O112  1  0.98888446  0.71510929  0.86623101  1  -1.083502  0  -0.185728  -0.165035  0  2.543383  0
O  O113  1  0.20163100  0.47610769  0.34941156  1  -1.09079  0  -0.195105  -0.189258  0  2.581863  0
O  O114  1  0.84874911  0.12265732  0.13437057  1  -1.083723  0  -0.186285  -0.165381  0  2.542075  0
O  O115  1  0.12579922  0.85139054  0.64966909  1  -1.0946  0  -0.194659  -0.189104  0  2.582906  0
Zn  Zn116  1  0.01770925  0.36674971  0.39356536  1  1.189786  0  0.74091  0.618798  0  2.523165  0
Zn  Zn117  1  0.97267025  0.62442871  0.60683295  1  1.190375  0  0.740439  0.618481  0  2.523667  0
Zn  Zn118  1  0.14293115  0.50558852  0.65914415  1  1.191699  0  0.740589  0.621461  0  2.431992  0
Zn  Zn119  1  0.84601717  0.48390638  0.34100327  1  1.19096  0  0.741126  0.623824  0  2.427715  0
