# generated using pymatgen
data_H4PbC5N2O5
_symmetry_space_group_name_H-M   'P 1'
_cell_length_a   6.45994683
_cell_length_b   7.05706064
_cell_length_c   16.63354622
_cell_angle_alpha   90.00208912
_cell_angle_beta   89.99845190
_cell_angle_gamma   111.19745291
_symmetry_Int_Tables_number   1
_chemical_formula_structural   H4PbC5N2O5
_chemical_formula_sum   'H16 Pb4 C20 N8 O20'
_cell_volume   706.98777028
_cell_formula_units_Z   4
loop_
 _symmetry_equiv_pos_site_id
 _symmetry_equiv_pos_as_xyz
  1  'x, y, z'
loop_
 _atom_site_type_symbol
 _atom_site_label
 _atom_site_symmetry_multiplicity
 _atom_site_fract_x
 _atom_site_fract_y
 _atom_site_fract_z
 _atom_site_occupancy
 _atom_site_hle17_bader_spin_density
 _atom_site_hle17_ddec_charge
 _atom_site_hle17_ddec_spin_density
 _atom_site_hle17_ddec_sum_bond_order
 _atom_site_hle17_magmom
 _atom_site_hse06_10hf_bader_spin_density
 _atom_site_hse06_10hf_ddec_charge
 _atom_site_hse06_10hf_ddec_spin_density
 _atom_site_hse06_10hf_ddec_sum_bond_order
 _atom_site_hse06_10hf_magmom
 _atom_site_hse06_bader_spin_density
 _atom_site_hse06_ddec_charge
 _atom_site_hse06_ddec_spin_density
 _atom_site_hse06_ddec_sum_bond_order
 _atom_site_hse06_magmom
 _atom_site_pbe_bader_spin_density
 _atom_site_pbe_cm5_charge
 _atom_site_pbe_ddec_charge
 _atom_site_pbe_ddec_spin_density
 _atom_site_pbe_ddec_sum_bond_order
 _atom_site_pbe_magmom
H  H0  1  0.74803572  0.93832073  0.27713159  1  0  0.089833  0  0.928754  0  0  0.095901  0  0.997838  0  0  0.099941  0  0.991461  0  0  0.12026  0.092923  0  1.002443  0
H  H1  1  0.75193354  0.06167472  0.77714465  1  0  0.089869  0  0.928853  0  0  0.095914  0  0.997987  0  0  0.099959  0  0.991596  0  0  0.120256  0.092955  0  1.002552  0
H  H2  1  0.25209829  0.06168021  0.72291613  1  0  0.089741  0  0.928998  0  0  0.095834  0  0.998146  0  0  0.099874  0  0.991761  0  0  0.120217  0.092905  0  1.002623  0
H  H3  1  0.24790907  0.93831748  0.22291570  1  0  0.089924  0  0.928948  0  0  0.09597  0  0.998084  0  0  0.100015  0  0.991689  0  0  0.120226  0.093017  0  1.00262  0
H  H4  1  0.92978674  0.57193513  0.13952881  1  0  0.330314  0  0.905916  0  0  0.309485  0  0.967625  0  0  0.319505  0  0.959228  0  0  0.311076  0.302382  0  0.973699  0
H  H5  1  0.57028147  0.42814632  0.63954153  1  0  0.32986  0  0.906183  0  0  0.30912  0  0.967826  0  0  0.319116  0  0.959439  0  0  0.311012  0.302035  0  0.973883  0
H  H6  1  0.07017376  0.42814358  0.86049667  1  0  0.329956  0  0.906043  0  0  0.309303  0  0.967407  0  0  0.31932  0  0.959005  0  0  0.310991  0.302199  0  0.973506  0
H  H7  1  0.42986816  0.57181202  0.36046351  1  0  0.329841  0  0.906286  0  0  0.309374  0  0.96754  0  0  0.319361  0  0.95915  0  0  0.311058  0.302304  0  0.973604  0
H  H8  1  0.97244863  0.72144861  0.01898971  1  0  0.438353  0  0.854264  0  0  0.405612  0  0.924225  0  0  0.416743  0  0.908071  0  0  0.302186  0.397756  0  0.935619  0
H  H9  1  0.52757560  0.27866379  0.51900757  1  0  0.438159  0  0.854136  0  0  0.40555  0  0.924202  0  0  0.416669  0  0.90807  0  0  0.302178  0.397694  0  0.935595  0
H  H10  1  0.02731702  0.27865012  0.98097505  1  0  0.438279  0  0.854041  0  0  0.405699  0  0.923991  0  0  0.416833  0  0.907836  0  0  0.302333  0.397836  0  0.935392  0
H  H11  1  0.47257560  0.72134929  0.48099447  1  0  0.438277  0  0.853911  0  0  0.405726  0  0.923924  0  0  0.416855  0  0.907773  0  0  0.302415  0.39787  0  0.935317  0
H  H12  1  0.05005469  0.88874239  0.08478705  1  0  0.43154  0  0.872263  0  0  0.396832  0  0.942863  0  0  0.408128  0  0.926638  0  0  0.296709  0.38883  0  0.954336  0
H  H13  1  0.44992569  0.11125780  0.58480904  1  0  0.431497  0  0.87234  0  0  0.396778  0  0.942924  0  0  0.40809  0  0.926686  0  0  0.296809  0.388776  0  0.954394  0
H  H14  1  0.94961763  0.11123025  0.91517470  1  0  0.43146  0  0.872355  0  0  0.396785  0  0.942907  0  0  0.40809  0  0.926655  0  0  0.296827  0.388782  0  0.954384  0
H  H15  1  0.55031450  0.88879622  0.41519239  1  0  0.431516  0  0.872271  0  0  0.396843  0  0.942828  0  0  0.40814  0  0.926587  0  0  0.296882  0.388855  0  0.954296  0
Pb  Pb16  1  0.54399207  0.77803326  0.06947816  1  0  1.406437  0  1.357243  0  0  1.216555  0  1.752299  0  0  1.277564  0  1.707062  0  0  0.664822  1.171866  0  1.784507  0
Pb  Pb17  1  0.95587201  0.22217357  0.56949337  1  0  1.406055  0  1.358691  0  0  1.216167  0  1.753952  0  0  1.277109  0  1.708717  0  0  0.66441  1.171518  0  1.78617  0
Pb  Pb18  1  0.45540707  0.22190628  0.93054612  1  0  1.406095  0  1.358368  0  0  1.216262  0  1.753498  0  0  1.27723  0  1.708284  0  0  0.664624  1.171613  0  1.785696  0
Pb  Pb19  1  0.04460473  0.77789536  0.43055676  1  0  1.405806  0  1.359341  0  0  1.215899  0  1.754644  0  0  1.276805  0  1.709432  0  0  0.664307  1.171283  0  1.78683  0
C  C20  1  0.91485475  0.45425066  0.25543590  1  0  0.603227  0  3.826879  0  0  0.547997  0  4.118758  0  0  0.580947  0  4.118752  0  0  0.228668  0.525959  0  4.118187  0
C  C21  1  0.58520137  0.54581334  0.75541725  1  0  0.603078  0  3.827108  0  0  0.54798  0  4.118758  0  0  0.580942  0  4.118753  0  0  0.228749  0.525949  0  4.118187  0
C  C22  1  0.08512270  0.54569118  0.74456614  1  0  0.603201  0  3.826317  0  0  0.548264  0  4.117605  0  0  0.581195  0  4.117597  0  0  0.228896  0.526224  0  4.117034  0
C  C23  1  0.41486707  0.45424090  0.24457396  1  0  0.603519  0  3.826382  0  0  0.548382  0  4.118128  0  0  0.581315  0  4.118104  0  0  0.228779  0.526333  0  4.117575  0
C  C24  1  0.85617732  0.26117271  0.29578135  1  0  -0.365759  0  3.745046  0  0  -0.348261  0  4.012421  0  0  -0.374486  0  4.033563  0  0  -0.061493  -0.331304  0  3.998564  0
C  C25  1  0.64391187  0.73885714  0.79578159  1  0  -0.365712  0  3.7449  0  0  -0.348078  0  4.012032  0  0  -0.374401  0  4.033326  0  0  -0.061536  -0.331118  0  3.998158  0
C  C26  1  0.14401168  0.73877950  0.70419363  1  0  -0.364986  0  3.744225  0  0  -0.347599  0  4.011631  0  0  -0.37383  0  4.032876  0  0  -0.061072  -0.330652  0  3.997785  0
C  C27  1  0.35595071  0.26117760  0.20420602  1  0  -0.365641  0  3.744409  0  0  -0.348  0  4.011853  0  0  -0.374238  0  4.033103  0  0  -0.061318  -0.331035  0  3.997976  0
C  C28  1  0.79569353  0.08667044  0.24805252  1  0  0.239499  0  3.722074  0  0  0.189892  0  3.991805  0  0  0.210914  0  4.002151  0  0  0.065843  0.176191  0  3.984503  0
C  C29  1  0.70435532  0.91335360  0.74804792  1  0  0.239238  0  3.721846  0  0  0.189528  0  3.991605  0  0  0.210572  0  4.001962  0  0  0.065794  0.175827  0  3.984326  0
C  C30  1  0.20438605  0.91327127  0.75193749  1  0  0.238972  0  3.722002  0  0  0.189188  0  3.992048  0  0  0.2102  0  4.002389  0  0  0.06571  0.175498  0  3.984764  0
C  C31  1  0.29558177  0.08668561  0.25195592  1  0  0.239019  0  3.721931  0  0  0.189313  0  3.991773  0  0  0.210329  0  4.002108  0  0  0.06594  0.175618  0  3.984472  0
C  C32  1  0.84220632  0.26280057  0.12798253  1  0  0.722748  0  3.88132  0  0  0.661118  0  4.176257  0  0  0.696074  0  4.172719  0  0  0.328111  0.637632  0  4.177839  0
C  C33  1  0.65782319  0.73726200  0.62795564  1  0  0.722269  0  3.881949  0  0  0.660683  0  4.176854  0  0  0.695654  0  4.173292  0  0  0.32796  0.637203  0  4.178432  0
C  C34  1  0.15754973  0.73718412  0.87202491  1  0  0.722186  0  3.882612  0  0  0.660376  0  4.177496  0  0  0.695336  0  4.173977  0  0  0.327749  0.636909  0  4.179058  0
C  C35  1  0.34242137  0.26276009  0.37205120  1  0  0.722111  0  3.882568  0  0  0.660385  0  4.177662  0  0  0.69535  0  4.174121  0  0  0.327609  0.636904  0  4.179242  0
C  C36  1  0.85340620  0.23863255  0.38358327  1  0  0.702498  0  3.908769  0  0  0.641975  0  4.204832  0  0  0.680091  0  4.197391  0  0  0.206713  0.616073  0  4.208994  0
C  C37  1  0.64664182  0.76137670  0.88359526  1  0  0.70264  0  3.908728  0  0  0.642161  0  4.204671  0  0  0.680297  0  4.197235  0  0  0.206788  0.616257  0  4.208846  0
C  C38  1  0.14698002  0.76139544  0.61639111  1  0  0.703586  0  3.907498  0  0  0.642997  0  4.203727  0  0  0.681099  0  4.196267  0  0  0.207172  0.617091  0  4.207906  0
C  C39  1  0.35297353  0.23862795  0.11639716  1  0  0.704076  0  3.906994  0  0  0.643295  0  4.20345  0  0  0.681394  0  4.195981  0  0  0.207213  0.617389  0  4.207628  0
N  N40  1  0.90487837  0.43960521  0.17214389  1  0  -0.515416  0  3.245326  0  0  -0.448865  0  3.482404  0  0  -0.474858  0  3.485027  0  0  -0.383876  -0.431467  0  3.480524  0
N  N41  1  0.59510919  0.56048893  0.67214045  1  0  -0.514986  0  3.245533  0  0  -0.448529  0  3.482505  0  0  -0.474514  0  3.485164  0  0  -0.383767  -0.43116  0  3.480598  0
N  N42  1  0.09481666  0.56038565  0.82786115  1  0  -0.515605  0  3.245384  0  0  -0.44874  0  3.481641  0  0  -0.474679  0  3.484187  0  0  -0.383743  -0.431362  0  3.479762  0
N  N43  1  0.40512616  0.43952556  0.32786038  1  0  -0.5153  0  3.245284  0  0  -0.448912  0  3.482202  0  0  -0.474895  0  3.48488  0  0  -0.383697  -0.431544  0  3.480292  0
N  N44  1  0.78736100  0.08225830  0.16791806  1  0  -0.551562  0  3.104697  0  0  -0.483644  0  3.377121  0  0  -0.51491  0  3.390307  0  0  -0.337373  -0.46237  0  3.367596  0
N  N45  1  0.71270203  0.91778683  0.66790146  1  0  -0.551325  0  3.104352  0  0  -0.483382  0  3.376717  0  0  -0.514631  0  3.389877  0  0  -0.337368  -0.462128  0  3.367212  0
N  N46  1  0.21252560  0.91770038  0.83207977  1  0  -0.551081  0  3.104959  0  0  -0.483142  0  3.377511  0  0  -0.514413  0  3.39072  0  0  -0.337295  -0.461884  0  3.367984  0
N  N47  1  0.28745202  0.08224906  0.33209757  1  0  -0.551213  0  3.105222  0  0  -0.48325  0  3.377676  0  0  -0.514511  0  3.39088  0  0  -0.337392  -0.461987  0  3.368138  0
O  O48  1  0.97192318  0.62957337  0.28547699  1  0  -0.605855  0  1.954207  0  0  -0.545957  0  2.195994  0  0  -0.572453  0  2.187617  0  0  -0.292405  -0.527149  0  2.200941  0
O  O49  1  0.52813356  0.37044983  0.78543250  1  0  -0.605994  0  1.95294  0  0  -0.546344  0  2.194813  0  0  -0.572872  0  2.186506  0  0  -0.292841  -0.527542  0  2.199771  0
O  O50  1  0.02810257  0.37033799  0.71454007  1  0  -0.605804  0  1.953916  0  0  -0.546165  0  2.195749  0  0  -0.572653  0  2.187352  0  0  -0.292599  -0.527409  0  2.200836  0
O  O51  1  0.47198578  0.62961956  0.21456051  1  0  -0.605984  0  1.953308  0  0  -0.546279  0  2.195261  0  0  -0.572777  0  2.186878  0  0  -0.292676  -0.527493  0  2.200298  0
O  O52  1  0.80186575  0.05946343  0.41372954  1  0  -0.747239  0  2.078303  0  0  -0.670067  0  2.317007  0  0  -0.702403  0  2.310132  0  0  -0.314319  -0.647158  0  2.321197  0
O  O53  1  0.69815169  0.94055525  0.91375663  1  0  -0.747534  0  2.078585  0  0  -0.670293  0  2.317218  0  0  -0.702666  0  2.31038  0  0  -0.314357  -0.647317  0  2.321294  0
O  O54  1  0.19846252  0.94054334  0.58625566  1  0  -0.747669  0  2.078634  0  0  -0.670365  0  2.317329  0  0  -0.702728  0  2.310557  0  0  -0.314464  -0.647418  0  2.321408  0
O  O55  1  0.30144379  0.05942662  0.08625502  1  0  -0.748336  0  2.078018  0  0  -0.670831  0  2.316704  0  0  -0.703275  0  2.310048  0  0  -0.314753  -0.647859  0  2.320792  0
O  O56  1  0.90299520  0.39297311  0.43021178  1  0  -0.680364  0  2.042134  0  0  -0.597156  0  2.286759  0  0  -0.630126  0  2.27866  0  0  -0.291447  -0.573795  0  2.291557  0
O  O57  1  0.59702243  0.60703894  0.93021144  1  0  -0.680199  0  2.041935  0  0  -0.597221  0  2.286582  0  0  -0.630184  0  2.278497  0  0  -0.291416  -0.573866  0  2.291373  0
O  O58  1  0.09750603  0.60706385  0.56974276  1  0  -0.68083  0  2.041325  0  0  -0.597916  0  2.286528  0  0  -0.630903  0  2.278472  0  0  -0.291521  -0.574535  0  2.291303  0
O  O59  1  0.40244661  0.39293244  0.06976534  1  0  -0.680592  0  2.041149  0  0  -0.597791  0  2.286479  0  0  -0.630762  0  2.278429  0  0  -0.291395  -0.574422  0  2.291252  0
O  O60  1  0.83330079  0.26998863  0.05235231  1  0  -0.674716  0  1.970222  0  0  -0.62036  0  2.209826  0  0  -0.644796  0  2.199762  0  0  -0.307492  -0.603073  0  2.216341  0
O  O61  1  0.66666207  0.72995094  0.55232888  1  0  -0.67411  0  1.970658  0  0  -0.619889  0  2.21036  0  0  -0.64432  0  2.200297  0  0  -0.307252  -0.602607  0  2.216866  0
O  O62  1  0.16637086  0.73001746  0.94765273  1  0  -0.673946  0  1.971067  0  0  -0.619561  0  2.210741  0  0  -0.644014  0  2.200703  0  0  -0.306983  -0.602269  0  2.217236  0
O  O63  1  0.33365802  0.27001174  0.44767917  1  0  -0.673807  0  1.970787  0  0  -0.619565  0  2.210678  0  0  -0.644004  0  2.200645  0  0  -0.30693  -0.602272  0  2.21715  0
O  O64  1  0.92285932  0.75980920  0.07136017  1  0  -0.823818  0  1.898693  0  0  -0.75116  0  2.087774  0  0  -0.775851  0  2.055737  0  0  -0.536265  -0.733474  0  2.110211  0
O  O65  1  0.57718833  0.24009185  0.57133817  1  0  -0.823341  0  1.899179  0  0  -0.750746  0  2.088611  0  0  -0.775462  0  2.056563  0  0  -0.536062  -0.733029  0  2.110973  0
O  O66  1  0.07692125  0.24002644  0.92864607  1  0  -0.82304  0  1.899351  0  0  -0.750595  0  2.088544  0  0  -0.775298  0  2.056495  0  0  -0.536089  -0.732913  0  2.110997  0
O  O67  1  0.42311004  0.75993320  0.42862900  1  0  -0.822918  0  1.899346  0  0  -0.750482  0  2.088556  0  0  -0.775142  0  2.056498  0  0  -0.536099  -0.732844  0  2.110973  0
