# generated using pymatgen
data_CdH4(C2O3)2
_symmetry_space_group_name_H-M   'P 1'
_cell_length_a   8.52944360
_cell_length_b   8.52942366
_cell_length_c   8.52938927
_cell_angle_alpha   89.37947017
_cell_angle_beta   89.38002904
_cell_angle_gamma   89.37892682
_symmetry_Int_Tables_number   1
_chemical_formula_structural   CdH4(C2O3)2
_chemical_formula_sum   'Cd3 H12 C12 O18'
_cell_volume   620.41523713
_cell_formula_units_Z   3
loop_
 _symmetry_equiv_pos_site_id
 _symmetry_equiv_pos_as_xyz
  1  'x, y, z'
loop_
 _atom_site_type_symbol
 _atom_site_label
 _atom_site_symmetry_multiplicity
 _atom_site_fract_x
 _atom_site_fract_y
 _atom_site_fract_z
 _atom_site_occupancy
 _atom_site_hle17_bader_spin_density
 _atom_site_hle17_ddec_charge
 _atom_site_hle17_ddec_spin_density
 _atom_site_hle17_ddec_sum_bond_order
 _atom_site_hle17_magmom
 _atom_site_hse06_10hf_bader_spin_density
 _atom_site_hse06_10hf_ddec_charge
 _atom_site_hse06_10hf_ddec_spin_density
 _atom_site_hse06_10hf_ddec_sum_bond_order
 _atom_site_hse06_10hf_magmom
 _atom_site_hse06_bader_spin_density
 _atom_site_hse06_ddec_charge
 _atom_site_hse06_ddec_spin_density
 _atom_site_hse06_ddec_sum_bond_order
 _atom_site_hse06_magmom
 _atom_site_pbe_bader_spin_density
 _atom_site_pbe_cm5_charge
 _atom_site_pbe_ddec_charge
 _atom_site_pbe_ddec_spin_density
 _atom_site_pbe_ddec_sum_bond_order
 _atom_site_pbe_magmom
Cd  Cd0  1  0.50000260  0.99999796  0.99999980  1  0  1.255735  0  1.607155  0  0  1.06795  0  2.068098  0  0  1.124221  0  2.007139  0  0  0.773936  1.027295  0  2.110313  0
Cd  Cd1  1  0.00000089  0.50000324  0.00000648  1  0  1.255747  0  1.607265  0  0  1.067984  0  2.068208  0  0  1.124261  0  2.007227  0  0  0.773921  1.027331  0  2.110414  0
Cd  Cd2  1  0.00000328  0.00000447  0.50000093  1  0  1.255714  0  1.607381  0  0  1.067942  0  2.068346  0  0  1.124217  0  2.007375  0  0  0.773872  1.027293  0  2.110552  0
H  H3  1  0.24641998  0.06780510  0.80963697  1  0  0.42262  0  0.878651  0  0  0.390102  0  0.943962  0  0  0.401337  0  0.927863  0  0  0.290294  0.382109  0  0.955375  0
H  H4  1  0.80964088  0.24641686  0.06780492  1  0  0.422691  0  0.878538  0  0  0.390186  0  0.943828  0  0  0.401421  0  0.927732  0  0  0.290305  0.382194  0  0.95524  0
H  H5  1  0.06781127  0.80964341  0.24641889  1  0  0.42266  0  0.878592  0  0  0.390165  0  0.943866  0  0  0.401399  0  0.92777  0  0  0.290314  0.382172  0  0.955279  0
H  H6  1  0.75358420  0.93219448  0.19036332  1  0  0.422744  0  0.878521  0  0  0.390278  0  0.943733  0  0  0.4015  0  0.92766  0  0  0.290403  0.382285  0  0.955149  0
H  H7  1  0.19036687  0.75358161  0.93220119  1  0  0.422735  0  0.878535  0  0  0.390263  0  0.943763  0  0  0.401492  0  0.927676  0  0  0.290384  0.382266  0  0.955182  0
H  H8  1  0.93219502  0.19037026  0.75358229  1  0  0.422726  0  0.878544  0  0  0.390258  0  0.943763  0  0  0.401485  0  0.92768  0  0  0.290361  0.382267  0  0.955175  0
H  H9  1  0.24500733  0.19487887  0.94942163  1  0  0.426132  0  0.874308  0  0  0.394195  0  0.938228  0  0  0.40533  0  0.922284  0  0  0.29218  0.386276  0  0.949544  0
H  H10  1  0.94942283  0.24500898  0.19488430  1  0  0.426177  0  0.874235  0  0  0.394205  0  0.938227  0  0  0.405339  0  0.922284  0  0  0.292169  0.386284  0  0.949547  0
H  H11  1  0.19488908  0.94942651  0.24500941  1  0  0.426102  0  0.874327  0  0  0.39416  0  0.938262  0  0  0.405294  0  0.922319  0  0  0.292149  0.38624  0  0.949577  0
H  H12  1  0.75499926  0.80511722  0.05057986  1  0  0.426124  0  0.874317  0  0  0.394185  0  0.938246  0  0  0.40532  0  0.922301  0  0  0.292201  0.386273  0  0.949545  0
H  H13  1  0.05058128  0.75499888  0.80512640  1  0  0.426254  0  0.874169  0  0  0.394323  0  0.938079  0  0  0.405458  0  0.922135  0  0  0.292224  0.386409  0  0.949385  0
H  H14  1  0.80512441  0.05058023  0.75499998  1  0  0.426159  0  0.874292  0  0  0.394221  0  0.938214  0  0  0.405356  0  0.92227  0  0  0.292196  0.386301  0  0.94953  0
C  C15  1  0.44983495  0.61181412  0.98991350  1  0  0.199125  0  3.871774  0  0  0.176401  0  4.147108  0  0  0.18859  0  4.161527  0  0  0.10116  0.168056  0  4.13714  0
C  C16  1  0.98992191  0.44984288  0.61182340  1  0  0.19914  0  3.871781  0  0  0.176398  0  4.147099  0  0  0.188579  0  4.161519  0  0  0.101208  0.16806  0  4.137128  0
C  C17  1  0.61180648  0.98991798  0.44984332  1  0  0.198842  0  3.87148  0  0  0.176121  0  4.146814  0  0  0.188309  0  4.161233  0  0  0.101062  0.167775  0  4.13685  0
C  C18  1  0.55016688  0.38818068  0.01007401  1  0  0.199136  0  3.871593  0  0  0.176385  0  4.146919  0  0  0.188576  0  4.161335  0  0  0.101239  0.168044  0  4.13695  0
C  C19  1  0.01007739  0.55017200  0.38818844  1  0  0.199267  0  3.871522  0  0  0.176511  0  4.146834  0  0  0.188702  0  4.161249  0  0  0.101224  0.168154  0  4.13687  0
C  C20  1  0.38819661  0.01007810  0.55016057  1  0  0.198889  0  3.871435  0  0  0.176171  0  4.146745  0  0  0.188363  0  4.161163  0  0  0.101069  0.167824  0  4.136771  0
C  C21  1  0.61142578  0.54923824  0.00035274  1  0  0.20162  0  3.874204  0  0  0.17889  0  4.149197  0  0  0.191153  0  4.163501  0  0  0.102384  0.170482  0  4.139308  0
C  C22  1  0.00035769  0.61142825  0.54924759  1  0  0.20158  0  3.874189  0  0  0.178916  0  4.149088  0  0  0.191178  0  4.163394  0  0  0.10245  0.170513  0  4.1392  0
C  C23  1  0.54924851  0.00035354  0.61143254  1  0  0.201881  0  3.874435  0  0  0.179142  0  4.149403  0  0  0.191404  0  4.163709  0  0  0.102518  0.170743  0  4.139511  0
C  C24  1  0.38858188  0.45076133  0.99964163  1  0  0.201728  0  3.874109  0  0  0.179011  0  4.149077  0  0  0.191272  0  4.163385  0  0  0.102484  0.170601  0  4.139196  0
C  C25  1  0.99964290  0.38858197  0.45077017  1  0  0.201565  0  3.874351  0  0  0.178875  0  4.14928  0  0  0.191137  0  4.163588  0  0  0.102466  0.170473  0  4.139389  0
C  C26  1  0.45076156  0.99964253  0.38856302  1  0  0.201969  0  3.874638  0  0  0.179242  0  4.149603  0  0  0.191504  0  4.163907  0  0  0.102599  0.170836  0  4.139717  0
O  O27  1  0.38763814  0.74636527  0.97675803  1  0  -0.52272  0  2.146867  0  0  -0.456612  0  2.384693  0  0  -0.481804  0  2.378514  0  0  -0.2948  -0.438814  0  2.388449  0
O  O28  1  0.97675552  0.38764101  0.74637470  1  0  -0.522778  0  2.146918  0  0  -0.456696  0  2.384777  0  0  -0.481877  0  2.378591  0  0  -0.294878  -0.438912  0  2.388541  0
O  O29  1  0.74638123  0.97675689  0.38763229  1  0  -0.522818  0  2.14655  0  0  -0.456694  0  2.38438  0  0  -0.48189  0  2.378202  0  0  -0.294845  -0.438897  0  2.388147  0
O  O30  1  0.61236726  0.25362841  0.02323531  1  0  -0.522787  0  2.146949  0  0  -0.456611  0  2.384751  0  0  -0.481807  0  2.378567  0  0  -0.294851  -0.438817  0  2.388513  0
O  O31  1  0.02324392  0.61236803  0.25364192  1  0  -0.522693  0  2.14681  0  0  -0.456558  0  2.384632  0  0  -0.481753  0  2.37845  0  0  -0.294832  -0.438751  0  2.388384  0
O  O32  1  0.25363001  0.02324157  0.61236790  1  0  -0.522745  0  2.146695  0  0  -0.456592  0  2.384512  0  0  -0.481792  0  2.378328  0  0  -0.294785  -0.438783  0  2.38826  0
O  O33  1  0.74532524  0.61095163  0.00038054  1  0  -0.523673  0  2.165134  0  0  -0.457564  0  2.404788  0  0  -0.482751  0  2.398138  0  0  -0.295381  -0.439757  0  2.408851  0
O  O34  1  0.00039185  0.74533679  0.61096510  1  0  -0.523717  0  2.164985  0  0  -0.457646  0  2.404617  0  0  -0.482839  0  2.397968  0  0  -0.295416  -0.439839  0  2.408686  0
O  O35  1  0.61095820  0.00037888  0.74532253  1  0  -0.523664  0  2.165257  0  0  -0.457555  0  2.404886  0  0  -0.482741  0  2.39824  0  0  -0.295366  -0.439749  0  2.408953  0
O  O36  1  0.25467075  0.38904553  0.99961642  1  0  -0.523753  0  2.164937  0  0  -0.457647  0  2.404576  0  0  -0.482841  0  2.397927  0  0  -0.295407  -0.439834  0  2.408648  0
O  O37  1  0.99961331  0.25467931  0.38904896  1  0  -0.52372  0  2.165202  0  0  -0.457612  0  2.404855  0  0  -0.482803  0  2.398208  0  0  -0.295448  -0.439803  0  2.408923  0
O  O38  1  0.38905075  0.99961843  0.25468358  1  0  -0.52366  0  2.16562  0  0  -0.45758  0  2.405292  0  0  -0.48276  0  2.398641  0  0  -0.295408  -0.439776  0  2.409365  0
O  O39  1  0.26356175  0.08262362  0.92373190  1  0  -0.830954  0  1.888724  0  0  -0.759404  0  2.08398  0  0  -0.783977  0  2.048139  0  0  -0.582847  -0.74202  0  2.10895  0
O  O40  1  0.92373708  0.26356229  0.08262760  1  0  -0.831053  0  1.888561  0  0  -0.759501  0  2.083804  0  0  -0.784072  0  2.047964  0  0  -0.582836  -0.742119  0  2.108776  0
O  O41  1  0.08262404  0.92373444  0.26356302  1  0  -0.830971  0  1.888698  0  0  -0.75944  0  2.083944  0  0  -0.784011  0  2.048105  0  0  -0.582814  -0.742059  0  2.108915  0
O  O42  1  0.73644593  0.91737955  0.07627531  1  0  -0.831075  0  1.888672  0  0  -0.759547  0  2.083909  0  0  -0.784114  0  2.048077  0  0  -0.582975  -0.742167  0  2.108877  0
O  O43  1  0.07627177  0.73644327  0.91738540  1  0  -0.831182  0  1.88859  0  0  -0.759654  0  2.083823  0  0  -0.784224  0  2.047981  0  0  -0.582959  -0.742273  0  2.108797  0
O  O44  1  0.91738238  0.07627341  0.73644296  1  0  -0.831101  0  1.888703  0  0  -0.759569  0  2.083934  0  0  -0.784138  0  2.048097  0  0  -0.582924  -0.742185  0  2.108905  0
