# generated using pymatgen
data_NdH21(C6O5)2
_symmetry_space_group_name_H-M   'P 1'
_cell_length_a   8.62027983
_cell_length_b   9.84757190
_cell_length_c   11.80425447
_cell_angle_alpha   74.96826845
_cell_angle_beta   69.29117962
_cell_angle_gamma   86.59192047
_symmetry_Int_Tables_number   1
_chemical_formula_structural   NdH21(C6O5)2
_chemical_formula_sum   'Nd2 H42 C24 O20'
_cell_volume   904.65649892
_cell_formula_units_Z   2
loop_
 _symmetry_equiv_pos_site_id
 _symmetry_equiv_pos_as_xyz
  1  'x, y, z'
loop_
 _atom_site_type_symbol
 _atom_site_label
 _atom_site_symmetry_multiplicity
 _atom_site_fract_x
 _atom_site_fract_y
 _atom_site_fract_z
 _atom_site_occupancy
 _atom_site_hle17_bader_spin_density
 _atom_site_hle17_ddec_charge
 _atom_site_hle17_ddec_spin_density
 _atom_site_hle17_ddec_sum_bond_order
 _atom_site_hle17_magmom
 _atom_site_hse06_10hf_bader_spin_density
 _atom_site_hse06_10hf_ddec_charge
 _atom_site_hse06_10hf_ddec_spin_density
 _atom_site_hse06_10hf_ddec_sum_bond_order
 _atom_site_hse06_10hf_magmom
 _atom_site_hse06_bader_spin_density
 _atom_site_hse06_ddec_charge
 _atom_site_hse06_ddec_spin_density
 _atom_site_hse06_ddec_sum_bond_order
 _atom_site_hse06_magmom
 _atom_site_pbe_bader_spin_density
 _atom_site_pbe_cm5_charge
 _atom_site_pbe_ddec_charge
 _atom_site_pbe_ddec_spin_density
 _atom_site_pbe_ddec_sum_bond_order
 _atom_site_pbe_magmom
Nd  Nd0  1  0.75168535  0.48597354  0.50169408  1  0  2.294037  0  1.60393  0  0  2.127772  0  2.064387  0  0  2.231016  0  1.912344  0  0  1.474645  2.091743  0  2.099378  0
Nd  Nd1  1  0.24831005  0.51402920  0.49830642  1  0  2.294067  0  1.60392  0  0  2.127813  0  2.064374  0  0  2.231047  0  1.912344  0  0  1.474677  2.091796  0  2.099349  0
H  H2  1  0.22986758  0.27575176  0.86117743  1  0  0.116614  0  0.921789  0  0  0.135308  0  0.975964  0  0  0.136678  0  0.976339  0  0  0.110763  0.134347  0  0.975688  0
H  H3  1  0.77012900  0.72424887  0.13881984  1  0  0.116671  0  0.921731  0  0  0.135359  0  0.975918  0  0  0.136728  0  0.976291  0  0  0.110773  0.134398  0  0.975642  0
H  H4  1  0.19268758  0.45577621  0.83587247  1  0  0.128838  0  0.940325  0  0  0.142833  0  0.997719  0  0  0.145802  0  0.996438  0  0  0.111935  0.140708  0  0.998736  0
H  H5  1  0.80730881  0.54421918  0.16413108  1  0  0.128852  0  0.940346  0  0  0.142841  0  0.997747  0  0  0.14581  0  0.996466  0  0  0.111941  0.140719  0  0.998759  0
H  H6  1  0.39495497  0.47392917  0.95170957  1  0  0.059544  0  0.932212  0  0  0.080756  0  0.989624  0  0  0.081384  0  0.990013  0  0  0.088174  0.080254  0  0.989366  0
H  H7  1  0.60503762  0.52606409  0.04829542  1  0  0.059528  0  0.932212  0  0  0.080728  0  0.989608  0  0  0.081355  0  0.990006  0  0  0.088157  0.080228  0  0.98935  0
H  H8  1  0.39243952  0.28908409  0.99484258  1  0  0.055693  0  0.955971  0  0  0.072944  0  1.020418  0  0  0.073973  0  1.020271  0  0  0.084436  0.072086  0  1.020633  0
H  H9  1  0.60755578  0.71091547  0.00515610  1  0  0.055686  0  0.955961  0  0  0.072876  0  1.020453  0  0  0.073945  0  1.020266  0  0  0.084413  0.07202  0  1.020667  0
H  H10  1  0.08963563  0.47337264  0.05860857  1  0  0.074351  0  0.937203  0  0  0.092469  0  0.998014  0  0  0.093324  0  0.99828  0  0  0.093866  0.091844  0  0.997783  0
H  H11  1  0.91035439  0.52661742  0.94139100  1  0  0.074333  0  0.937285  0  0  0.092493  0  0.998008  0  0  0.093345  0  0.998272  0  0  0.093869  0.091865  0  0.997782  0
H  H12  1  0.07829538  0.28816640  0.10389579  1  0  0.062938  0  0.935624  0  0  0.081956  0  0.99502  0  0  0.082951  0  0.994657  0  0  0.087392  0.081177  0  0.995295  0
H  H13  1  0.92170463  0.71182584  0.89610582  1  0  0.062985  0  0.935524  0  0  0.081993  0  0.994921  0  0  0.082981  0  0.994558  0  0  0.087411  0.081215  0  0.995195  0
H  H14  1  0.29575055  0.46739129  0.17255612  1  0  0.110714  0  0.952881  0  0  0.119942  0  1.023452  0  0  0.122985  0  1.021661  0  0  0.102765  0.117796  0  1.024762  0
H  H15  1  0.70424227  0.53260825  0.82744151  1  0  0.110741  0  0.952908  0  0  0.120037  0  1.023418  0  0  0.12307  0  1.021616  0  0  0.102779  0.117883  0  1.024725  0
H  H16  1  0.25309144  0.28489282  0.23280815  1  0  0.092475  0  0.931635  0  0  0.110572  0  0.989135  0  0  0.112105  0  0.988827  0  0  0.101117  0.109471  0  0.989445  0
H  H17  1  0.74690385  0.71510677  0.76719561  1  0  0.092529  0  0.931601  0  0  0.110628  0  0.989131  0  0  0.112146  0  0.988817  0  0  0.101141  0.109519  0  0.989436  0
H  H18  1  0.70545682  0.97251703  0.55203865  1  0  0.108997  0  0.929025  0  0  0.123387  0  0.987653  0  0  0.12652  0  0.985213  0  0  0.099491  0.120794  0  0.990125  0
H  H19  1  0.29454363  0.02748781  0.44795585  1  0  0.10905  0  0.928987  0  0  0.123467  0  0.987581  0  0  0.126599  0  0.985143  0  0  0.099528  0.120863  0  0.990055  0
H  H20  1  0.69896238  0.97849824  0.70217303  1  0  0.097294  0  0.920901  0  0  0.112965  0  0.980232  0  0  0.115145  0  0.978979  0  0  0.099983  0.11148  0  0.981085  0
H  H21  1  0.30103416  0.02150133  0.29782448  1  0  0.097317  0  0.920885  0  0  0.112966  0  0.980234  0  0  0.115147  0  0.978983  0  0  0.099976  0.111475  0  0.981087  0
H  H22  1  0.95236426  0.86084577  0.60136592  1  0  0.068488  0  0.954689  0  0  0.087375  0  1.014648  0  0  0.087661  0  1.01604  0  0  0.092605  0.087199  0  1.013523  0
H  H23  1  0.04763483  0.13915592  0.39863047  1  0  0.068481  0  0.954695  0  0  0.087346  0  1.014671  0  0  0.087632  0  1.016059  0  0  0.092583  0.087167  0  1.013556  0
H  H24  1  0.00661819  0.01972527  0.62302599  1  0  0.068618  0  0.928587  0  0  0.09023  0  0.982364  0  0  0.091425  0  0.982077  0  0  0.092448  0.08924  0  0.98268  0
H  H25  1  0.99338090  0.98027642  0.37697040  1  0  0.068591  0  0.928566  0  0  0.09019  0  0.982347  0  0  0.091385  0  0.982059  0  0  0.092424  0.089198  0  0.982667  0
H  H26  1  0.96967381  0.69836474  0.25694574  1  0  0.427651  0  0.869308  0  0  0.400203  0  0.928496  0  0  0.409205  0  0.915523  0  0  0.30413  0.393871  0  0.937736  0
H  H27  1  0.03032763  0.30163275  0.74304928  1  0  0.427692  0  0.869234  0  0  0.40023  0  0.928444  0  0  0.409233  0  0.91547  0  0  0.304164  0.393897  0  0.937687  0
H  H28  1  0.52716475  0.74774104  0.52166138  1  0  0.455046  0  0.832971  0  0  0.4247  0  0.894063  0  0  0.436204  0  0.877239  0  0  0.308529  0.416497  0  0.906245  0
H  H29  1  0.47282934  0.25225958  0.47833992  1  0  0.455096  0  0.832903  0  0  0.424748  0  0.893997  0  0  0.436253  0  0.877171  0  0  0.308554  0.416546  0  0.906177  0
H  H30  1  0.55366299  0.70057207  0.64994792  1  0  0.421513  0  0.824338  0  0  0.409041  0  0.871849  0  0  0.416183  0  0.865014  0  0  0.330082  0.403881  0  0.877576  0
H  H31  1  0.44633603  0.29942753  0.35005233  1  0  0.421517  0  0.824345  0  0  0.409046  0  0.871855  0  0  0.416187  0  0.865022  0  0  0.330085  0.403886  0  0.877577  0
H  H32  1  0.98028043  0.73964788  0.37163421  1  0  0.4415  0  0.856094  0  0  0.41167  0  0.91834  0  0  0.422668  0  0.902469  0  0  0.303422  0.403741  0  0.929968  0
H  H33  1  0.01972118  0.26035488  0.62836215  1  0  0.441487  0  0.856121  0  0  0.411654  0  0.918368  0  0  0.422651  0  0.9025  0  0  0.303429  0.403722  0  0.929999  0
H  H34  1  0.74832394  0.94297238  0.98235461  1  0  0.107674  0  0.922269  0  0  0.125634  0  0.978325  0  0  0.127185  0  0.978543  0  0  0.10539  0.124393  0  0.978313  0
H  H35  1  0.25168875  0.05702837  0.01764611  1  0  0.107781  0  0.922177  0  0  0.125653  0  0.978276  0  0  0.127203  0  0.978502  0  0  0.105375  0.124414  0  0.978263  0
H  H36  1  0.65451629  0.02266557  0.10487825  1  0  0.113437  0  0.905358  0  0  0.131277  0  0.956699  0  0  0.133755  0  0.95557  0  0  0.108987  0.129382  0  0.957655  0
H  H37  1  0.34549154  0.97733830  0.89512135  1  0  0.113496  0  0.905354  0  0  0.131282  0  0.95669  0  0  0.133764  0  0.95556  0  0  0.108989  0.129389  0  0.957646  0
H  H38  1  0.94565776  0.10846278  0.07852635  1  0  0.064617  0  0.941148  0  0  0.081281  0  1.004736  0  0  0.082601  0  1.004252  0  0  0.089162  0.080271  0  1.005147  0
H  H39  1  0.05434985  0.89153482  0.92148231  1  0  0.064644  0  0.941092  0  0  0.081263  0  1.004672  0  0  0.082583  0  1.004188  0  0  0.08912  0.080255  0  1.005083  0
H  H40  1  0.90353163  0.92531663  0.13771358  1  0  0.068589  0  0.949606  0  0  0.085412  0  1.012748  0  0  0.087059  0  1.011889  0  0  0.089365  0.084174  0  1.01343  0
H  H41  1  0.09646982  0.07468194  0.86228881  1  0  0.068637  0  0.949543  0  0  0.085437  0  1.012657  0  0  0.087087  0  1.011796  0  0  0.089324  0.084203  0  1.013334  0
H  H42  1  0.62860036  0.26260826  0.82918465  1  0  0.412827  0  0.868234  0  0  0.382067  0  0.946405  0  0  0.394365  0  0.933129  0  0  0.310517  0.373487  0  0.955602  0
H  H43  1  0.37140627  0.73739666  0.17081588  1  0  0.412834  0  0.868203  0  0  0.382077  0  0.946391  0  0  0.394379  0  0.933105  0  0  0.310539  0.373493  0  0.955575  0
C  C44  1  0.43529961  0.40882398  0.73474565  1  0  0.753563  0  3.786688  0  0  0.70669  0  4.081603  0  0  0.741112  0  4.076337  0  0  0.230974  0.683194  0  4.087963  0
C  C45  1  0.56469441  0.59117453  0.26525444  1  0  0.753695  0  3.78668  0  0  0.706819  0  4.081592  0  0  0.74124  0  4.076323  0  0  0.23105  0.683312  0  4.08797  0
C  C46  1  0.28443965  0.37804646  0.85252342  1  0  -0.28036  0  3.653436  0  0  -0.313196  0  3.896075  0  0  -0.319661  0  3.90423  0  0  -0.158732  -0.308591  0  3.889935  0
C  C47  1  0.71555557  0.62195102  0.14747912  1  0  -0.280467  0  3.653464  0  0  -0.313324  0  3.896117  0  0  -0.319789  0  3.904278  0  0  -0.158762  -0.308726  0  3.889993  0
C  C48  1  0.31812050  0.37940725  0.97077949  1  0  -0.07878  0  3.708287  0  0  -0.123472  0  3.974495  0  0  -0.123493  0  3.988708  0  0  -0.168003  -0.123119  0  3.964305  0
C  C49  1  0.68187345  0.62058917  0.02922277  1  0  -0.078792  0  3.708246  0  0  -0.12339  0  3.974346  0  0  -0.123447  0  3.988561  0  0  -0.167963  -0.123038  0  3.964161  0
C  C50  1  0.15999527  0.38023654  0.08229700  1  0  -0.081681  0  3.696069  0  0  -0.123992  0  3.960078  0  0  -0.123962  0  3.973611  0  0  -0.166875  -0.123763  0  3.950441  0
C  C51  1  0.84000105  0.61975674  0.91770619  1  0  -0.081647  0  3.696008  0  0  -0.123911  0  3.95993  0  0  -0.123886  0  3.973443  0  0  -0.166879  -0.123692  0  3.950291  0
C  C52  1  0.20062913  0.38479503  0.19680192  1  0  -0.269105  0  3.684838  0  0  -0.307937  0  3.93985  0  0  -0.313684  0  3.947665  0  0  -0.161913  -0.303946  0  3.934202  0
C  C53  1  0.79936365  0.61520349  0.80320187  1  0  -0.269232  0  3.684901  0  0  -0.308207  0  3.940019  0  0  -0.313892  0  3.947756  0  0  -0.161951  -0.304192  0  3.934346  0
C  C54  1  0.05558175  0.41302922  0.30461355  1  0  0.740851  0  3.826347  0  0  0.695849  0  4.125642  0  0  0.729618  0  4.121144  0  0  0.218009  0.672737  0  4.131899  0
C  C55  1  0.94441475  0.58696931  0.69538590  1  0  0.740941  0  3.826309  0  0  0.695997  0  4.12555  0  0  0.729748  0  4.121047  0  0  0.218095  0.672887  0  4.131786  0
C  C56  1  0.74949272  0.17586505  0.57174802  1  0  0.722559  0  3.823348  0  0  0.677562  0  4.122079  0  0  0.70993  0  4.119501  0  0  0.209733  0.654998  0  4.126373  0
C  C57  1  0.25050389  0.82413663  0.42824986  1  0  0.722638  0  3.823445  0  0  0.677651  0  4.122154  0  0  0.71002  0  4.119573  0  0  0.209718  0.655077  0  4.126449  0
C  C58  1  0.76789580  0.01821823  0.60079851  1  0  -0.259786  0  3.675887  0  0  -0.299817  0  3.932746  0  0  -0.304974  0  3.939649  0  0  -0.16239  -0.295991  0  3.927839  0
C  C59  1  0.23210078  0.98178240  0.39919960  1  0  -0.259888  0  3.675883  0  0  -0.299937  0  3.932729  0  0  -0.305099  0  3.939641  0  0  -0.162423  -0.296087  0  3.927802  0
C  C60  1  0.94908560  0.97582833  0.56994652  1  0  -0.081016  0  3.666485  0  0  -0.120191  0  3.924227  0  0  -0.120572  0  3.938153  0  0  -0.164111  -0.119539  0  3.913989  0
C  C61  1  0.05091609  0.02417652  0.43004681  1  0  -0.080941  0  3.666438  0  0  -0.120056  0  3.924141  0  0  -0.120435  0  3.938066  0  0  -0.164014  -0.119409  0  3.913907  0
C  C62  1  0.76098812  0.16646144  0.92854313  1  0  0.710226  0  3.74509  0  0  0.663602  0  4.049321  0  0  0.695694  0  4.041043  0  0  0.238597  0.641817  0  4.054262  0
C  C63  1  0.23904109  0.83355098  0.07145248  1  0  0.710038  0  3.745174  0  0  0.663526  0  4.049194  0  0  0.69562  0  4.040924  0  0  0.238593  0.641737  0  4.054134  0
C  C64  1  0.76647817  0.02899513  0.02085326  1  0  -0.266724  0  3.688955  0  0  -0.307259  0  3.946937  0  0  -0.312876  0  3.955779  0  0  -0.158705  -0.303088  0  3.940583  0
C  C65  1  0.23353816  0.97100354  0.97914953  1  0  -0.26691  0  3.689297  0  0  -0.307251  0  3.946951  0  0  -0.312883  0  3.955811  0  0  -0.158659  -0.303076  0  3.940598  0
C  C66  1  0.92370280  0.01280324  0.05356186  1  0  -0.09225  0  3.704185  0  0  -0.135705  0  3.972437  0  0  -0.136485  0  3.986761  0  0  -0.168986  -0.134966  0  3.962387  0
C  C67  1  0.07631481  0.98719649  0.94643952  1  0  -0.0923  0  3.704121  0  0  -0.135595  0  3.972117  0  0  -0.136379  0  3.986453  0  0  -0.168842  -0.134849  0  3.962051  0
O  O68  1  0.58188855  0.39786569  0.73939339  1  0  -0.708221  0  2.053351  0  0  -0.648998  0  2.292189  0  0  -0.679543  0  2.282158  0  0  -0.348318  -0.63124  0  2.297957  0
O  O69  1  0.41810427  0.60213388  0.26060932  1  0  -0.708333  0  2.053338  0  0  -0.649067  0  2.29214  0  0  -0.679616  0  2.282109  0  0  -0.34839  -0.631303  0  2.297914  0
O  O70  1  0.41938422  0.45066933  0.62779212  1  0  -0.808069  0  2.135569  0  0  -0.751214  0  2.401441  0  0  -0.788966  0  2.389155  0  0  -0.425425  -0.732988  0  2.408131  0
O  O71  1  0.58061119  0.54933340  0.37220753  1  0  -0.808095  0  2.135605  0  0  -0.751272  0  2.401517  0  0  -0.789013  0  2.389213  0  0  -0.425443  -0.733049  0  2.408233  0
O  O72  1  0.90819670  0.40511808  0.30726193  1  0  -0.6853  0  1.95592  0  0  -0.635794  0  2.189874  0  0  -0.665213  0  2.179911  0  0  -0.367191  -0.618992  0  2.195264  0
O  O73  1  0.09179247  0.59488357  0.69274211  1  0  -0.685317  0  1.956002  0  0  -0.635889  0  2.190026  0  0  -0.665307  0  2.180064  0  0  -0.367254  -0.619093  0  2.19542  0
O  O74  1  0.08394601  0.44658721  0.39403534  1  0  -0.830069  0  2.124649  0  0  -0.772041  0  2.394115  0  0  -0.810014  0  2.381905  0  0  -0.445207  -0.753729  0  2.401019  0
O  O75  1  0.91604571  0.55341655  0.60596419  1  0  -0.830109  0  2.124525  0  0  -0.772092  0  2.393978  0  0  -0.810057  0  2.381755  0  0  -0.445277  -0.753814  0  2.400945  0
O  O76  1  0.85060237  0.25225798  0.58835647  1  0  -0.72773  0  2.075857  0  0  -0.666593  0  2.315123  0  0  -0.698525  0  2.3075  0  0  -0.373907  -0.647342  0  2.319876  0
O  O77  1  0.14939556  0.74774581  0.41164061  1  0  -0.727763  0  2.075941  0  0  -0.666632  0  2.31524  0  0  -0.698563  0  2.307612  0  0  -0.373883  -0.647387  0  2.32  0
O  O78  1  0.63547475  0.23461488  0.53268306  1  0  -0.718102  0  1.983102  0  0  -0.661683  0  2.210144  0  0  -0.691641  0  2.198875  0  0  -0.357771  -0.64365  0  2.216969  0
O  O79  1  0.36452317  0.76538893  0.46731825  1  0  -0.718114  0  1.983102  0  0  -0.661704  0  2.21014  0  0  -0.691656  0  2.198872  0  0  -0.357776  -0.643671  0  2.21697  0
O  O80  1  0.89883686  0.70708408  0.34080841  1  0  -0.891572  0  1.818016  0  0  -0.848707  0  1.997606  0  0  -0.873157  0  1.964356  0  0  -0.6334  -0.83538  0  2.018162  0
O  O81  1  0.10116593  0.29291656  0.65918387  1  0  -0.891604  0  1.818013  0  0  -0.848733  0  1.997622  0  0  -0.873175  0  1.964356  0  0  -0.633448  -0.835434  0  2.018237  0
O  O82  1  0.61246551  0.71358066  0.56065670  1  0  -0.858455  0  1.795581  0  0  -0.814736  0  1.969878  0  0  -0.837861  0  1.940862  0  0  -0.60081  -0.802408  0  1.988664  0
O  O83  1  0.38752986  0.28642102  0.43934319  1  0  -0.858509  0  1.795521  0  0  -0.814813  0  1.96986  0  0  -0.837922  0  1.940812  0  0  -0.600849  -0.802485  0  1.98864  0
O  O84  1  0.63687241  0.16679161  0.88593922  1  0  -0.563082  0  2.065697  0  0  -0.518084  0  2.287427  0  0  -0.540542  0  2.272949  0  0  -0.336667  -0.5023  0  2.296602  0
O  O85  1  0.36314041  0.83321337  0.11406563  1  0  -0.56296  0  2.065871  0  0  -0.518017  0  2.287509  0  0  -0.540481  0  2.273036  0  0  -0.336667  -0.502226  0  2.296696  0
O  O86  1  0.85813486  0.26799754  0.89732556  1  0  -0.578384  0  1.92742  0  0  -0.524128  0  2.133161  0  0  -0.54545  0  2.125223  0  0  -0.288144  -0.509557  0  2.138206  0
O  O87  1  0.14188112  0.73199061  0.10267793  1  0  -0.578312  0  1.926858  0  0  -0.524182  0  2.132597  0  0  -0.545489  0  2.124644  0  0  -0.288187  -0.509625  0  2.137659  0
