# generated using pymatgen
data_CuH12C12(NO2)2
_symmetry_space_group_name_H-M   'P 1'
_cell_length_a   9.77349743
_cell_length_b   10.99417850
_cell_length_c   12.23421309
_cell_angle_alpha   89.99975348
_cell_angle_beta   90.00025813
_cell_angle_gamma   96.56799266
_symmetry_Int_Tables_number   1
_chemical_formula_structural   CuH12C12(NO2)2
_chemical_formula_sum   'Cu4 H48 C48 N8 O16'
_cell_volume   1305.95760557
_cell_formula_units_Z   4
loop_
 _symmetry_equiv_pos_site_id
 _symmetry_equiv_pos_as_xyz
  1  'x, y, z'
loop_
 _atom_site_type_symbol
 _atom_site_label
 _atom_site_symmetry_multiplicity
 _atom_site_fract_x
 _atom_site_fract_y
 _atom_site_fract_z
 _atom_site_occupancy
 _atom_site_hle17_ddec_charge
 _atom_site_hle17_ddec_spin_density
 _atom_site_hle17_ddec_sum_bond_order
 _atom_site_hle17_magmom
 _atom_site_hse06_10hf_ddec_charge
 _atom_site_hse06_10hf_ddec_spin_density
 _atom_site_hse06_10hf_ddec_sum_bond_order
 _atom_site_hse06_10hf_magmom
 _atom_site_hse06_ddec_charge
 _atom_site_hse06_ddec_spin_density
 _atom_site_hse06_ddec_sum_bond_order
 _atom_site_hse06_magmom
 _atom_site_pbe_cm5_charge
 _atom_site_pbe_ddec_charge
 _atom_site_pbe_ddec_spin_density
 _atom_site_pbe_ddec_sum_bond_order
 _atom_site_pbe_magmom
Cu  Cu0  1  0.35196997  0.62046639  0.61722916  1  0.922929  -0.757201  1.799833  -0.495  0.918809  -0.849081  2.196695  -0.618  1.02026  -0.942363  2.110747  -0.714  0.720356  0.85924  -0.780937  2.252614  -0.556
Cu  Cu1  1  0.14802786  0.87953332  0.11723373  1  0.922931  0.693141  1.799891  0.495  0.918853  0.790071  2.196784  0.618  1.020287  0.866895  2.110915  0.714  0.72036  0.859274  0.734877  2.252747  0.556
Cu  Cu2  1  0.64802971  0.37953048  0.38276882  1  0.923006  0.69326  1.799879  0.495  0.918901  0.790099  2.196697  0.618  1.0203  0.866874  2.110896  0.714  0.720404  0.85931  0.735001  2.252722  0.556
Cu  Cu3  1  0.85197410  0.12046538  0.88277079  1  0.922868  0.693136  1.800032  0.495  0.918815  0.790021  2.196804  0.618  1.011632  0.866817  2.126762  0.714  0.720383  0.859196  0.734898  2.252827  0.556
H  H4  1  0.21592219  0.24658438  0.50820342  1  0.153082  0.00042  0.931758  0.001  0.170387  4.2e-05  0.991169  0.0  0.173732  3.4e-05  0.988831  0.0  0.103679  0.167962  3.9e-05  0.992935  0.0
H  H5  1  0.28406225  0.25342133  0.00820815  1  0.153093  -0.000439  0.931713  -0.001  0.17041  -4.1e-05  0.991113  0.0  0.173757  -3.5e-05  0.988781  0.0  0.1037  0.167985  -3.6e-05  0.992881  0.0
H  H6  1  0.78406421  0.75342071  0.49179047  1  0.153074  -0.000478  0.931717  -0.001  0.170397  -6.4e-05  0.991114  0.0  0.173743  -4.9e-05  0.988773  0.0  0.103714  0.167973  -6.3e-05  0.992878  0.0
H  H7  1  0.71591687  0.74658284  0.99179964  1  0.153107  -0.000455  0.931735  -0.001  0.170403  -4.8e-05  0.991159  0.0  0.173749  -4e-05  0.98884  0.0  0.103662  0.167976  -4e-05  0.992927  0.0
H  H8  1  0.30401637  0.25241681  0.37872895  1  0.141555  -0.000277  0.941798  0.0  0.159673  -0.000384  1.001557  0.0  0.161741  -0.000244  1.001237  0.0  0.102481  0.158086  -0.000478  1.002072  0.0
H  H9  1  0.19597666  0.24758367  0.87872987  1  0.141525  0.000137  0.941725  0.0  0.159655  0.000261  1.001471  0.0  0.161737  0.000137  1.001121  0.0  0.102476  0.15807  0.000359  1.001985  0.0
H  H10  1  0.69597615  0.74758005  0.62126821  1  0.141512  0.000223  0.941772  0.0  0.159625  0.000359  1.001533  0.0  0.16169  0.000221  1.001219  0.0  0.10245  0.158039  0.00046  1.002047  0.0
H  H11  1  0.80401428  0.75241686  0.12127301  1  0.141545  0.000122  0.941856  0.0  0.159676  0.000259  1.001584  0.0  0.161742  0.000132  1.001274  0.0  0.102485  0.158091  0.000364  1.002094  0.0
H  H12  1  0.13761446  0.30150092  0.38896951  1  0.142386  9.2e-05  0.942697  0.0  0.165524  -9.2e-05  0.997762  0.0  0.166686  -2.3e-05  0.999021  0.0  0.104335  0.164552  -0.000146  0.997138  0.0
H  H13  1  0.36237943  0.19850592  0.88898102  1  0.142452  3.8e-05  0.942635  0.0  0.165651  0.00021  0.997636  0.0  0.166812  0.000107  0.998926  0.0  0.104399  0.164679  0.000299  0.997014  0.0
H  H14  1  0.86237751  0.69849960  0.61101784  1  0.142511  -3e-06  0.942586  0.0  0.16567  0.000214  0.997626  0.0  0.166832  9.7e-05  0.998888  0.0  0.104402  0.164697  0.000319  0.997  0.0
H  H15  1  0.63761381  0.80150468  0.11103248  1  0.142345  -6.1e-05  0.942722  0.0  0.165499  0.000126  0.997778  0.0  0.166661  5.9e-05  0.999048  0.0  0.104323  0.164524  0.00018  0.997155  0.0
H  H16  1  0.59813059  0.93291464  0.81692145  1  0.165762  0.000665  0.941588  0.001  0.181593  0.000295  1.004889  0.0  0.185628  0.000219  1.002266  0.0  0.108465  0.178628  0.000363  1.006797  0.0
H  H17  1  0.90187586  0.56708695  0.31693060  1  0.165618  -0.000663  0.941706  -0.001  0.181482  -0.000293  1.004989  0.0  0.185485  -0.000291  1.002445  0.0  0.10841  0.178518  -0.000264  1.006895  0.0
H  H18  1  0.40187172  0.06708681  0.18306917  1  0.165621  -0.000672  0.941659  -0.001  0.181523  -0.000299  1.004901  0.0  0.18552  -0.000295  1.002364  0.0  0.108457  0.178557  -0.000277  1.006811  0.0
H  H19  1  0.09812977  0.43292458  0.68307719  1  0.165703  -0.000728  0.941694  -0.001  0.181576  -0.000315  1.00495  0.0  0.18557  -0.000234  1.002426  0.0  0.108449  0.17861  -0.000388  1.006863  0.0
H  H20  1  0.44678308  0.96967793  0.88261801  1  0.129114  -0.000883  0.960375  -0.001  0.147975  -0.000855  1.020683  -0.001  0.148568  -0.000596  1.022576  -0.001  0.094755  0.147409  -0.001059  1.019497  -0.001
H  H21  1  0.05322099  0.53031883  0.38261706  1  0.129175  0.000868  0.960313  0.001  0.148006  0.000835  1.020653  0.001  0.148593  0.000582  1.022529  0.001  0.094785  0.147441  0.001033  1.019466  0.001
H  H22  1  0.55321798  0.03032168  0.11738160  1  0.129168  0.00081  0.960382  0.001  0.148009  0.000789  1.020708  0.001  0.148598  0.000553  1.022593  0.001  0.094775  0.147441  0.000971  1.019526  0.001
H  H23  1  0.94678405  0.46967988  0.61738174  1  0.129173  0.000766  0.960381  0.001  0.148011  0.000772  1.020715  0.001  0.1486  0.000534  1.022598  0.001  0.094779  0.147446  0.000963  1.019527  0.001
H  H24  1  0.47035173  0.99516163  0.73858422  1  0.141707  0.000481  0.922663  0.001  0.166088  0.000122  0.973057  0.0  0.168549  9.9e-05  0.972362  0.0  0.104554  0.164181  0.00013  0.973778  0.0
H  H25  1  0.02963772  0.50483115  0.23858410  1  0.141678  -0.00052  0.922659  -0.001  0.166041  -0.000137  0.973071  0.0  0.168498  -0.000112  0.972369  0.0  0.104532  0.164135  -0.000141  0.973789  0.0
H  H26  1  0.52963258  0.00482698  0.26141375  1  0.141709  -0.000501  0.922609  -0.001  0.166063  -0.000112  0.973041  0.0  0.168519  -9.5e-05  0.972342  0.0  0.104518  0.164158  -0.000107  0.973759  0.0
H  H27  1  0.97035424  0.49516937  0.76141470  1  0.141768  -0.00054  0.922637  -0.001  0.166165  -0.000132  0.973005  0.0  0.168624  -0.000108  0.97232  0.0  0.104575  0.16426  -0.000138  0.973723  0.0
H  H28  1  0.55436989  0.77594262  0.32033804  1  0.143682  0.000421  0.926697  0.001  0.164658  4.8e-05  0.980215  0.0  0.167616  3.9e-05  0.978653  0.0  0.102736  0.162539  4.7e-05  0.981317  0.0
H  H29  1  0.94564182  0.72405987  0.82033586  1  0.143734  -0.000452  0.926689  -0.001  0.164666  -5.1e-05  0.980227  0.0  0.167626  -4.4e-05  0.978679  0.0  0.102745  0.162548  -4.2e-05  0.981329  0.0
H  H30  1  0.44564026  0.22405609  0.67966157  1  0.143682  -0.000445  0.926632  -0.001  0.164639  -4.6e-05  0.980172  0.0  0.167595  -3.8e-05  0.978618  0.0  0.102733  0.162519  -4.3e-05  0.981275  0.0
H  H31  1  0.05436289  0.27594433  0.17965967  1  0.143713  -0.000457  0.926657  -0.001  0.164676  -5.5e-05  0.980177  0.0  0.167633  -4.3e-05  0.978637  0.0  0.102719  0.162557  -5.3e-05  0.981281  0.0
H  H32  1  0.42471843  0.70711783  0.22852247  1  0.145442  -6.5e-05  0.951343  0.0  0.161896  -0.000242  1.015384  0.0  0.163485  -0.000134  1.015809  0.0  0.099544  0.160766  -0.000332  1.014994  0.0
H  H33  1  0.07529443  0.79289058  0.72852441  1  0.145457  5.7e-05  0.951303  0.0  0.161898  0.000233  1.015365  0.0  0.163488  0.000134  1.015809  0.0  0.099516  0.160768  0.000321  1.014976  0.0
H  H34  1  0.57529332  0.29288546  0.77147387  1  0.145429  5.1e-05  0.951276  0.0  0.161861  0.000222  1.015361  0.0  0.163457  0.000128  1.015781  0.0  0.099522  0.160731  0.000306  1.01497  0.0
H  H35  1  0.92471495  0.20711820  0.27147684  1  0.145469  5.9e-05  0.95131  0.0  0.161917  0.000224  1.015362  0.0  0.163505  0.000138  1.015797  0.0  0.099533  0.160785  0.000301  1.014975  0.0
H  H36  1  0.57268778  0.63260662  0.25599420  1  0.1481  -2.9e-05  0.939237  0.0  0.166601  -0.000173  0.998595  0.0  0.169001  -8.8e-05  0.998035  0.0  0.10436  0.16482  -0.000225  0.999027  0.0
H  H37  1  0.92732474  0.86739706  0.75599630  1  0.148141  -4.4e-05  0.939208  0.0  0.166629  0.000143  0.998575  0.0  0.169056  3e-05  0.997963  0.0  0.104346  0.164857  0.000239  0.998997  0.0
H  H38  1  0.42732614  0.36739759  0.74399723  1  0.14799  6.5e-05  0.939306  0.0  0.166534  0.000235  0.998642  0.0  0.168937  0.000129  0.998083  0.0  0.104309  0.164744  0.00031  0.999076  0.0
H  H39  1  0.07268657  0.13261080  0.24400494  1  0.148143  -0.000108  0.939236  0.0  0.16664  6.7e-05  0.998575  0.0  0.169039  -1.8e-05  0.998027  0.0  0.104376  0.164871  0.000138  0.998995  0.0
H  H40  1  0.16939894  0.45542413  0.91761300  1  0.143917  0.000441  0.934952  0.001  0.165641  9.7e-05  0.987772  0.0  0.168893  6.3e-05  0.986013  0.0  0.103862  0.163164  0.000123  0.989283  0.0
H  H41  1  0.33059496  0.04457343  0.41761298  1  0.143952  -0.00044  0.934881  -0.001  0.165703  -5.4e-05  0.987658  0.0  0.168951  -5.2e-05  0.985899  0.0  0.103885  0.163226  -3.6e-05  0.98917  0.0
H  H42  1  0.83059019  0.54457822  0.08239152  1  0.143976  -0.00041  0.934817  -0.001  0.165699  -3.1e-05  0.987654  0.0  0.168944  -3.7e-05  0.985898  0.0  0.10389  0.163224  -4e-06  0.989164  0.0
H  H43  1  0.66940712  0.95542618  0.58238826  1  0.143887  -0.000439  0.934839  -0.001  0.165623  -7.2e-05  0.987649  0.0  0.168874  -4.8e-05  0.985912  0.0  0.103855  0.163146  -8.5e-05  0.989162  0.0
H  H44  1  0.16418610  0.59675876  0.99035380  1  0.149134  -0.0006  0.933478  -0.001  0.16693  -0.000701  0.992928  -0.001  0.169565  -0.000489  0.992115  0.0  0.104464  0.164917  -0.000869  0.993675  -0.001
H  H45  1  0.33581307  0.90324303  0.49035569  1  0.14914  0.000544  0.933449  0.001  0.166929  0.000659  0.992904  0.001  0.169564  0.000458  0.992091  0.0  0.104464  0.164916  0.000825  0.993653  0.001
H  H46  1  0.83582145  0.40324361  0.00966052  1  0.14912  0.000503  0.93344  0.001  0.166913  0.000622  0.992914  0.001  0.169557  0.000402  0.992081  0.0  0.104487  0.164901  0.000817  0.993661  0.001
H  H47  1  0.66417766  0.09676390  0.50965618  1  0.149098  0.000504  0.933498  0.001  0.1669  0.000625  0.992953  0.001  0.169534  0.000403  0.99215  0.0  0.104452  0.164886  0.000823  0.9937  0.001
H  H48  1  0.30773741  0.51409799  0.00487523  1  0.154321  0.000465  0.939357  0.001  0.172401  0.000216  0.999236  0.0  0.174894  0.000204  0.998565  0.0  0.105439  0.17054  0.000214  0.999837  0.0
H  H49  1  0.19226315  0.98590404  0.50487766  1  0.154326  -0.000499  0.93937  -0.001  0.172405  -0.000223  0.999251  0.0  0.174898  -0.000212  0.99858  0.0  0.10544  0.170544  -0.000224  0.999851  0.0
H  H50  1  0.69226613  0.48589706  0.99512193  1  0.154284  -0.000499  0.93939  -0.001  0.172383  -0.00023  0.999259  0.0  0.174874  -0.000219  0.998594  0.0  0.105457  0.170522  -0.00023  0.999858  0.0
H  H51  1  0.80773146  0.01410930  0.49512114  1  0.154311  -0.000487  0.939352  -0.001  0.172396  -0.000223  0.999236  0.0  0.174891  -0.000213  0.998574  0.0  0.105461  0.170535  -0.000224  0.999835  0.0
C  C52  1  0.42243056  0.80725623  0.78070654  1  0.519477  0.00509  3.710486  0.009  0.504252  0.00056  3.983749  0.003  0.535772  0.001142  3.987734  0.003  0.149455  0.48281  -1.4e-05  3.980735  0.003
C  C53  1  0.07757196  0.69274096  0.28070341  1  0.51942  -0.006115  3.710675  -0.009  0.504194  -0.000991  3.983895  -0.003  0.535716  -0.001539  3.987858  -0.003  0.149417  0.482736  -0.000367  3.980902  -0.003
C  C54  1  0.57756570  0.19273789  0.21929471  1  0.519277  -0.006599  3.710725  -0.009  0.504092  -0.001319  3.983943  -0.003  0.535614  -0.001798  3.987921  -0.003  0.149413  0.482648  -0.000778  3.980926  -0.003
C  C55  1  0.92243637  0.30725958  0.71929539  1  0.519285  -0.006539  3.710768  -0.009  0.504109  -0.001288  3.983984  -0.003  0.535773  -0.001781  3.987296  -0.003  0.149456  0.482665  -0.000731  3.98097  -0.003
C  C56  1  0.29750806  0.42636718  0.45757144  1  0.513575  0.005309  3.716361  0.009  0.4948  0.000624  3.995214  0.003  0.525911  0.001197  3.999656  0.003  0.145763  0.47359  6.7e-05  3.992077  0.003
C  C57  1  0.20248969  0.07363480  0.95757795  1  0.513729  -0.006679  3.716415  -0.009  0.494947  -0.001423  3.995215  -0.003  0.526147  -0.00191  3.999395  -0.003  0.145814  0.473717  -0.000883  3.992112  -0.003
C  C58  1  0.70249209  0.57363335  0.54242000  1  0.51363  -0.006354  3.716253  -0.009  0.494895  -0.001034  3.995043  -0.003  0.52602  -0.001583  3.999451  -0.003  0.14582  0.473666  -0.000434  3.991938  -0.003
C  C59  1  0.79750558  0.92636756  0.04242820  1  0.51365  -0.006693  3.716381  -0.009  0.494834  -0.0014  3.995235  -0.003  0.526079  -0.001895  3.999058  -0.003  0.145818  0.473608  -0.00086  3.992119  -0.003
C  C60  1  0.29813084  0.60732106  0.85061230  1  0.525642  0.004914  3.693765  0.008  0.509449  0.000329  3.965355  0.003  0.541294  0.001022  3.968828  0.003  0.153923  0.487782  -0.00041  3.96242  0.002
C  C61  1  0.20186181  0.89267582  0.35061456  1  0.525567  -0.005869  3.694228  -0.008  0.509475  -0.000722  3.965652  -0.003  0.541319  -0.001399  3.969122  -0.003  0.153836  0.487804  4.2e-05  3.962712  -0.002
C  C62  1  0.70186156  0.39267488  0.14938894  1  0.525436  -0.006421  3.694237  -0.009  0.509354  -0.00111  3.965684  -0.003  0.541197  -0.001692  3.969169  -0.003  0.153819  0.487684  -0.00038  3.962742  -0.003
C  C63  1  0.79813425  0.10732471  0.64938913  1  0.525472  -0.006385  3.694157  -0.009  0.509343  -0.001075  3.965679  -0.003  0.541324  -0.001679  3.968518  -0.003  0.153814  0.487672  -0.000337  3.962738  -0.003
C  C64  1  0.42806100  0.62321822  0.38750630  1  0.505775  0.005401  3.733756  0.009  0.486751  0.000678  4.015146  0.003  0.517164  0.00125  4.021184  0.003  0.14153  0.466251  0.000116  4.010588  0.003
C  C65  1  0.07194379  0.87678401  0.88751117  1  0.505742  -0.00687  3.733525  -0.009  0.48669  -0.00153  4.014883  -0.004  0.517183  -0.002018  4.020668  -0.004  0.141505  0.466191  -0.000949  4.010326  -0.003
C  C66  1  0.57195062  0.37677592  0.61248677  1  0.505606  -0.006453  3.733508  -0.009  0.486552  -0.001118  4.01493  -0.003  0.516974  -0.001656  4.02096  -0.003  0.141454  0.466053  -0.000534  4.010368  -0.003
C  C67  1  0.92805647  0.12321744  0.11249334  1  0.505768  -0.006883  3.733624  -0.009  0.486699  -0.001553  4.015048  -0.004  0.517251  -0.002029  4.020462  -0.004  0.141501  0.4662  -0.000984  4.010491  -0.003
C  C68  1  0.35779424  0.50292524  0.37155524  1  -0.368489  -0.006954  3.849833  -0.008  -0.370278  -0.00377  4.131013  -0.005  -0.396407  -0.002121  4.152968  -0.003  -0.062515  -0.352953  -0.005174  4.116882  -0.006
C  C69  1  0.14220149  0.99707888  0.87156398  1  -0.368612  0.00508  3.850039  0.008  -0.37022  0.002105  4.130963  0.005  -0.396009  0.000501  4.152041  0.002  -0.062515  -0.352897  0.003576  4.116846  0.006
C  C70  1  0.64220465  0.49707346  0.62843293  1  -0.368363  0.006316  3.849969  0.008  -0.37  0.003452  4.130821  0.005  -0.396129  0.001872  4.152767  0.003  -0.062489  -0.352681  0.004807  4.116715  0.006
C  C71  1  0.85779185  0.00292439  0.12844380  1  -0.368488  0.005024  3.849818  0.008  -0.370198  0.002063  4.130906  0.005  -0.396248  0.000477  4.152633  0.002  -0.062522  -0.352874  0.003546  4.116786  0.006
C  C72  1  0.36266099  0.72974031  0.86599691  1  -0.348375  -0.006252  3.827729  -0.008  -0.338795  -0.003081  4.077777  -0.005  -0.366741  -0.001444  4.101176  -0.003  -0.055388  -0.320163  -0.004504  4.061935  -0.006
C  C73  1  0.13733787  0.77025652  0.36599614  1  -0.348266  0.005674  3.827943  0.008  -0.338694  0.002802  4.07791  0.005  -0.366639  0.001244  4.101297  0.003  -0.055302  -0.320053  0.004196  4.062066  0.006
C  C74  1  0.63733664  0.27025656  0.13400270  1  -0.34821  0.005873  3.827942  0.009  -0.338657  0.002809  4.07792  0.005  -0.366588  0.001255  4.101309  0.003  -0.055295  -0.320011  0.004181  4.062051  0.006
C  C75  1  0.86266523  0.22974310  0.63400347  1  -0.34821  0.005828  3.827926  0.009  -0.338644  0.002791  4.077916  0.005  -0.366499  0.001242  4.101062  0.003  -0.055302  -0.319999  0.004161  4.062049  0.006
C  C76  1  0.36631176  0.77540213  0.97353868  1  0.337311  0.000136  3.837065  0.0  0.33004  -0.000761  4.106523  -0.001  0.348615  -0.0008  4.127597  -0.001  0.188372  0.317592  -0.000687  4.092992  -0.001
C  C77  1  0.13368969  0.72459424  0.47353644  1  0.337378  -0.000186  3.837371  0.0  0.33009  0.00079  4.106826  0.001  0.348666  0.000792  4.127882  0.001  0.188363  0.317637  0.000749  4.093294  0.001
C  C78  1  0.63368997  0.22459474  0.02646256  1  0.337306  -0.004721  3.837262  -0.004  0.330018  -0.002217  4.106746  -0.002  0.348747  -0.001966  4.126891  -0.002  0.188321  0.317567  -0.002318  4.093212  -0.002
C  C79  1  0.86631341  0.27540538  0.52646398  1  0.3374  -0.004653  3.837425  -0.004  0.330105  -0.002176  4.106899  -0.002  0.348684  -0.001945  4.127966  -0.002  0.188356  0.317655  -0.00224  4.093362  -0.002
C  C80  1  0.35133922  0.45413663  0.26425214  1  0.300632  0.001629  3.86131  0.002  0.286663  0.000238  4.150558  0.001  0.299317  0.000103  4.173845  0.0  0.169891  0.277774  0.000341  4.135548  0.001
C  C81  1  0.14865663  0.04586708  0.76425939  1  0.30062  -0.00252  3.860932  -0.002  0.286582  -0.000956  4.150191  -0.001  0.299416  -0.00078  4.172871  0.0  0.169872  0.277698  -0.001042  4.135181  -0.001
C  C82  1  0.64865388  0.54586481  0.73573603  1  0.300372  -0.002017  3.861017  -0.002  0.286363  -0.000323  4.150329  -0.001  0.299006  -0.00019  4.17363  0.0  0.169791  0.277478  -0.000433  4.135322  -0.001
C  C83  1  0.85134351  0.95413345  0.23574840  1  0.300592  -0.002469  3.861222  -0.002  0.2866  -0.000962  4.150462  -0.001  0.299247  -0.000783  4.173767  0.0  0.169869  0.277714  -0.001042  4.135452  -0.001
C  C84  1  0.23586014  0.29833326  0.43223770  1  -0.419154  -0.013485  3.638316  -0.014  -0.495753  -0.00795  3.863978  -0.009  -0.503679  -0.005317  3.868541  -0.006  -0.240553  -0.490189  -0.00991  3.86119  -0.01
C  C85  1  0.26412941  0.20166973  0.93224394  1  -0.419267  0.012455  3.638116  0.014  -0.495936  0.007504  3.863796  0.009  -0.50384  0.004926  3.868357  0.006  -0.240676  -0.490362  0.009481  3.861003  0.01
C  C86  1  0.76412978  0.70166726  0.56775374  1  -0.419255  0.012555  3.638159  0.014  -0.495895  0.007575  3.863813  0.009  -0.50382  0.004985  3.868367  0.006  -0.240662  -0.490332  0.009556  3.861051  0.011
C  C87  1  0.73585892  0.79833445  0.06776384  1  -0.419157  0.012392  3.638386  0.014  -0.49577  0.007399  3.864025  0.009  -0.503693  0.004865  3.868635  0.006  -0.240541  -0.490203  0.009335  3.861245  0.01
C  C88  1  0.48645077  0.93396737  0.80692877  1  -0.42367  -0.012997  3.655392  -0.013  -0.503434  -0.007627  3.888137  -0.008  -0.511624  -0.0051  3.892041  -0.006  -0.245138  -0.49751  -0.009502  3.885592  -0.01
C  C89  1  0.01355405  0.56603063  0.30692835  1  -0.423523  0.011767  3.655448  0.013  -0.503286  0.00702  3.888194  0.008  -0.511492  0.004598  3.892093  0.006  -0.245103  -0.497358  0.008895  3.885648  0.01
C  C90  1  0.51354982  0.06602859  0.19307084  1  -0.423557  0.011759  3.655503  0.013  -0.503332  0.006986  3.888249  0.008  -0.511531  0.004577  3.892163  0.006  -0.245121  -0.49741  0.008846  3.885704  0.01
C  C91  1  0.98644952  0.43397265  0.69307208  1  -0.423694  0.011965  3.655613  0.013  -0.503497  0.007086  3.888354  0.008  -0.511698  0.004674  3.892309  0.006  -0.24518  -0.497576  0.008932  3.88581  0.01
C  C92  1  0.49903360  0.68929052  0.29246300  1  -0.424914  -0.013621  3.654155  -0.014  -0.501523  -0.008049  3.884832  -0.009  -0.509752  -0.005334  3.889444  -0.006  -0.245052  -0.495434  -0.010075  3.881132  -0.011
C  C93  1  0.00098027  0.81071488  0.79246787  1  -0.424968  0.012505  3.654199  0.014  -0.501525  0.007535  3.884887  0.009  -0.509738  0.004909  3.889497  0.006  -0.244973  -0.495441  0.009562  3.881183  0.011
C  C94  1  0.50097883  0.31071003  0.70753007  1  -0.424705  0.012516  3.654006  0.014  -0.501347  0.007568  3.884702  0.009  -0.509579  0.004949  3.889339  0.006  -0.24497  -0.495246  0.009589  3.881002  0.011
C  C95  1  0.99902763  0.18929024  0.20753501  1  -0.425031  0.01244  3.654201  0.014  -0.501599  0.007421  3.884848  0.009  -0.509826  0.004838  3.88951  0.006  -0.245029  -0.495519  0.009404  3.881146  0.011
C  C96  1  0.23043736  0.53911596  0.94600218  1  -0.423134  -0.01329  3.636973  -0.013  -0.496729  -0.007868  3.857528  -0.008  -0.505447  -0.005246  3.861053  -0.006  -0.238905  -0.490346  -0.009842  3.855143  -0.01
C  C97  1  0.26955782  0.96088051  0.44600361  1  -0.423151  0.012207  3.636964  0.013  -0.496779  0.007348  3.857458  0.008  -0.505498  0.004824  3.86098  0.006  -0.238916  -0.490396  0.009313  3.855074  0.01
C  C98  1  0.76955835  0.46088182  0.05400151  1  -0.423064  0.012155  3.636943  0.013  -0.496719  0.007345  3.85751  0.008  -0.505428  0.004805  3.86105  0.006  -0.238932  -0.490335  0.009325  3.855122  0.01
C  C99  1  0.73043780  0.03912459  0.55400009  1  -0.423003  0.012156  3.636946  0.013  -0.496649  0.007359  3.857508  0.008  -0.505368  0.004828  3.861083  0.006  -0.238882  -0.490264  0.009329  3.855121  0.01
N  N100  1  0.36471665  0.81103952  0.06394272  1  -0.477508  -0.002769  2.697102  -0.002  -0.465565  -0.001431  2.952843  -0.001  -0.48459  -0.000873  2.959292  0.0  -0.338396  -0.453934  -0.002073  2.949088  -0.001
N  N101  1  0.13528895  0.68895128  0.56393792  1  -0.477615  0.002658  2.697322  0.002  -0.465666  0.00146  2.953068  0.001  -0.484692  0.000834  2.959495  0.0  -0.338416  -0.454037  0.002178  2.949313  0.001
N  N102  1  0.63528905  0.18895644  0.93605935  1  -0.477546  0.00236  2.697189  0.004  -0.46561  0.000267  2.952925  0.002  -0.483483  -0.000261  2.959855  0.001  -0.33839  -0.453978  0.000906  2.94918  0.002
N  N103  1  0.86471312  0.31104834  0.43606169  1  -0.477637  0.002491  2.697344  0.004  -0.465692  0.000447  2.953092  0.002  -0.484701  -0.000153  2.959525  0.001  -0.338406  -0.45406  0.001133  2.949344  0.002
N  N104  1  0.34418446  0.41274853  0.17586565  1  -0.434511  -0.002599  2.57154  -0.003  -0.413219  -0.000883  2.787519  -0.001  -0.426106  -0.000291  2.801681  0.0  -0.321665  -0.404397  -0.00156  2.778081  -0.002
N  N105  1  0.15581230  0.08725007  0.67587276  1  -0.434438  0.002305  2.571229  0.003  -0.413132  0.000628  2.78724  0.001  -0.425995  9.7e-05  2.801277  0.0  -0.32162  -0.404309  0.001257  2.7778  0.001
N  N106  1  0.65580818  0.58724925  0.82412252  1  -0.434337  0.002455  2.57123  0.003  -0.413028  0.000733  2.787228  0.001  -0.425909  0.000207  2.801394  0.0  -0.321584  -0.404208  0.001374  2.777787  0.002
N  N107  1  0.84418750  0.91274771  0.32413176  1  -0.434461  0.002202  2.571538  0.003  -0.413161  0.000594  2.787523  0.001  -0.426045  6.4e-05  2.801698  0.0  -0.321634  -0.404339  0.001218  2.778083  0.001
O  O108  1  0.29242279  0.45977746  0.55687566  1  -0.511456  -0.091229  2.124007  -0.111  -0.47507  -0.060361  2.396133  -0.082  -0.517877  -0.046808  2.390027  -0.067  -0.288649  -0.447662  -0.068334  2.399971  -0.089
O  O109  1  0.20758471  0.04021434  0.05687768  1  -0.511503  0.083337  2.124185  0.111  -0.475162  0.055949  2.396331  0.081  -0.517976  0.042738  2.390247  0.066  -0.288705  -0.44774  0.064164  2.400185  0.089
O  O110  1  0.70758950  0.54021393  0.44311823  1  -0.511491  0.083477  2.123984  0.111  -0.475138  0.056052  2.39606  0.082  -0.517952  0.042821  2.389986  0.067  -0.288704  -0.447729  0.064283  2.399929  0.089
O  O111  1  0.79241962  0.95977888  0.94312439  1  -0.511541  0.08335  2.124087  0.111  -0.475116  0.055945  2.396158  0.081  -0.516507  0.042744  2.390924  0.066  -0.288707  -0.447691  0.064139  2.40001  0.089
O  O112  1  0.42641506  0.77557668  0.68071162  1  -0.517527  -0.090669  2.094909  -0.11  -0.490551  -0.059673  2.372732  -0.08  -0.531597  -0.046418  2.362865  -0.066  -0.296063  -0.464412  -0.067551  2.379232  -0.088
O  O113  1  0.07359616  0.72442095  0.18071080  1  -0.517497  0.082911  2.09502  0.11  -0.490514  0.055364  2.372843  0.08  -0.531555  0.042432  2.362982  0.066  -0.296038  -0.464376  0.063481  2.379359  0.088
O  O114  1  0.57358143  0.22441927  0.31928799  1  -0.517409  0.082926  2.094956  0.11  -0.490471  0.055348  2.372767  0.08  -0.531503  0.042394  2.36292  0.066  -0.296038  -0.46433  0.063473  2.379283  0.088
O  O115  1  0.92642910  0.27557595  0.81928636  1  -0.517406  0.082905  2.095028  0.11  -0.490486  0.055356  2.372828  0.08  -0.530051  0.042403  2.363982  0.066  -0.296082  -0.464348  0.063493  2.379345  0.088
O  O116  1  0.29325146  0.55228179  0.75915495  1  -0.517111  -0.088311  2.12491  -0.107  -0.484881  -0.058999  2.401704  -0.08  -0.526155  -0.045753  2.392631  -0.065  -0.28521  -0.458309  -0.066995  2.407442  -0.087
O  O117  1  0.20673288  0.94771822  0.25915783  1  -0.517118  0.080749  2.125134  0.107  -0.484974  0.054731  2.401938  0.08  -0.526241  0.041804  2.392871  0.065  -0.285171  -0.458404  0.06295  2.407684  0.087
O  O118  1  0.70673445  0.44771140  0.24084630  1  -0.517073  0.080643  2.125193  0.107  -0.484863  0.054607  2.40189  0.08  -0.526135  0.041695  2.392864  0.065  -0.285207  -0.45829  0.062809  2.407643  0.087
O  O119  1  0.79325466  0.05228779  0.74084832  1  -0.517066  0.080622  2.125124  0.107  -0.48486  0.054621  2.401827  0.08  -0.524716  0.041716  2.39375  0.065  -0.285202  -0.458281  0.062832  2.407574  0.087
O  O120  1  0.43704459  0.67833188  0.47907319  1  -0.517707  -0.091351  2.113733  -0.111  -0.484379  -0.060724  2.38656  -0.082  -0.526695  -0.046734  2.380783  -0.067  -0.290415  -0.457324  -0.069099  2.390417  -0.09
O  O121  1  0.06296315  0.82166538  0.97908152  1  -0.517665  0.083494  2.113305  0.111  -0.484417  0.056292  2.386229  0.082  -0.526726  0.042673  2.380456  0.067  -0.290429  -0.457361  0.064877  2.390094  0.09
O  O122  1  0.56297735  0.32165494  0.52091988  1  -0.517671  0.0836  2.113538  0.111  -0.484345  0.056402  2.386379  0.082  -0.526663  0.042761  2.380617  0.067  -0.290347  -0.457293  0.064994  2.390255  0.09
O  O123  1  0.93703641  0.17833057  0.02092300  1  -0.51767  0.08345  2.113648  0.111  -0.484355  0.05628  2.386522  0.082  -0.525283  0.042667  2.381639  0.067  -0.29039  -0.457293  0.064853  2.39039  0.09
