# generated using pymatgen
data_CuH16C14(N5O3)2
_symmetry_space_group_name_H-M   'P 1'
_cell_length_a   8.57625295
_cell_length_b   8.57624717
_cell_length_c   14.05519506
_cell_angle_alpha   90.00008269
_cell_angle_beta   89.99979744
_cell_angle_gamma   117.47271474
_symmetry_Int_Tables_number   1
_chemical_formula_structural   CuH16C14(N5O3)2
_chemical_formula_sum   'Cu2 H32 C28 N20 O12'
_cell_volume   917.20892494
_cell_formula_units_Z   2
loop_
 _symmetry_equiv_pos_site_id
 _symmetry_equiv_pos_as_xyz
  1  'x, y, z'
loop_
 _atom_site_type_symbol
 _atom_site_label
 _atom_site_symmetry_multiplicity
 _atom_site_fract_x
 _atom_site_fract_y
 _atom_site_fract_z
 _atom_site_occupancy
 _atom_site_hle17_ddec_charge
 _atom_site_hle17_ddec_spin_density
 _atom_site_hle17_ddec_sum_bond_order
 _atom_site_hle17_magmom
 _atom_site_hse06_10hf_ddec_charge
 _atom_site_hse06_10hf_ddec_spin_density
 _atom_site_hse06_10hf_ddec_sum_bond_order
 _atom_site_hse06_10hf_magmom
 _atom_site_hse06_ddec_charge
 _atom_site_hse06_ddec_spin_density
 _atom_site_hse06_ddec_sum_bond_order
 _atom_site_hse06_magmom
 _atom_site_pbe_cm5_charge
 _atom_site_pbe_ddec_charge
 _atom_site_pbe_ddec_spin_density
 _atom_site_pbe_ddec_sum_bond_order
 _atom_site_pbe_magmom
Cu  Cu0  1  0.00000039  0.99999989  0.99999867  1  0.800697  -0.755064  1.904398  -0.535  0.760802  -0.815956  2.28142  -0.63  0.834374  -0.881872  2.229457  -0.701  0.789192  0.71645  -0.769942  2.316311  -0.584
Cu  Cu1  1  0.49999843  0.49999925  0.49999915  1  0.800683  0.755056  1.90435  0.535  0.760757  0.81594  2.281335  0.63  0.834411  0.881868  2.229432  0.701  0.789207  0.716478  0.769944  2.316254  0.584
H  H2  1  0.61089010  0.79867447  0.08507785  1  0.116743  -0.000176  0.929816  0.0  0.119054  -0.000163  1.000907  0.0  0.122057  -0.000127  0.996587  0.0  0.140266  0.116639  -0.000196  1.004211  0.0
H  H3  1  0.88910766  0.70132344  0.58507839  1  0.116707  0.000177  0.929852  0.0  0.119001  0.000163  1.000976  0.0  0.122029  0.000127  0.996625  0.0  0.140238  0.116587  0.000196  1.004277  0.0
H  H4  1  0.79867461  0.61089017  0.91492161  1  0.116718  -0.000175  0.929824  0.0  0.11899  -0.000163  1.000952  0.0  0.122024  -0.000127  0.996596  0.0  0.140252  0.116576  -0.000196  1.004253  0.0
H  H5  1  0.70132475  0.88911021  0.41492166  1  0.116728  0.000177  0.929839  0.0  0.119011  0.000163  1.000956  0.0  0.122057  0.000127  0.996586  0.0  0.140261  0.116598  0.000196  1.004252  0.0
H  H6  1  0.38911079  0.20132266  0.91492116  1  0.116739  -0.000179  0.929818  0.0  0.119015  -0.000163  1.000943  0.0  0.122061  -0.000127  0.996575  0.0  0.140259  0.116601  -0.000196  1.004241  0.0
H  H7  1  0.11088859  0.29867374  0.41492062  1  0.116727  0.000177  0.929846  0.0  0.119032  0.000163  1.000948  0.0  0.122034  0.000127  0.996627  0.0  0.140254  0.116616  0.000196  1.004251  0.0
H  H8  1  0.20132635  0.38910960  0.08507811  1  0.116737  -0.000175  0.929818  0.0  0.119044  -0.000163  1.000913  0.0  0.122047  -0.000127  0.996592  0.0  0.14026  0.116628  -0.000196  1.004214  0.0
H  H9  1  0.29867390  0.11088958  0.58507805  1  0.116748  0.000176  0.929842  0.0  0.119056  0.000163  1.000932  0.0  0.122057  0.000127  0.996613  0.0  0.140267  0.116641  0.000196  1.004235  0.0
H  H10  1  0.41541601  0.85816067  0.81755600  1  0.124618  -0.000643  0.978263  -0.001  0.129423  -0.000504  1.046121  -0.001  0.132876  -0.000376  1.043738  -0.001  0.122025  0.126811  -0.000606  1.048049  -0.001
H  H11  1  0.08458567  0.64183985  0.31755680  1  0.124587  0.000642  0.978299  0.001  0.129425  0.000505  1.046106  0.001  0.132876  0.000375  1.043727  0.001  0.122023  0.126797  0.000606  1.048046  0.001
H  H12  1  0.85815900  0.41541492  0.18244354  1  0.124598  -0.000642  0.978285  -0.001  0.129425  -0.000505  1.046102  -0.001  0.132873  -0.000376  1.043735  -0.001  0.12202  0.126796  -0.000606  1.048045  -0.001
H  H13  1  0.64183892  0.08458413  0.68244380  1  0.124582  0.000641  0.978299  0.001  0.129404  0.000505  1.046131  0.001  0.132857  0.000375  1.043746  0.001  0.122026  0.126794  0.000606  1.048065  0.001
H  H14  1  0.58458324  0.14184044  0.18244442  1  0.124592  -0.000641  0.978304  -0.001  0.129421  -0.000505  1.046125  -0.001  0.132872  -0.000376  1.043749  -0.001  0.122023  0.1268  -0.000606  1.048062  -0.001
H  H15  1  0.91541645  0.35815991  0.68244363  1  0.124599  0.000641  0.978286  0.001  0.129413  0.000504  1.046129  0.001  0.132866  0.000375  1.043744  0.001  0.122025  0.126801  0.000606  1.048059  0.001
H  H16  1  0.14184258  0.58458617  0.81755689  1  0.124584  -0.000642  0.978353  -0.001  0.129419  -0.000505  1.046163  -0.001  0.132867  -0.000376  1.043794  -0.001  0.122009  0.126801  -0.000606  1.048097  -0.001
H  H17  1  0.35816204  0.91541564  0.31755663  1  0.12458  0.000643  0.978313  0.001  0.129401  0.000505  1.046153  0.001  0.132854  0.000375  1.04377  0.001  0.122017  0.126785  0.000606  1.048092  0.001
H  H18  1  0.78063749  0.98899204  0.80691405  1  0.106336  -0.000132  0.980201  -0.001  0.111086  -0.000299  1.047842  -0.001  0.113182  -0.000197  1.046637  -0.001  0.117758  0.109425  -0.000389  1.048971  -0.001
H  H19  1  0.71936537  0.51100704  0.30691586  1  0.10636  0.000132  0.980219  0.001  0.111117  0.0003  1.04785  0.001  0.113213  0.000197  1.046641  0.001  0.117763  0.109452  0.000389  1.048979  0.001
H  H20  1  0.98899212  0.78063577  0.19308518  1  0.10634  -0.000133  0.980207  -0.001  0.111113  -0.000299  1.047814  -0.001  0.113209  -0.000197  1.046607  -0.001  0.117766  0.10945  -0.000389  1.048943  -0.001
H  H21  1  0.51100678  0.71936340  0.69308442  1  0.106337  0.000132  0.980238  0.001  0.1111  0.000299  1.04786  0.001  0.113194  0.000197  1.046653  0.001  0.11775  0.109436  0.000389  1.048987  0.001
H  H22  1  0.21936231  0.01100774  0.19308496  1  0.106322  -0.000132  0.98023  -0.001  0.111102  -0.000299  1.047819  -0.001  0.113196  -0.000197  1.046614  -0.001  0.11776  0.109436  -0.000389  1.048952  -0.001
H  H23  1  0.28063559  0.48899274  0.69308315  1  0.106366  0.000132  0.980222  0.001  0.111118  0.000299  1.04786  0.001  0.113213  0.000197  1.046654  0.001  0.117761  0.109453  0.000389  1.048987  0.001
H  H24  1  0.01101007  0.21936663  0.80691454  1  0.10635  -0.000133  0.980196  -0.001  0.111112  -0.000299  1.047827  -0.001  0.113207  -0.000197  1.046622  -0.001  0.117778  0.109448  -0.000389  1.048958  -0.001
H  H25  1  0.48899357  0.28063506  0.30691529  1  0.106329  0.000132  0.980219  0.001  0.111091  0.000299  1.04785  0.001  0.113187  0.000197  1.046642  0.001  0.117765  0.10943  0.000389  1.048974  0.001
H  H26  1  0.21475587  0.78524550  0.97195248  1  0.098855  -0.000257  0.954596  -0.001  0.1017  -0.000182  1.029516  0.0  0.103143  -9.8e-05  1.02828  0.0  0.127787  0.100481  -0.000261  1.030636  0.0
H  H27  1  0.28524544  0.71475362  0.47195291  1  0.098853  0.000258  0.954586  0.001  0.101697  0.000182  1.029505  0.0  0.103141  9.8e-05  1.028266  0.0  0.12779  0.100485  0.000261  1.030622  0.0
H  H28  1  0.78524509  0.21475427  0.02804866  1  0.098888  -0.000256  0.954628  -0.001  0.101736  -0.000182  1.029526  0.0  0.103178  -9.8e-05  1.028291  0.0  0.127805  0.100518  -0.000261  1.030651  0.0
H  H29  1  0.71475436  0.28524616  0.52804965  1  0.098896  0.00026  0.954629  0.001  0.101743  0.000182  1.029527  0.0  0.103188  9.8e-05  1.028288  0.0  0.127809  0.100531  0.000261  1.030648  0.0
H  H30  1  0.28896467  0.71103546  0.07513664  1  0.103774  6.1e-05  0.963282  0.0  0.107648  2e-06  1.037417  0.0  0.109901  4e-06  1.035439  0.0  0.1294  0.105848  -2e-06  1.038992  0.0
H  H31  1  0.21103497  0.78896519  0.57513693  1  0.103784  -6.1e-05  0.963267  0.0  0.107649  -2e-06  1.037404  0.0  0.109903  -4e-06  1.035425  0.0  0.129403  0.105853  2e-06  1.038981  0.0
H  H32  1  0.71103684  0.28896299  0.92486308  1  0.103747  6.2e-05  0.963268  0.0  0.107595  2e-06  1.037424  0.0  0.109849  4e-06  1.035445  0.0  0.129368  0.1058  -2e-06  1.038998  0.0
H  H33  1  0.78896258  0.21103725  0.42486349  1  0.103773  -5.9e-05  0.963257  0.0  0.107616  -2e-06  1.037412  0.0  0.109872  -4e-06  1.035431  0.0  0.129378  0.105822  2e-06  1.038988  0.0
C  C34  1  0.61186883  0.83647087  0.01131368  1  0.172298  0.006924  3.611085  0.007  0.11137  0.001391  3.888391  0.001  0.127896  0.002282  3.899174  0.003  0.1475  0.100773  0.000723  3.881181  0.001
C  C35  1  0.88812937  0.66352708  0.51131490  1  0.172385  -0.006926  3.611044  -0.007  0.11147  -0.001391  3.888324  -0.001  0.127981  -0.002282  3.899097  -0.003  0.14755  0.100876  -0.000723  3.881116  -0.001
C  C36  1  0.83647235  0.61186802  0.98868575  1  0.172322  0.006914  3.611075  0.007  0.111427  0.001391  3.888381  0.001  0.127927  0.002282  3.899151  0.003  0.147513  0.100835  0.000723  3.881164  0.001
C  C37  1  0.66352711  0.88813100  0.48868518  1  0.172323  -0.006931  3.611088  -0.007  0.11144  -0.00139  3.888362  -0.001  0.127936  -0.002282  3.899127  -0.003  0.147509  0.100847  -0.000723  3.881147  -0.001
C  C38  1  0.38813090  0.16352628  0.98868533  1  0.172339  0.00695  3.611063  0.007  0.111463  0.001391  3.888334  0.001  0.127952  0.002283  3.8991  0.003  0.147531  0.100867  0.000723  3.881117  0.001
C  C39  1  0.11186750  0.33647141  0.48868482  1  0.172245  -0.006934  3.611068  -0.007  0.111329  -0.001391  3.888362  -0.001  0.127863  -0.002282  3.899148  -0.003  0.147479  0.100741  -0.000723  3.881148  -0.001
C  C40  1  0.16352916  0.38813043  0.01131396  1  0.172318  0.006916  3.611019  0.007  0.111398  0.00139  3.888325  0.001  0.127924  0.002282  3.899108  0.003  0.147532  0.100807  0.000723  3.881108  0.001
C  C41  1  0.33647091  0.11186748  0.51131454  1  0.172238  -0.006919  3.61105  -0.007  0.111316  -0.001391  3.88834  -0.001  0.127851  -0.002282  3.899126  -0.003  0.147485  0.100724  -0.000723  3.881132  -0.001
C  C42  1  0.51277226  0.86726147  0.86984546  1  -0.052858  -0.005213  3.627037  -0.005  -0.093659  -0.002694  3.885906  -0.003  -0.093142  -0.002322  3.904456  -0.003  0.002938  -0.093884  -0.003037  3.873433  -0.003
C  C43  1  0.98722845  0.63273628  0.36984609  1  -0.052783  0.005224  3.626988  0.005  -0.093593  0.002694  3.88583  0.003  -0.093074  0.002322  3.904372  0.003  0.002956  -0.093802  0.003037  3.873377  0.003
C  C44  1  0.86726052  0.51277109  0.13015472  1  -0.052829  -0.005221  3.62709  -0.005  -0.093631  -0.002693  3.885944  -0.003  -0.093116  -0.002322  3.904486  -0.003  0.002956  -0.093843  -0.003037  3.873493  -0.003
C  C45  1  0.63273643  0.98722813  0.63015465  1  -0.052764  0.005234  3.627028  0.005  -0.093566  0.002694  3.885888  0.003  -0.093046  0.002322  3.904432  0.003  0.002965  -0.093799  0.003037  3.873428  0.003
C  C46  1  0.48722692  0.13273700  0.13015496  1  -0.052795  -0.00523  3.627063  -0.005  -0.093605  -0.002693  3.885925  -0.003  -0.093088  -0.002322  3.904469  -0.003  0.002946  -0.093828  -0.003037  3.873481  -0.003
C  C47  1  0.01277190  0.36726218  0.63015434  1  -0.052861  0.005228  3.627056  0.005  -0.093664  0.002694  3.885922  0.003  -0.093144  0.002322  3.904468  0.003  0.002925  -0.093894  0.003037  3.873468  0.003
C  C48  1  0.13273928  0.48722870  0.86984499  1  -0.052856  -0.005228  3.627126  -0.005  -0.09366  -0.002693  3.885968  -0.003  -0.093145  -0.002322  3.904517  -0.003  0.002947  -0.093873  -0.003037  3.8735  -0.003
C  C49  1  0.36726337  0.01277165  0.36984577  1  -0.05284  0.005214  3.627058  0.005  -0.093653  0.002694  3.88593  0.003  -0.093134  0.002322  3.904476  0.003  0.002933  -0.093885  0.003037  3.873469  0.003
C  C50  1  0.69215859  0.93525127  0.86661518  1  0.009016  -0.00061  3.711717  -0.001  -0.020267  -0.00147  3.980749  -0.001  -0.01721  -0.000533  4.001813  0.0  0.001878  -0.022163  -0.002177  3.966816  -0.002
C  C51  1  0.80784275  0.56474780  0.36661542  1  0.00898  0.000602  3.711708  0.001  -0.020316  0.001469  3.980731  0.001  -0.017256  0.000533  4.001799  0.0  0.001894  -0.022204  0.002176  3.966789  0.002
C  C52  1  0.93524983  0.69215631  0.13338485  1  0.009027  -0.0006  3.711712  -0.001  -0.020279  -0.001472  3.980725  -0.001  -0.017222  -0.000532  4.001791  0.0  0.0019  -0.022172  -0.002177  3.966783  -0.002
C  C53  1  0.56474710  0.80784291  0.63338477  1  0.009001  0.000593  3.711732  0.001  -0.020293  0.00147  3.98076  0.001  -0.017234  0.000533  4.001832  0.0  0.001906  -0.022179  0.002177  3.966819  0.002
C  C54  1  0.30784175  0.06474719  0.13338454  1  0.009026  -0.000598  3.711711  -0.001  -0.020266  -0.00147  3.980718  -0.001  -0.01721  -0.000532  4.001786  0.0  0.001905  -0.022155  -0.002177  3.966776  -0.002
C  C55  1  0.19215705  0.43525199  0.63338358  1  0.009006  0.000599  3.711655  0.001  -0.020278  0.00147  3.980667  0.001  -0.017217  0.000533  4.001735  0.0  0.001924  -0.022166  0.002176  3.966728  0.002
C  C56  1  0.06474997  0.30784348  0.86661486  1  0.009009  -0.000595  3.711718  -0.001  -0.020299  -0.00147  3.980732  -0.001  -0.017241  -0.000533  4.001792  0.0  0.00188  -0.022193  -0.002177  3.966805  -0.002
C  C57  1  0.43525208  0.19215556  0.36661566  1  0.009038  0.00061  3.711697  0.001  -0.020257  0.00147  3.980718  0.001  -0.017197  0.000533  4.001789  0.0  0.001927  -0.022148  0.002177  3.966778  0.002
C  C58  1  0.28543160  0.71456949  0.99709325  1  0.073194  -0.001781  3.599737  -0.002  0.001821  -0.001325  3.833592  -0.002  0.009683  -0.000992  3.843434  -0.001  0.054097  -0.003357  -0.001622  3.827246  -0.002
C  C59  1  0.21456901  0.78543095  0.49709319  1  0.0732  0.001779  3.599687  0.002  0.00181  0.001324  3.833595  0.002  0.009672  0.000992  3.843438  0.001  0.05411  -0.003372  0.001622  3.827257  0.002
C  C60  1  0.71456874  0.28542897  0.00290788  1  0.073235  -0.001785  3.599704  -0.002  0.001885  -0.001325  3.833591  -0.002  0.009748  -0.000992  3.843431  -0.001  0.054144  -0.003302  -0.001622  3.827255  -0.002
C  C61  1  0.78542847  0.21456886  0.50290795  1  0.073149  0.001771  3.599726  0.002  0.001789  0.001324  3.833632  0.002  0.009651  0.000993  3.843472  0.001  0.05413  -0.003397  0.001622  3.827299  0.002
N  N62  1  0.75196262  0.91756232  0.95526204  1  -0.346332  -0.083812  3.336891  -0.105  -0.303505  -0.057524  3.645129  -0.076  -0.333592  -0.047953  3.66654  -0.066  -0.370992  -0.284817  -0.063368  3.631562  -0.081
N  N63  1  0.74803937  0.58243669  0.45526243  1  -0.346335  0.083816  3.336807  0.105  -0.303496  0.057527  3.64503  0.076  -0.333609  0.047953  3.66648  0.066  -0.371011  -0.284829  0.063369  3.631493  0.081
N  N64  1  0.91756359  0.75195996  0.04473725  1  -0.346325  -0.083812  3.336854  -0.105  -0.303482  -0.057524  3.645065  -0.076  -0.333571  -0.047955  3.666488  -0.066  -0.370993  -0.284797  -0.063372  3.631494  -0.081
N  N65  1  0.58243619  0.74803928  0.54473636  1  -0.346325  0.083818  3.336846  0.105  -0.303487  0.057526  3.645058  0.076  -0.333603  0.047952  3.666518  0.066  -0.370996  -0.284819  0.063369  3.631516  0.081
N  N66  1  0.24803711  0.08243482  0.04473696  1  -0.346358  -0.083825  3.336858  -0.105  -0.30354  -0.057523  3.645109  -0.076  -0.333626  -0.047954  3.666525  -0.066  -0.371026  -0.28485  -0.063369  3.631534  -0.081
N  N67  1  0.25196160  0.41756308  0.54473586  1  -0.346277  0.083822  3.336796  0.105  -0.303446  0.057528  3.645017  0.076  -0.33356  0.047954  3.666461  0.066  -0.370976  -0.28478  0.063369  3.631477  0.081
N  N68  1  0.08243676  0.24803850  0.95526176  1  -0.346322  -0.08381  3.336869  -0.105  -0.303493  -0.057523  3.645112  -0.076  -0.333579  -0.047954  3.666521  -0.066  -0.371004  -0.28481  -0.063367  3.63155  -0.081
N  N69  1  0.41756307  0.25196183  0.45526335  1  -0.346299  0.083812  3.336802  0.105  -0.303456  0.057527  3.64502  0.076  -0.333569  0.047954  3.666458  0.066  -0.371001  -0.284786  0.063368  3.63148  0.081
N  N70  1  0.46460177  0.80491598  0.96160871  1  -0.071093  -0.001626  3.56306  -0.002  0.017278  -0.001138  3.785566  -0.001  0.002344  -0.000757  3.811021  -0.001  -0.242031  0.027164  -0.001457  3.768154  -0.002
N  N71  1  0.03539906  0.69508448  0.46160966  1  -0.0712  0.001625  3.563037  0.002  0.01716  0.00114  3.785559  0.001  0.002224  0.000757  3.811018  0.001  -0.242083  0.027051  0.001457  3.768139  0.002
N  N72  1  0.80491456  0.46460005  0.03839154  1  -0.071139  -0.00162  3.563076  -0.002  0.017219  -0.001139  3.785587  -0.001  0.002286  -0.000757  3.811049  -0.001  -0.242069  0.027107  -0.001457  3.76817  -0.002
N  N73  1  0.69508483  0.03540038  0.53839093  1  -0.071174  0.001626  3.563082  0.002  0.017178  0.001139  3.785601  0.001  0.002241  0.000757  3.811065  0.001  -0.242084  0.027069  0.001457  3.768188  0.002
N  N74  1  0.53539919  0.19508380  0.03839100  1  -0.071175  -0.00163  3.563079  -0.002  0.017172  -0.001138  3.785605  -0.001  0.002237  -0.000757  3.81107  -0.001  -0.242064  0.027063  -0.001457  3.768184  -0.002
N  N75  1  0.96459958  0.30491532  0.53839076  1  -0.071032  0.001628  3.562958  0.002  0.017328  0.00114  3.785464  0.001  0.002393  0.000758  3.810918  0.001  -0.242044  0.027215  0.001457  3.768052  0.002
N  N76  1  0.19508640  0.53539972  0.96160817  1  -0.071079  -0.00162  3.56299  -0.002  0.017271  -0.001139  3.785522  -0.001  0.002339  -0.000757  3.810977  -0.001  -0.242049  0.027163  -0.001457  3.768101  -0.002
N  N77  1  0.30491381  0.96459942  0.46160949  1  -0.071023  0.001624  3.562943  0.002  0.017341  0.00114  3.785454  0.001  0.002405  0.000758  3.810909  0.001  -0.242039  0.02723  0.001457  3.768043  0.002
N  N78  1  0.10476279  0.89523977  0.76101072  1  0.694089  0.000105  4.165385  0.0  0.737326  8.8e-05  4.441392  0.0  0.76466  8.4e-05  4.447652  0.0  0.095038  0.719041  0.000103  4.436425  0.0
N  N79  1  0.39523698  0.60476343  0.26101009  1  0.693916  -9.9e-05  4.165506  0.0  0.737349  -9.1e-05  4.441277  0.0  0.764681  -7.4e-05  4.447533  0.0  0.095021  0.719056  -0.000103  4.436318  0.0
N  N80  1  0.89523770  0.10476397  0.23899113  1  0.693911  0.000101  4.16554  0.0  0.737211  8.8e-05  4.441442  0.0  0.764545  8.4e-05  4.447699  0.0  0.095025  0.718924  0.000103  4.436472  0.0
N  N81  1  0.60476283  0.39523635  0.73898962  1  0.693901  -0.000102  4.165461  0.0  0.737347  -8.7e-05  4.441208  0.0  0.764683  -7.5e-05  4.447462  0.0  0.095034  0.719059  -0.000103  4.436242  0.0
O  O82  1  0.09956651  0.90043121  0.85147621  1  -0.512325  0.001242  1.789312  0.0  -0.514886  0.001125  2.031887  0.0  -0.530861  0.001153  2.022425  0.001  -0.216216  -0.50403  0.001051  2.038503  0.0
O  O83  1  0.40043312  0.59956535  0.35147486  1  -0.512258  -0.00125  1.789321  0.0  -0.514865  -0.001122  2.03182  0.0  -0.530851  -0.001159  2.022367  -0.001  -0.216191  -0.504016  -0.001051  2.03845  0.0
O  O84  1  0.90043260  0.09956462  0.14852564  1  -0.512214  0.001245  1.789268  0.0  -0.514796  0.001125  2.03183  0.0  -0.530766  0.001155  2.022358  0.001  -0.216157  -0.503935  0.001051  2.03844  0.0
O  O85  1  0.59956729  0.40043575  0.64852343  1  -0.51227  -0.001253  1.789322  0.0  -0.514887  -0.001122  2.031822  0.0  -0.530873  -0.001161  2.022366  -0.001  -0.21619  -0.504033  -0.001051  2.038445  0.0
O  O86  1  0.18370895  0.81629272  0.72243909  1  -0.50499  -0.00028  1.747699  0.0  -0.490815  -7.1e-05  1.956294  0.0  -0.5055  -1e-06  1.951004  0.0  -0.214572  -0.480289  -0.00024  1.959729  0.0
O  O87  1  0.31629050  0.68371183  0.22244085  1  -0.50491  0.000286  1.7476  0.0  -0.490856  6.9e-05  1.956195  0.0  -0.505534  -1e-06  1.950897  0.0  -0.21458  -0.480317  0.000241  1.959623  0.0
O  O88  1  0.81629277  0.18371365  0.27756062  1  -0.504914  -0.00028  1.747716  0.0  -0.490779  -7.2e-05  1.956313  0.0  -0.50548  -3e-06  1.951043  0.0  -0.214571  -0.480242  -0.00024  1.959735  0.0
O  O89  1  0.68371169  0.31629057  0.77755816  1  -0.504891  0.000293  1.747651  0.0  -0.490815  6.6e-05  1.956195  0.0  -0.50551  3e-06  1.950916  0.0  -0.214578  -0.480292  0.000241  1.959638  0.0
O  O90  1  0.03384589  0.96615974  0.71019261  1  -0.470457  -0.000108  1.690542  0.0  -0.464788  -1.7e-05  1.884664  0.0  -0.477067  -0.0  1.879555  0.0  -0.208843  -0.455856  -6.9e-05  1.887854  0.0
O  O91  1  0.46615371  0.53384746  0.21019034  1  -0.470369  0.000106  1.690567  0.0  -0.464779  1.8e-05  1.884642  0.0  -0.477056  1e-06  1.87953  0.0  -0.208842  -0.455848  6.9e-05  1.887849  0.0
O  O92  1  0.96615235  0.03384667  0.28981138  1  -0.4704  -0.000107  1.690539  0.0  -0.464775  -1.7e-05  1.884659  0.0  -0.47705  -1e-06  1.879547  0.0  -0.208882  -0.455858  -6.9e-05  1.887875  0.0
O  O93  1  0.53384787  0.46615363  0.78981080  1  -0.470367  0.000105  1.690496  0.0  -0.464782  1.9e-05  1.884556  0.0  -0.477058  -0.0  1.879448  0.0  -0.208858  -0.455858  6.9e-05  1.887767  0.0
