# generated using pymatgen
data_YH14C12ClO
_symmetry_space_group_name_H-M   'P 1'
_cell_length_a   8.12679688
_cell_length_b   8.15543740
_cell_length_c   10.33927565
_cell_angle_alpha   89.15291477
_cell_angle_beta   72.97424373
_cell_angle_gamma   60.32944321
_symmetry_Int_Tables_number   1
_chemical_formula_structural   YH14C12ClO
_chemical_formula_sum   'Y2 H28 C24 Cl2 O2'
_cell_volume   562.28974267
_cell_formula_units_Z   2
loop_
 _symmetry_equiv_pos_site_id
 _symmetry_equiv_pos_as_xyz
  1  'x, y, z'
loop_
 _atom_site_type_symbol
 _atom_site_label
 _atom_site_symmetry_multiplicity
 _atom_site_fract_x
 _atom_site_fract_y
 _atom_site_fract_z
 _atom_site_occupancy
 _atom_site_pbe_bader_spin_density
 _atom_site_pbe_cm5_charge
 _atom_site_pbe_ddec_charge
 _atom_site_pbe_ddec_spin_density
 _atom_site_pbe_ddec_sum_bond_order
 _atom_site_pbe_magmom
Y  Y0  1  0.22686516  0.96356770  0.80679449  1  0  0.874684  1.295455  0  2.602641  0
Y  Y1  1  0.77313538  0.03643017  0.19320670  1  0  0.874675  1.29546  0  2.602613  0
H  H2  1  0.71658643  0.74363842  0.67294747  1  0  0.097852  0.114338  0  1.03395  0
H  H3  1  0.28341181  0.25636373  0.32705226  1  0  0.097852  0.114355  0  1.03394  0
H  H4  1  0.53908918  0.65173974  0.52839571  1  0  0.097761  0.118262  0  1.051622  0
H  H5  1  0.46091059  0.34825955  0.47160370  1  0  0.09776  0.11826  0  1.051622  0
H  H6  1  0.30073733  0.54070235  0.70395683  1  0  0.100842  0.12625  0  1.031357  0
H  H7  1  0.69926527  0.45929409  0.29604390  1  0  0.100845  0.126264  0  1.031328  0
H  H8  1  0.32845528  0.57572362  0.95169545  1  0  0.104087  0.123713  0  1.023546  0
H  H9  1  0.67154759  0.42427710  0.04830420  1  0  0.104101  0.123728  0  1.023552  0
H  H10  1  0.58181307  0.70313560  0.93456264  1  0  0.103046  0.125803  0  1.027345  0
H  H11  1  0.41818722  0.29686511  0.06543567  1  0  0.103048  0.12581  0  1.027321  0
H  H12  1  0.55471270  0.05053305  0.58935980  1  0  0.100714  0.11419  0  1.044604  0
H  H13  1  0.44528733  0.94946339  0.41064056  1  0  0.100728  0.114268  0  1.044488  0
H  H14  1  0.52127759  0.10110801  0.85593714  1  0  0.093088  0.119737  0  1.046704  0
H  H15  1  0.47872219  0.89889129  0.14406324  1  0  0.093081  0.119722  0  1.046705  0
H  H16  1  0.12945859  0.33804157  0.99828727  1  0  0.099682  0.123746  0  1.032121  0
H  H17  1  0.87053990  0.66195772  0.00171147  1  0  0.0997  0.123784  0  1.032081  0
H  H18  1  0.92269056  0.43361911  0.82125197  1  0  0.096804  0.11677  0  1.057806  0
H  H19  1  0.07730870  0.56637875  0.17874759  1  0  0.09681  0.116776  0  1.057783  0
H  H20  1  0.18718038  0.25392081  0.56883759  1  0  0.099079  0.113472  0  1.03441  0
H  H21  1  0.81282170  0.74607419  0.43116134  1  0  0.099072  0.113471  0  1.034436  0
H  H22  1  0.88279121  0.26892864  0.66716096  1  0  0.115803  0.103109  0  0.997646  0
H  H23  1  0.11720368  0.73107494  0.33284145  1  0  0.115781  0.103044  0  0.997606  0
H  H24  1  0.77605458  0.12380970  0.67018740  1  0  0.103478  0.089129  0  1.001651  0
H  H25  1  0.22394237  0.87619244  0.32981167  1  0  0.103481  0.089097  0  1.001727  0
H  H26  1  0.99209359  0.78971934  0.58943102  1  0  0.102806  0.073701  0  0.983466  0
H  H27  1  0.00790568  0.21028567  0.41057037  1  0  0.10281  0.073737  0  0.983464  0
H  H28  1  0.25667760  0.69471142  0.52249953  1  0  0.113186  0.096002  0  1.025878  0
H  H29  1  0.74332321  0.30529073  0.47750154  1  0  0.113174  0.09598  0  1.025935  0
C  C30  1  0.61167731  0.69488999  0.71244311  1  0  -0.166348  -0.202763  0  4.122444  0
C  C31  1  0.38832503  0.30510930  0.28755668  1  0  -0.166334  -0.202762  0  4.122471  0
C  C32  1  0.51658460  0.64717242  0.63702450  1  0  -0.173961  -0.228095  0  4.105019  0
C  C33  1  0.48341723  0.35282544  0.36297543  1  0  -0.173929  -0.228034  0  4.105035  0
C  C34  1  0.39211016  0.58971443  0.72842336  1  0  -0.163129  -0.197285  0  4.070852  0
C  C35  1  0.60789090  0.41028486  0.27157769  1  0  -0.163155  -0.197359  0  4.070917  0
C  C36  1  0.40808465  0.60556708  0.85941872  1  0  -0.154635  -0.170131  0  4.061042  0
C  C37  1  0.59191770  0.39443221  0.14058203  1  0  -0.154627  -0.170089  0  4.061069  0
C  C38  1  0.54237976  0.67203420  0.85019417  1  0  -0.162992  -0.204545  0  4.090502  0
C  C39  1  0.45762182  0.32796652  0.14980481  1  0  -0.163038  -0.20463  0  4.090589  0
C  C40  1  0.41674884  0.13656147  0.67400497  1  0  -0.165302  -0.212849  0  4.117685  0
C  C41  1  0.58325042  0.86343640  0.32599458  1  0  -0.165308  -0.212889  0  4.117658  0
C  C42  1  0.39865693  0.16401485  0.81407663  1  0  -0.169171  -0.209902  0  4.09259  0
C  C43  1  0.60134155  0.83598444  0.18592405  1  0  -0.169153  -0.209839  0  4.092544  0
C  C44  1  0.19338330  0.29036624  0.88859957  1  0  -0.160085  -0.17728  0  4.081443  0
C  C45  1  0.80661518  0.70963305  0.11140014  1  0  -0.160118  -0.177387  0  4.08141  0
C  C46  1  0.08363956  0.33902238  0.79597309  1  0  -0.167925  -0.221566  0  4.095718  0
C  C47  1  0.91635970  0.66097549  0.20402646  1  0  -0.167924  -0.221511  0  4.095696  0
C  C48  1  0.22270177  0.24455502  0.66302911  1  0  -0.162014  -0.197655  0  4.113835  0
C  C49  1  0.77729826  0.75544141  0.33697028  1  0  -0.162012  -0.197713  0  4.113909  0
C  C50  1  0.89821054  0.14615696  0.61169089  1  0  -0.075289  -0.02465  0  3.862851  0
C  C51  1  0.10179130  0.85384805  0.38831087  1  0  -0.075256  -0.024515  0  3.862745  0
C  C52  1  0.11047797  0.81789849  0.53069763  1  0  -0.069886  -0.014604  0  3.875731  0
C  C53  1  0.88952002  0.18210652  0.46930309  1  0  -0.069937  -0.01472  0  3.875905  0
Cl  Cl54  1  0.86586353  0.99096557  0.90953385  1  0  -0.26875  -0.535789  0  1.245157  0
Cl  Cl55  1  0.13413496  0.00903373  0.09046683  1  0  -0.268745  -0.535787  0  1.24516  0
O  O56  1  0.08874207  0.97973344  0.60587369  1  0  -0.243398  -0.256558  0  2.545548  0
O  O57  1  0.91125772  0.02027300  0.39412854  1  0  -0.24341  -0.256525  0  2.54556  0
