# generated using pymatgen
data_LiH7(C7O2)2
_symmetry_space_group_name_H-M   'P 1'
_cell_length_a   3.57462501
_cell_length_b   15.73915540
_cell_length_c   18.06229150
_cell_angle_alpha   89.99915151
_cell_angle_beta   90.00005835
_cell_angle_gamma   89.99992757
_symmetry_Int_Tables_number   1
_chemical_formula_structural   LiH7(C7O2)2
_chemical_formula_sum   'Li4 H28 C56 O16'
_cell_volume   1016.21303179
_cell_formula_units_Z   4
loop_
 _symmetry_equiv_pos_site_id
 _symmetry_equiv_pos_as_xyz
  1  'x, y, z'
loop_
 _atom_site_type_symbol
 _atom_site_label
 _atom_site_symmetry_multiplicity
 _atom_site_fract_x
 _atom_site_fract_y
 _atom_site_fract_z
 _atom_site_occupancy
 _atom_site_hle17_bader_spin_density
 _atom_site_hle17_ddec_charge
 _atom_site_hle17_ddec_spin_density
 _atom_site_hle17_ddec_sum_bond_order
 _atom_site_hle17_magmom
 _atom_site_hse06_10hf_bader_spin_density
 _atom_site_hse06_10hf_ddec_charge
 _atom_site_hse06_10hf_ddec_spin_density
 _atom_site_hse06_10hf_ddec_sum_bond_order
 _atom_site_hse06_10hf_magmom
 _atom_site_hse06_bader_spin_density
 _atom_site_hse06_ddec_charge
 _atom_site_hse06_ddec_spin_density
 _atom_site_hse06_ddec_sum_bond_order
 _atom_site_hse06_magmom
 _atom_site_pbe_bader_spin_density
 _atom_site_pbe_cm5_charge
 _atom_site_pbe_ddec_charge
 _atom_site_pbe_ddec_spin_density
 _atom_site_pbe_ddec_sum_bond_order
 _atom_site_pbe_magmom
Li  Li0  1  0.02977417  0.30002732  0.53458366  1  0  0.865503  0  0.368813  0  0  0.830031  0  0.459766  0  0  0.839069  0  0.444637  0  0  0.527496  0.823375  0  0.470685  0
Li  Li1  1  0.47023241  0.69997301  0.03458318  1  0  0.86551  0  0.368779  0  0  0.830028  0  0.459746  0  0  0.839105  0  0.444559  0  0  0.527485  0.823365  0  0.470669  0
Li  Li2  1  0.52977076  0.19997292  0.46541705  1  0  0.865527  0  0.368778  0  0  0.830054  0  0.459724  0  0  0.839106  0  0.444577  0  0  0.527507  0.823401  0  0.470644  0
Li  Li3  1  0.97022501  0.80003055  0.96541688  1  0  0.865511  0  0.368782  0  0  0.830027  0  0.459754  0  0  0.839103  0  0.444566  0  0  0.527495  0.823371  0  0.470676  0
H  H4  1  0.23167112  0.48243154  0.17814936  1  0  0.381524  0  0.902764  0  0  0.353909  0  0.975882  0  0  0.367222  0  0.961768  0  0  0.304911  0.344559  0  0.985637  0
H  H5  1  0.26828291  0.51757011  0.67814993  1  0  0.381507  0  0.902662  0  0  0.353988  0  0.975644  0  0  0.367303  0  0.961523  0  0  0.304928  0.344642  0  0.985396  0
H  H6  1  0.73171198  0.01756863  0.82184974  1  0  0.381472  0  0.902709  0  0  0.353956  0  0.975674  0  0  0.367239  0  0.961622  0  0  0.304913  0.34461  0  0.985429  0
H  H7  1  0.76826921  0.98242653  0.32185285  1  0  0.381493  0  0.902686  0  0  0.35393  0  0.975741  0  0  0.367241  0  0.961637  0  0  0.304933  0.344582  0  0.985498  0
H  H8  1  0.64872728  0.66946140  0.30097872  1  0  0.097573  0  0.97042  0  0  0.104896  0  1.038827  0  0  0.108064  0  1.03752  0  0  0.103661  0.102663  0  1.039739  0
H  H9  1  0.85129020  0.33053413  0.80098277  1  0  0.097673  0  0.970337  0  0  0.105006  0  1.038718  0  0  0.108168  0  1.037431  0  0  0.103706  0.102773  0  1.039636  0
H  H10  1  0.14870325  0.83053083  0.69901684  1  0  0.097687  0  0.970369  0  0  0.105025  0  1.038734  0  0  0.108185  0  1.037452  0  0  0.10369  0.102792  0  1.039653  0
H  H11  1  0.35129282  0.16946918  0.19902245  1  0  0.097622  0  0.970435  0  0  0.104954  0  1.038809  0  0  0.108107  0  1.037549  0  0  0.10365  0.102722  0  1.03973  0
H  H12  1  0.80633651  0.19738453  0.30735465  1  0  0.123965  0  0.936579  0  0  0.131435  0  0.99863  0  0  0.13578  0  0.994823  0  0  0.118959  0.128277  0  1.001535  0
H  H13  1  0.69363902  0.80261915  0.80735106  1  0  0.12396  0  0.936553  0  0  0.131436  0  0.998594  0  0  0.135781  0  0.994782  0  0  0.118947  0.128277  0  1.001498  0
H  H14  1  0.30634336  0.30262134  0.69264779  1  0  0.123992  0  0.936456  0  0  0.131452  0  0.998525  0  0  0.135799  0  0.994715  0  0  0.118932  0.12829  0  1.001435  0
H  H15  1  0.19366946  0.69738514  0.19264782  1  0  0.123995  0  0.936541  0  0  0.131461  0  0.998584  0  0  0.135806  0  0.994774  0  0  0.118962  0.1283  0  1.001486  0
H  H16  1  0.85751288  0.74542760  0.41560990  1  0  0.082615  0  0.972996  0  0  0.091388  0  1.040017  0  0  0.094443  0  1.038207  0  0  0.098766  0.089216  0  1.041334  0
H  H17  1  0.64249948  0.25457038  0.91561541  1  0  0.082622  0  0.972967  0  0  0.091378  0  1.040006  0  0  0.094431  0  1.038199  0  0  0.098771  0.089207  0  1.041322  0
H  H18  1  0.35747474  0.75456774  0.58438349  1  0  0.082687  0  0.972901  0  0  0.091394  0  1.039996  0  0  0.094449  0  1.038184  0  0  0.098768  0.089224  0  1.041312  0
H  H19  1  0.14251806  0.24543427  0.08438865  1  0  0.082749  0  0.972882  0  0  0.091485  0  1.039953  0  0  0.094539  0  1.038144  0  0  0.098786  0.089315  0  1.041273  0
H  H20  1  0.83537130  0.27409108  0.18733950  1  0  0.107677  0  0.954981  0  0  0.120006  0  1.01438  0  0  0.122561  0  1.013303  0  0  0.108158  0.118154  0  1.015247  0
H  H21  1  0.66456457  0.72591151  0.68733466  1  0  0.107714  0  0.954964  0  0  0.12002  0  1.01437  0  0  0.122589  0  1.013273  0  0  0.108187  0.118169  0  1.015235  0
H  H22  1  0.33542656  0.22591096  0.81266516  1  0  0.107716  0  0.954948  0  0  0.120038  0  1.014338  0  0  0.122607  0  1.013243  0  0  0.108183  0.118185  0  1.015206  0
H  H23  1  0.16458677  0.77408580  0.31266533  1  0  0.107719  0  0.954965  0  0  0.120016  0  1.014389  0  0  0.122584  0  1.013295  0  0  0.108163  0.118163  0  1.015256  0
H  H24  1  0.54303311  0.52774584  0.54591862  1  0  0.119307  0  0.945828  0  0  0.126311  0  1.007219  0  0  0.131363  0  1.002862  0  0  0.115321  0.122641  0  1.01054  0
H  H25  1  0.95697771  0.47225095  0.04591989  1  0  0.119323  0  0.945785  0  0  0.126326  0  1.007176  0  0  0.131373  0  1.002819  0  0  0.11534  0.122653  0  1.010496  0
H  H26  1  0.04303539  0.97225533  0.45407857  1  0  0.119246  0  0.945843  0  0  0.126232  0  1.007252  0  0  0.131279  0  1.002895  0  0  0.115299  0.12256  0  1.010574  0
H  H27  1  0.45698971  0.02775041  0.95408093  1  0  0.11935  0  0.945769  0  0  0.126329  0  1.007178  0  0  0.131374  0  1.002821  0  0  0.115333  0.122658  0  1.010501  0
H  H28  1  0.82242710  0.67178218  0.53748083  1  0  0.088911  0  0.954266  0  0  0.099232  0  1.016417  0  0  0.102266  0  1.014801  0  0  0.101352  0.097001  0  1.017722  0
H  H29  1  0.67757529  0.32821349  0.03748772  1  0  0.088787  0  0.954396  0  0  0.099164  0  1.016531  0  0  0.102215  0  1.014894  0  0  0.101318  0.096935  0  1.017833  0
H  H30  1  0.32240770  0.82821444  0.46251200  1  0  0.088818  0  0.954362  0  0  0.099207  0  1.016492  0  0  0.102241  0  1.014877  0  0  0.101346  0.096978  0  1.017793  0
H  H31  1  0.17759785  0.17178988  0.96251579  1  0  0.088874  0  0.954369  0  0  0.099201  0  1.016555  0  0  0.102252  0  1.014918  0  0  0.101353  0.096971  0  1.017857  0
C  C32  1  0.47200702  0.55797082  0.35969011  1  0  -0.047597  0  3.770827  0  0  -0.034209  0  4.001282  0  0  -0.040251  0  4.024889  0  0  -0.014668  -0.030255  0  3.985331  0
C  C33  1  0.02800650  0.44202640  0.85969047  1  0  -0.047562  0  3.770829  0  0  -0.034155  0  4.001238  0  0  -0.040194  0  4.024845  0  0  -0.014656  -0.0302  0  3.98529  0
C  C34  1  0.97199763  0.94202448  0.64030663  1  0  -0.047416  0  3.770806  0  0  -0.034081  0  4.001253  0  0  -0.040121  0  4.024858  0  0  -0.01467  -0.030126  0  3.985303  0
C  C35  1  0.52800519  0.05797575  0.14031135  1  0  -0.047448  0  3.770807  0  0  -0.034032  0  4.001223  0  0  -0.040062  0  4.024825  0  0  -0.014619  -0.030085  0  3.985276  0
C  C36  1  0.20216350  0.42833292  0.29921518  1  0  -0.196252  0  3.806123  0  0  -0.191875  0  4.055771  0  0  -0.205362  0  4.085258  0  0  -0.039019  -0.182841  0  4.035927  0
C  C37  1  0.29783299  0.57166407  0.79921065  1  0  -0.196146  0  3.806043  0  0  -0.191843  0  4.055679  0  0  -0.205331  0  4.085159  0  0  -0.038941  -0.182807  0  4.035841  0
C  C38  1  0.70216725  0.07166472  0.70078724  1  0  -0.19625  0  3.80611  0  0  -0.191947  0  4.055778  0  0  -0.205434  0  4.085256  0  0  -0.039026  -0.182915  0  4.035951  0
C  C39  1  0.79782463  0.92833510  0.20079214  1  0  -0.196139  0  3.805965  0  0  -0.191874  0  4.055712  0  0  -0.205363  0  4.085193  0  0  -0.038942  -0.182808  0  4.035778  0
C  C40  1  0.43777709  0.51789946  0.42915441  1  0  -0.046955  0  3.733464  0  0  -0.032734  0  3.96063  0  0  -0.037807  0  3.984008  0  0  -0.006746  -0.029414  0  3.944765  0
C  C41  1  0.06221434  0.48210036  0.92915538  1  0  -0.047118  0  3.733451  0  0  -0.032873  0  3.960595  0  0  -0.037951  0  3.983979  0  0  -0.006729  -0.029548  0  3.944728  0
C  C42  1  0.93777002  0.98209776  0.57084232  1  0  -0.047077  0  3.733289  0  0  -0.032878  0  3.960476  0  0  -0.037944  0  3.983835  0  0  -0.00676  -0.029552  0  3.944605  0
C  C43  1  0.56224649  0.01790559  0.07084423  1  0  -0.047128  0  3.733578  0  0  -0.03289  0  3.960699  0  0  -0.037975  0  3.984093  0  0  -0.006802  -0.029565  0  3.944835  0
C  C44  1  0.16950577  0.38632435  0.36964504  1  0  -0.190815  0  3.732541  0  0  -0.18934  0  3.983704  0  0  -0.203223  0  4.012302  0  0  -0.029149  -0.180058  0  3.964585  0
C  C45  1  0.33050220  0.61367333  0.86964331  1  0  -0.190642  0  3.732317  0  0  -0.189084  0  3.983476  0  0  -0.202966  0  4.012074  0  0  -0.029094  -0.179805  0  3.964359  0
C  C46  1  0.66949505  0.11367267  0.63035515  1  0  -0.190697  0  3.732422  0  0  -0.189184  0  3.983556  0  0  -0.203075  0  4.01219  0  0  -0.02909  -0.179903  0  3.964428  0
C  C47  1  0.83049374  0.88632646  0.13035672  1  0  -0.190749  0  3.732396  0  0  -0.189193  0  3.983529  0  0  -0.20307  0  4.012133  0  0  -0.029152  -0.179914  0  3.964421  0
C  C48  1  0.26718598  0.43258226  0.43672263  1  0  0.408671  0  3.756684  0  0  0.38563  0  4.026872  0  0  0.410449  0  4.027836  0  0  0.155872  0.369032  0  4.025801  0
C  C49  1  0.23281108  0.56741679  0.93672090  1  0  0.408591  0  3.75665  0  0  0.385426  0  4.027012  0  0  0.410247  0  4.027979  0  0  0.155819  0.368827  0  4.025938  0
C  C50  1  0.76721156  0.06741726  0.56327371  1  0  0.408629  0  3.756669  0  0  0.385567  0  4.026888  0  0  0.410386  0  4.027844  0  0  0.155811  0.368966  0  4.02582  0
C  C51  1  0.73281892  0.93258749  0.06328132  1  0  0.408564  0  3.756445  0  0  0.385452  0  4.026714  0  0  0.410272  0  4.027679  0  0  0.155851  0.368848  0  4.025645  0
C  C52  1  0.35089498  0.51369332  0.29235506  1  0  0.377198  0  3.757458  0  0  0.349751  0  4.030595  0  0  0.375454  0  4.032941  0  0  0.136819  0.332612  0  4.028555  0
C  C53  1  0.14911267  0.48630380  0.79235489  1  0  0.377112  0  3.757372  0  0  0.349679  0  4.030551  0  0  0.375382  0  4.032898  0  0  0.136749  0.332536  0  4.028513  0
C  C54  1  0.85089405  0.98630393  0.70764275  1  0  0.377032  0  3.757388  0  0  0.349712  0  4.030423  0  0  0.375417  0  4.032764  0  0  0.136776  0.332566  0  4.02839  0
C  C55  1  0.64911464  0.01369450  0.20764696  1  0  0.377036  0  3.757348  0  0  0.349507  0  4.03068  0  0  0.375203  0  4.033029  0  0  0.13671  0.332375  0  4.028638  0
C  C56  1  0.03385818  0.30090680  0.37260255  1  0  0.384166  0  3.84674  0  0  0.3703  0  4.112843  0  0  0.385897  0  4.125928  0  0  0.111849  0.359551  0  4.104032  0
C  C57  1  0.46613581  0.69909337  0.87259756  1  0  0.384139  0  3.846839  0  0  0.370258  0  4.112938  0  0  0.385859  0  4.126009  0  0  0.111833  0.359508  0  4.104128  0
C  C58  1  0.53386663  0.19909344  0.62739761  1  0  0.384172  0  3.84677  0  0  0.370332  0  4.112816  0  0  0.385919  0  4.125896  0  0  0.111905  0.359585  0  4.103999  0
C  C59  1  0.96615012  0.80090956  0.12740194  1  0  0.384148  0  3.846869  0  0  0.37028  0  4.112913  0  0  0.38587  0  4.125996  0  0  0.11181  0.359526  0  4.104111  0
C  C60  1  0.62298490  0.63998222  0.35525662  1  0  -0.075117  0  3.721035  0  0  -0.100763  0  3.974935  0  0  -0.1014  0  3.994715  0  0  -0.082292  -0.100215  0  3.961606  0
C  C61  1  0.87703840  0.36001617  0.85525975  1  0  -0.075147  0  3.720935  0  0  -0.100788  0  3.9748  0  0  -0.101428  0  3.994575  0  0  -0.082287  -0.100241  0  3.961477  0
C  C62  1  0.12294932  0.86001320  0.64474004  1  0  -0.075281  0  3.720896  0  0  -0.100888  0  3.974733  0  0  -0.10153  0  3.994506  0  0  -0.082261  -0.100344  0  3.961414  0
C  C63  1  0.37704652  0.13998776  0.14474436  1  0  -0.075216  0  3.721187  0  0  -0.100831  0  3.974982  0  0  -0.101474  0  3.994751  0  0  -0.082264  -0.100287  0  3.961664  0
C  C64  1  0.91424418  0.26229399  0.30463921  1  0  -0.13954  0  3.670369  0  0  -0.161822  0  3.92988  0  0  -0.164138  0  3.945654  0  0  -0.074026  -0.16021  0  3.919245  0
C  C65  1  0.58573694  0.73770910  0.80463641  1  0  -0.139654  0  3.670456  0  0  -0.161936  0  3.929915  0  0  -0.164265  0  3.945725  0  0  -0.074132  -0.160322  0  3.91928  0
C  C66  1  0.41425134  0.23770930  0.69536049  1  0  -0.139577  0  3.670334  0  0  -0.161854  0  3.929794  0  0  -0.164175  0  3.945595  0  0  -0.074066  -0.160239  0  3.919152  0
C  C67  1  0.08575590  0.76229268  0.19536245  1  0  -0.139583  0  3.670353  0  0  -0.161836  0  3.929787  0  0  -0.164162  0  3.945603  0  0  -0.074058  -0.160225  0  3.919159  0
C  C68  1  0.74088821  0.68157219  0.41903178  1  0  -0.069565  0  3.762174  0  0  -0.083867  0  4.017001  0  0  -0.086079  0  4.038229  0  0  -0.086191  -0.082289  0  4.002502  0
C  C69  1  0.75914934  0.31842255  0.91903430  1  0  -0.069701  0  3.762001  0  0  -0.083982  0  4.016887  0  0  -0.086192  0  4.038116  0  0  -0.086262  -0.082404  0  4.002388  0
C  C70  1  0.24084417  0.81842192  0.58096324  1  0  -0.069695  0  3.761963  0  0  -0.083949  0  4.016838  0  0  -0.086158  0  4.038063  0  0  -0.086222  -0.082373  0  4.002343  0
C  C71  1  0.25916820  0.18158015  0.08096757  1  0  -0.069805  0  3.762012  0  0  -0.084064  0  4.016834  0  0  -0.086275  0  4.038061  0  0  -0.08629  -0.08249  0  4.002345  0
C  C72  1  0.93379844  0.30391306  0.23812967  1  0  -0.142765  0  3.726816  0  0  -0.162629  0  3.980879  0  0  -0.166371  0  3.999681  0  0  -0.088074  -0.159981  0  3.968175  0
C  C73  1  0.56616282  0.69609055  0.73812739  1  0  -0.142571  0  3.726816  0  0  -0.162435  0  3.980812  0  0  -0.166187  0  3.999601  0  0  -0.087946  -0.159787  0  3.968108  0
C  C74  1  0.43382845  0.19609213  0.76187059  1  0  -0.142774  0  3.726836  0  0  -0.162617  0  3.980877  0  0  -0.166372  0  3.999676  0  0  -0.088048  -0.159967  0  3.968166  0
C  C75  1  0.06617627  0.80390870  0.26187368  1  0  -0.142711  0  3.72683  0  0  -0.1626  0  3.980825  0  0  -0.166355  0  3.999616  0  0  -0.088018  -0.159959  0  3.968136  0
C  C76  1  0.56447853  0.55977915  0.49281940  1  0  -0.046782  0  3.677324  0  0  -0.074307  0  3.931101  0  0  -0.074175  0  3.947757  0  0  -0.068614  -0.074299  0  3.919882  0
C  C77  1  0.93552855  0.44021622  0.99282154  1  0  -0.046753  0  3.677213  0  0  -0.074231  0  3.930988  0  0  -0.074091  0  3.947642  0  0  -0.068644  -0.074222  0  3.919767  0
C  C78  1  0.06447279  0.94021820  0.50717503  1  0  -0.046695  0  3.677095  0  0  -0.074142  0  3.930869  0  0  -0.074004  0  3.947519  0  0  -0.068581  -0.074134  0  3.919647  0
C  C79  1  0.43554766  0.05978643  0.00717983  1  0  -0.046725  0  3.677189  0  0  -0.074182  0  3.930952  0  0  -0.074036  0  3.947605  0  0  -0.068588  -0.074176  0  3.919734  0
C  C80  1  0.08648979  0.38672518  0.23378021  1  0  0.336988  0  3.78608  0  0  0.319432  0  4.052264  0  0  0.333847  0  4.0675  0  0  0.097821  0.309442  0  4.041986  0
C  C81  1  0.41348964  0.61327740  0.73377684  1  0  0.336755  0  3.786435  0  0  0.319283  0  4.052559  0  0  0.333703  0  4.06779  0  0  0.097774  0.30929  0  4.042282  0
C  C82  1  0.58651040  0.11327695  0.76622107  1  0  0.337025  0  3.786059  0  0  0.319434  0  4.052367  0  0  0.333853  0  4.067594  0  0  0.097855  0.309441  0  4.042086  0
C  C83  1  0.91350413  0.88672173  0.26622542  1  0  0.336859  0  3.786344  0  0  0.31948  0  4.052332  0  0  0.333903  0  4.067558  0  0  0.097873  0.309485  0  4.042076  0
C  C84  1  0.71708455  0.64075873  0.48775033  1  0  -0.048568  0  3.728675  0  0  -0.062376  0  3.981492  0  0  -0.063635  0  4.001704  0  0  -0.077888  -0.061419  0  3.967738  0
C  C85  1  0.78291411  0.35923799  0.98775512  1  0  -0.048328  0  3.728382  0  0  -0.062248  0  3.981256  0  0  -0.063516  0  4.001458  0  0  -0.077817  -0.061291  0  3.967502  0
C  C86  1  0.21707361  0.85923729  0.51224579  1  0  -0.048404  0  3.728572  0  0  -0.062342  0  3.981438  0  0  -0.063603  0  4.00165  0  0  -0.077883  -0.061384  0  3.967683  0
C  C87  1  0.28293567  0.14076598  0.01224676  1  0  -0.048387  0  3.728379  0  0  -0.062286  0  3.98125  0  0  -0.06356  0  4.001457  0  0  -0.077835  -0.061328  0  3.967497  0
O  O88  1  0.20885558  0.40482864  0.50103689  1  0  -0.569403  0  1.946315  0  0  -0.530661  0  2.166419  0  0  -0.544385  0  2.155846  0  0  -0.341014  -0.521279  0  2.173618  0
O  O89  1  0.29113407  0.59517038  0.00103713  1  0  -0.569389  0  1.946201  0  0  -0.530615  0  2.166379  0  0  -0.544353  0  2.155809  0  0  -0.341022  -0.52122  0  2.173553  0
O  O90  1  0.70885839  0.09516964  0.49896497  1  0  -0.569348  0  1.946442  0  0  -0.530609  0  2.16658  0  0  -0.544336  0  2.156009  0  0  -0.340962  -0.521222  0  2.173764  0
O  O91  1  0.79113753  0.90483007  0.99896067  1  0  -0.569402  0  1.945889  0  0  -0.530637  0  2.166024  0  0  -0.544374  0  2.155452  0  0  -0.34105  -0.521249  0  2.17321  0
O  O92  1  0.01407172  0.25511538  0.43349876  1  0  -0.831289  0  1.990145  0  0  -0.787362  0  2.22834  0  0  -0.807422  0  2.219025  0  0  -0.478599  -0.77298  0  2.23446  0
O  O93  1  0.48595610  0.74488183  0.93349597  1  0  -0.831311  0  1.990087  0  0  -0.787372  0  2.228281  0  0  -0.807454  0  2.218967  0  0  -0.478599  -0.772988  0  2.2344  0
O  O94  1  0.51406293  0.24488423  0.56650195  1  0  -0.831358  0  1.990142  0  0  -0.787451  0  2.22833  0  0  -0.807501  0  2.219013  0  0  -0.478652  -0.77307  0  2.234449  0
O  O95  1  0.98595917  0.75511728  0.06650409  1  0  -0.831275  0  1.989926  0  0  -0.787375  0  2.228166  0  0  -0.807454  0  2.218859  0  0  -0.478582  -0.772992  0  2.234286  0
O  O96  1  0.37907954  0.54989403  0.22962249  1  0  -0.482503  0  1.937475  0  0  -0.433399  0  2.144467  0  0  -0.451491  0  2.136651  0  0  -0.267795  -0.421087  0  2.149593  0
O  O97  1  0.12088869  0.45010291  0.72961944  1  0  -0.482475  0  1.937223  0  0  -0.433438  0  2.144185  0  0  -0.451536  0  2.136375  0  0  -0.267775  -0.421124  0  2.149315  0
O  O98  1  0.87910422  0.95010131  0.77037810  1  0  -0.482487  0  1.937331  0  0  -0.433472  0  2.144244  0  0  -0.451547  0  2.136437  0  0  -0.267803  -0.421158  0  2.149378  0
O  O99  1  0.62088235  0.04989539  0.27038295  1  0  -0.482437  0  1.93719  0  0  -0.433329  0  2.144216  0  0  -0.451415  0  2.136407  0  0  -0.267736  -0.421026  0  2.149347  0
O  O100  1  0.11650950  0.42323598  0.16717215  1  0  -0.486973  0  2.085391  0  0  -0.436986  0  2.296315  0  0  -0.460684  0  2.28914  0  0  -0.326916  -0.420208  0  2.300728  0
O  O101  1  0.38344168  0.57676714  0.66716924  1  0  -0.486911  0  2.085353  0  0  -0.436989  0  2.296122  0  0  -0.460686  0  2.288946  0  0  -0.326957  -0.420211  0  2.300532  0
O  O102  1  0.61654734  0.07676487  0.83282914  1  0  -0.486949  0  2.085334  0  0  -0.436999  0  2.296155  0  0  -0.460681  0  2.289018  0  0  -0.326955  -0.420222  0  2.300565  0
O  O103  1  0.88343949  0.92323074  0.33283412  1  0  -0.486873  0  2.0854  0  0  -0.436976  0  2.296227  0  0  -0.460673  0  2.289052  0  0  -0.326981  -0.420201  0  2.300645  0
