# generated using pymatgen
data_SrH14(C3O4)2
_symmetry_space_group_name_H-M   'P 1'
_cell_length_a   6.83365212
_cell_length_b   7.08960298
_cell_length_c   12.35066703
_cell_angle_alpha   88.22476292
_cell_angle_beta   83.80790538
_cell_angle_gamma   73.26839307
_symmetry_Int_Tables_number   1
_chemical_formula_structural   SrH14(C3O4)2
_chemical_formula_sum   'Sr2 H28 C12 O16'
_cell_volume   569.68806515
_cell_formula_units_Z   2
loop_
 _symmetry_equiv_pos_site_id
 _symmetry_equiv_pos_as_xyz
  1  'x, y, z'
loop_
 _atom_site_type_symbol
 _atom_site_label
 _atom_site_symmetry_multiplicity
 _atom_site_fract_x
 _atom_site_fract_y
 _atom_site_fract_z
 _atom_site_occupancy
 _atom_site_hle17_bader_spin_density
 _atom_site_hle17_ddec_charge
 _atom_site_hle17_ddec_spin_density
 _atom_site_hle17_ddec_sum_bond_order
 _atom_site_hle17_magmom
 _atom_site_hse06_10hf_bader_spin_density
 _atom_site_hse06_10hf_ddec_charge
 _atom_site_hse06_10hf_ddec_spin_density
 _atom_site_hse06_10hf_ddec_sum_bond_order
 _atom_site_hse06_10hf_magmom
 _atom_site_hse06_bader_spin_density
 _atom_site_hse06_ddec_charge
 _atom_site_hse06_ddec_spin_density
 _atom_site_hse06_ddec_sum_bond_order
 _atom_site_hse06_magmom
 _atom_site_pbe_bader_spin_density
 _atom_site_pbe_cm5_charge
 _atom_site_pbe_ddec_charge
 _atom_site_pbe_ddec_spin_density
 _atom_site_pbe_ddec_sum_bond_order
 _atom_site_pbe_magmom
Sr  Sr0  1  0.93786934  0.27353979  0.92005200  1  0  1.6104  0  1.135571  0  0  1.4601  0  1.512728  0  0  1.500263  0  1.465733  0  0  0.969288  1.430371  0  1.546236  0
Sr  Sr1  1  0.06213062  0.72646003  0.07994806  1  0  1.610396  0  1.135543  0  0  1.460112  0  1.512669  0  0  1.500273  0  1.465677  0  0  0.969286  1.430384  0  1.546176  0
H  H2  1  0.37949002  0.57418163  0.59113211  1  0  0.146869  0  0.936263  0  0  0.164609  0  0.994536  0  0  0.167469  0  0.993095  0  0  0.101311  0.162488  0  0.995665  0
H  H3  1  0.62051141  0.42581820  0.40886786  1  0  0.146815  0  0.936267  0  0  0.164584  0  0.994512  0  0  0.167445  0  0.99307  0  0  0.10131  0.162464  0  0.99564  0
H  H4  1  0.36440746  0.74745086  0.69631794  1  0  0.151065  0  0.940705  0  0  0.169091  0  0.999719  0  0  0.171515  0  0.999585  0  0  0.107237  0.167312  0  0.999911  0
H  H5  1  0.63559352  0.25255044  0.30368204  1  0  0.151038  0  0.940673  0  0  0.169063  0  0.999701  0  0  0.171487  0  0.999567  0  0  0.107238  0.167284  0  0.999893  0
H  H6  1  0.26694303  0.54314895  0.72678599  1  0  0.152231  0  0.955555  0  0  0.16885  0  1.017659  0  0  0.171686  0  1.016922  0  0  0.110901  0.166769  0  1.018312  0
H  H7  1  0.73305930  0.45684794  0.27321318  1  0  0.152251  0  0.955558  0  0  0.168879  0  1.017659  0  0  0.171717  0  1.01692  0  0  0.110917  0.166798  0  1.018313  0
H  H8  1  0.29651888  0.13834264  0.26290765  1  0  0.15198  0  0.947012  0  0  0.170994  0  1.005834  0  0  0.174  0  1.004365  0  0  0.106278  0.168804  0  1.006993  0
H  H9  1  0.70347961  0.86165716  0.73709250  1  0  0.151939  0  0.947044  0  0  0.170953  0  1.00588  0  0  0.173962  0  1.004408  0  0  0.106262  0.168763  0  1.00704  0
H  H10  1  0.06501303  0.08864496  0.31044631  1  0  0.136459  0  0.949277  0  0  0.156159  0  1.007503  0  0  0.158279  0  1.007326  0  0  0.101868  0.154587  0  1.007717  0
H  H11  1  0.93498751  0.91135781  0.68955447  1  0  0.136431  0  0.949292  0  0  0.156135  0  1.007522  0  0  0.158255  0  1.007344  0  0  0.101875  0.154564  0  1.007736  0
H  H12  1  0.08073300  0.33808103  0.31031723  1  0  0.128502  0  0.965378  0  0  0.145168  0  1.029033  0  0  0.147273  0  1.029011  0  0  0.097754  0.143596  0  1.02914  0
H  H13  1  0.91926766  0.66192618  0.68968508  1  0  0.128482  0  0.965471  0  0  0.145173  0  1.029102  0  0  0.147279  0  1.02908  0  0  0.097758  0.143611  0  1.029199  0
H  H14  1  0.05600798  0.15388278  0.51198659  1  0  0.131393  0  0.952017  0  0  0.152054  0  1.008319  0  0  0.15439  0  1.007649  0  0  0.097194  0.150335  0  1.008887  0
H  H15  1  0.94399052  0.84611702  0.48801357  1  0  0.131326  0  0.951983  0  0  0.15199  0  1.008293  0  0  0.154324  0  1.007624  0  0  0.097164  0.15027  0  1.008863  0
H  H16  1  0.32754201  0.03735794  0.48720408  1  0  0.148812  0  0.950962  0  0  0.164848  0  1.013081  0  0  0.168001  0  1.011619  0  0  0.100518  0.162568  0  1.014171  0
H  H17  1  0.67245648  0.96264187  0.51279527  1  0  0.148796  0  0.950958  0  0  0.164829  0  1.013086  0  0  0.167982  0  1.011624  0  0  0.100516  0.162549  0  1.014175  0
H  H18  1  0.23065634  0.29764254  0.49364515  1  0  0.144696  0  0.936154  0  0  0.165044  0  0.994062  0  0  0.167457  0  0.993633  0  0  0.102879  0.163318  0  0.994395  0
H  H19  1  0.76934362  0.70235727  0.50635410  1  0  0.144679  0  0.936163  0  0  0.165022  0  0.99408  0  0  0.167435  0  0.993649  0  0  0.102874  0.163297  0  0.994412  0
H  H20  1  0.87533039  0.31680774  0.66649297  1  0  0.391322  0  0.918911  0  0  0.358536  0  0.999598  0  0  0.372144  0  0.981829  0  0  0.298213  0.349041  0  1.008764  0
H  H21  1  0.12467048  0.68318913  0.33350791  1  0  0.391296  0  0.91892  0  0  0.35852  0  0.999599  0  0  0.372128  0  0.981848  0  0  0.298182  0.349024  0  1.008766  0
H  H22  1  0.38014929  0.12522583  0.81542770  1  0  0.415727  0  0.896314  0  0  0.378854  0  0.969698  0  0  0.391146  0  0.951996  0  0  0.291192  0.370175  0  0.982164  0
H  H23  1  0.61985113  0.87477251  0.18457237  1  0  0.41574  0  0.896297  0  0  0.378864  0  0.969686  0  0  0.391157  0  0.951982  0  0  0.291192  0.370185  0  0.982151  0
H  H24  1  0.43126194  0.18788804  0.93406447  1  0  0.428224  0  0.864988  0  0  0.398762  0  0.925663  0  0  0.40953  0  0.909846  0  0  0.30573  0.391111  0  0.936894  0
H  H25  1  0.56873701  0.81211029  0.06593568  1  0  0.428192  0  0.865036  0  0  0.398724  0  0.92572  0  0  0.409493  0  0.909901  0  0  0.305704  0.391073  0  0.936951  0
H  H26  1  0.61525145  0.11440181  0.06467802  1  0  0.425146  0  0.877521  0  0  0.393476  0  0.94237  0  0  0.404561  0  0.926294  0  0  0.298995  0.385582  0  0.953814  0
H  H27  1  0.38474896  0.88559653  0.93532204  1  0  0.425135  0  0.877531  0  0  0.393444  0  0.942403  0  0  0.404528  0  0.926329  0  0  0.29899  0.38555  0  0.953847  0
H  H28  1  0.52120221  0.34626556  0.08978564  1  0  0.42399  0  0.870694  0  0  0.393516  0  0.933012  0  0  0.404076  0  0.91766  0  0  0.30446  0.386002  0  0.94392  0
H  H29  1  0.47880069  0.65373428  0.91021424  1  0  0.423984  0  0.870699  0  0  0.393505  0  0.933024  0  0  0.404065  0  0.917672  0  0  0.304454  0.385991  0  0.943932  0
C  C30  1  0.59122520  0.47501547  0.71285755  1  0  0.78309  0  3.746185  0  0  0.738927  0  4.04676  0  0  0.773128  0  4.036644  0  0  0.247123  0.715575  0  4.05306  0
C  C31  1  0.40877872  0.52498585  0.28714224  1  0  0.783336  0  3.745858  0  0  0.739094  0  4.046563  0  0  0.773297  0  4.03644  0  0  0.247282  0.715738  0  4.05287  0
C  C32  1  0.38795554  0.59108210  0.67813534  1  0  -0.474298  0  3.633668  0  0  -0.550296  0  3.863865  0  0  -0.558437  0  3.8662  0  0  -0.240751  -0.544478  0  3.86232  0
C  C33  1  0.61204351  0.40892066  0.32186311  1  0  -0.474253  0  3.633598  0  0  -0.550254  0  3.863804  0  0  -0.558398  0  3.866135  0  0  -0.240766  -0.544436  0  3.86226  0
C  C34  1  0.06454339  0.22198645  0.15282336  1  0  0.795027  0  3.837581  0  0  0.754545  0  4.127456  0  0  0.788829  0  4.117248  0  0  0.226799  0.7311  0  4.133663  0
C  C35  1  0.93545613  0.77801485  0.84717833  1  0  0.795127  0  3.837537  0  0  0.754618  0  4.127481  0  0  0.788902  0  4.117273  0  0  0.226808  0.731174  0  4.133685  0
C  C36  1  0.12863490  0.19793595  0.26646227  1  0  -0.46942  0  3.647727  0  0  -0.545412  0  3.881552  0  0  -0.552796  0  3.883914  0  0  -0.242233  -0.540103  0  3.879956  0
C  C37  1  0.87136270  0.80206681  0.73353950  1  0  -0.46935  0  3.647859  0  0  -0.545352  0  3.881684  0  0  -0.552737  0  3.884045  0  0  -0.242234  -0.540051  0  3.880081  0
C  C38  1  0.22600869  0.16058911  0.64912128  1  0  0.75997  0  3.815221  0  0  0.717497  0  4.113701  0  0  0.750245  0  4.106372  0  0  0.224372  0.695226  0  4.117969  0
C  C39  1  0.77399172  0.83940923  0.35087797  1  0  0.759948  0  3.815256  0  0  0.717474  0  4.113742  0  0  0.750222  0  4.106414  0  0  0.224378  0.695202  0  4.118012  0
C  C40  1  0.20873871  0.15936049  0.52841570  1  0  -0.473504  0  3.654799  0  0  -0.547398  0  3.883015  0  0  -0.55512  0  3.885764  0  0  -0.246847  -0.541886  0  3.881068  0
C  C41  1  0.79126125  0.84063933  0.47158356  1  0  -0.473375  0  3.654727  0  0  -0.54726  0  3.882929  0  0  -0.554984  0  3.885679  0  0  -0.246801  -0.541748  0  3.880981  0
O  O42  1  0.73057937  0.38951219  0.63443740  1  0  -0.571511  0  2.051001  0  0  -0.521301  0  2.267294  0  0  -0.54562  0  2.250963  0  0  -0.323167  -0.504479  0  2.27599  0
O  O43  1  0.26942340  0.61048321  0.36556095  1  0  -0.571575  0  2.050997  0  0  -0.521337  0  2.267304  0  0  -0.545659  0  2.250984  0  0  -0.323191  -0.504514  0  2.276002  0
O  O44  1  0.62437978  0.46426977  0.81121660  1  0  -0.674892  0  1.958194  0  0  -0.61013  0  2.178573  0  0  -0.635124  0  2.168047  0  0  -0.32534  -0.592735  0  2.185531  0
O  O45  1  0.37562367  0.53573302  0.18878077  1  0  -0.675048  0  1.958  0  0  -0.610266  0  2.178434  0  0  -0.635262  0  2.167905  0  0  -0.32544  -0.592868  0  2.185393  0
O  O46  1  0.01538828  0.39229165  0.10846681  1  0  -0.78994  0  1.970082  0  0  -0.723256  0  2.219237  0  0  -0.750642  0  2.206391  0  0  -0.4257  -0.703824  0  2.227604  0
O  O47  1  0.98460875  0.60770814  0.89153424  1  0  -0.789954  0  1.970007  0  0  -0.723256  0  2.21917  0  0  -0.750641  0  2.206323  0  0  -0.42569  -0.703824  0  2.227536  0
O  O48  1  0.06062015  0.07006497  0.10210801  1  0  -0.764322  0  1.982489  0  0  -0.696873  0  2.229127  0  0  -0.724794  0  2.218186  0  0  -0.420559  -0.677138  0  2.236186  0
O  O49  1  0.93938084  0.92993634  0.89789358  1  0  -0.764395  0  1.982474  0  0  -0.696953  0  2.229153  0  0  -0.724873  0  2.21821  0  0  -0.420564  -0.677219  0  2.236211  0
O  O50  1  0.05841584  0.23353957  0.71252704  1  0  -0.717989  0  2.050611  0  0  -0.652305  0  2.290055  0  0  -0.679756  0  2.277637  0  0  -0.365544  -0.633006  0  2.297136  0
O  O51  1  0.94158311  0.76645876  0.28747312  1  0  -0.717975  0  2.050651  0  0  -0.652302  0  2.2901  0  0  -0.679753  0  2.277689  0  0  -0.365535  -0.633003  0  2.297182  0
O  O52  1  0.39919008  0.09616099  0.68432966  1  0  -0.628678  0  1.934401  0  0  -0.571707  0  2.145929  0  0  -0.596464  0  2.137009  0  0  -0.308032  -0.554557  0  2.151687  0
O  O53  1  0.60080988  0.90383882  0.31566960  1  0  -0.628689  0  1.934393  0  0  -0.571719  0  2.145926  0  0  -0.596473  0  2.136997  0  0  -0.308045  -0.554568  0  2.151684  0
O  O54  1  0.59067774  0.24933116  0.03161490  1  0  -0.875711  0  1.819981  0  0  -0.812628  0  1.988973  0  0  -0.833623  0  1.956686  0  0  -0.595451  -0.797642  0  2.011679  0
O  O55  1  0.40932268  0.75066718  0.96838597  1  0  -0.8757  0  1.819999  0  0  -0.812587  0  1.989036  0  0  -0.833583  0  1.956749  0  0  -0.59544  -0.797601  0  2.011741  0
O  O56  1  0.34232084  0.12742953  0.89716868  1  0  -0.884627  0  1.865922  0  0  -0.819719  0  2.0446  0  0  -0.841608  0  2.011019  0  0  -0.598496  -0.804107  0  2.068076  0
O  O57  1  0.65767957  0.87256881  0.10283058  1  0  -0.884608  0  1.86592  0  0  -0.819706  0  2.044614  0  0  -0.841594  0  2.011023  0  0  -0.598476  -0.804095  0  2.068088  0
