# generated using pymatgen
data_CaH18C14(N2O5)2
_symmetry_space_group_name_H-M   'P 1'
_cell_length_a   9.01809331
_cell_length_b   9.01809043
_cell_length_c   11.22067071
_cell_angle_alpha   96.54625516
_cell_angle_beta   96.54622538
_cell_angle_gamma   94.90646804
_symmetry_Int_Tables_number   1
_chemical_formula_structural   CaH18C14(N2O5)2
_chemical_formula_sum   'Ca2 H36 C28 N8 O20'
_cell_volume   896.17298541
_cell_formula_units_Z   2
loop_
 _symmetry_equiv_pos_site_id
 _symmetry_equiv_pos_as_xyz
  1  'x, y, z'
loop_
 _atom_site_type_symbol
 _atom_site_label
 _atom_site_symmetry_multiplicity
 _atom_site_fract_x
 _atom_site_fract_y
 _atom_site_fract_z
 _atom_site_occupancy
 _atom_site_hle17_bader_spin_density
 _atom_site_hle17_ddec_charge
 _atom_site_hle17_ddec_spin_density
 _atom_site_hle17_ddec_sum_bond_order
 _atom_site_hle17_magmom
 _atom_site_hse06_10hf_bader_spin_density
 _atom_site_hse06_10hf_ddec_charge
 _atom_site_hse06_10hf_ddec_spin_density
 _atom_site_hse06_10hf_ddec_sum_bond_order
 _atom_site_hse06_10hf_magmom
 _atom_site_hse06_bader_spin_density
 _atom_site_hse06_ddec_charge
 _atom_site_hse06_ddec_spin_density
 _atom_site_hse06_ddec_sum_bond_order
 _atom_site_hse06_magmom
 _atom_site_pbe_bader_spin_density
 _atom_site_pbe_cm5_charge
 _atom_site_pbe_ddec_charge
 _atom_site_pbe_ddec_spin_density
 _atom_site_pbe_ddec_sum_bond_order
 _atom_site_pbe_magmom
Ca  Ca0  1  0.08194929  0.91805069  0.74999952  1  0  1.51875  0  1.115144  0  0  1.371813  0  1.472687  0  0  1.414378  0  1.428894  0  0  0.862604  1.340011  0  1.504005  0
Ca  Ca1  1  0.91805094  0.08194898  0.25000019  1  0  1.518739  0  1.115159  0  0  1.371816  0  1.472678  0  0  1.414365  0  1.42891  0  0  0.862591  1.340013  0  1.503995  0
H  H2  1  0.17987374  0.29279233  0.68871234  1  0  0.319165  0  0.920884  0  0  0.297747  0  0.984163  0  0  0.306866  0  0.976778  0  0  0.319578  0.291376  0  0.989285  0
H  H3  1  0.70720889  0.82012608  0.81128933  1  0  0.319193  0  0.920883  0  0  0.297777  0  0.98416  0  0  0.306897  0  0.976775  0  0  0.319595  0.291406  0  0.989282  0
H  H4  1  0.82012772  0.70720846  0.31128847  1  0  0.319189  0  0.920927  0  0  0.297764  0  0.98423  0  0  0.306884  0  0.976846  0  0  0.319601  0.291393  0  0.989352  0
H  H5  1  0.29279134  0.17987359  0.18871217  1  0  0.319192  0  0.92089  0  0  0.297784  0  0.984164  0  0  0.306905  0  0.97678  0  0  0.319604  0.291412  0  0.989286  0
H  H6  1  0.82044588  0.44327824  0.91538534  1  0  0.386881  0  0.921801  0  0  0.35317  0  1.004366  0  0  0.366331  0  0.988848  0  0  0.292222  0.344104  0  1.012766  0
H  H7  1  0.55671996  0.17955324  0.58461502  1  0  0.386893  0  0.921793  0  0  0.353184  0  1.00435  0  0  0.366344  0  0.98883  0  0  0.292231  0.344118  0  1.012749  0
H  H8  1  0.17955323  0.55672142  0.08461428  1  0  0.38688  0  0.921805  0  0  0.353171  0  1.004368  0  0  0.366332  0  0.988848  0  0  0.292228  0.344105  0  1.012766  0
H  H9  1  0.44327915  0.82044643  0.41538549  1  0  0.386884  0  0.921802  0  0  0.353175  0  1.004365  0  0  0.366336  0  0.988843  0  0  0.292227  0.344109  0  1.012764  0
H  H10  1  0.96449032  0.86465900  0.49070130  1  0  0.421237  0  0.860918  0  0  0.390603  0  0.935941  0  0  0.400426  0  0.921165  0  0  0.309747  0.383629  0  0.946382  0
H  H11  1  0.13534078  0.03551038  0.00929840  1  0  0.421234  0  0.860919  0  0  0.390601  0  0.935943  0  0  0.400425  0  0.921166  0  0  0.309748  0.383628  0  0.946383  0
H  H12  1  0.03551002  0.13534178  0.50929852  1  0  0.421259  0  0.860894  0  0  0.390628  0  0.935906  0  0  0.400449  0  0.921132  0  0  0.309753  0.383654  0  0.946346  0
H  H13  1  0.86465956  0.96449040  0.99070143  1  0  0.421227  0  0.86093  0  0  0.390596  0  0.93595  0  0  0.400418  0  0.921174  0  0  0.309743  0.383622  0  0.946391  0
H  H14  1  0.13368565  0.83632425  0.48364075  1  0  0.422799  0  0.880331  0  0  0.387534  0  0.951666  0  0  0.398744  0  0.935255  0  0  0.294264  0.379588  0  0.963269  0
H  H15  1  0.16367553  0.86631546  0.01636003  1  0  0.422807  0  0.880322  0  0  0.387544  0  0.951655  0  0  0.398753  0  0.935244  0  0  0.294273  0.379597  0  0.96326  0
H  H16  1  0.86631469  0.16367655  0.51635997  1  0  0.422829  0  0.880286  0  0  0.387567  0  0.951615  0  0  0.398775  0  0.935205  0  0  0.29428  0.37962  0  0.96322  0
H  H17  1  0.83632369  0.13368532  0.98363969  1  0  0.422811  0  0.880315  0  0  0.387549  0  0.951645  0  0  0.39876  0  0.935233  0  0  0.294272  0.379602  0  0.96325  0
H  H18  1  0.39495049  0.51159048  0.63127150  1  0  0.08754  0  0.925457  0  0  0.101075  0  0.987613  0  0  0.102876  0  0.986511  0  0  0.09803  0.100398  0  0.987276  0
H  H19  1  0.48840911  0.60504922  0.86872824  1  0  0.087543  0  0.925453  0  0  0.101102  0  0.987584  0  0  0.102897  0  0.986488  0  0  0.098046  0.100424  0  0.987248  0
H  H20  1  0.60504985  0.48841030  0.36872833  1  0  0.087527  0  0.925481  0  0  0.101084  0  0.987611  0  0  0.102885  0  0.986509  0  0  0.098035  0.100408  0  0.987271  0
H  H21  1  0.51159011  0.39495156  0.13127149  1  0  0.087558  0  0.92541  0  0  0.101094  0  0.987567  0  0  0.10289  0  0.98647  0  0  0.098035  0.100416  0  0.987231  0
H  H22  1  0.31485403  0.67840888  0.60141035  1  0  0.10253  0  0.941186  0  0  0.119001  0  0.9966  0  0  0.120273  0  0.997352  0  0  0.108533  0.118115  0  0.996116  0
H  H23  1  0.32159117  0.68514503  0.89858942  1  0  0.102524  0  0.941174  0  0  0.11899  0  0.996603  0  0  0.120261  0  0.997356  0  0  0.108536  0.118105  0  0.996118  0
H  H24  1  0.68514519  0.32159191  0.39858937  1  0  0.102536  0  0.941168  0  0  0.119003  0  0.996593  0  0  0.120273  0  0.997347  0  0  0.108542  0.118117  0  0.996108  0
H  H25  1  0.67840805  0.31485576  0.10141031  1  0  0.102525  0  0.941192  0  0  0.118993  0  0.99661  0  0  0.120265  0  0.997361  0  0  0.108537  0.118108  0  0.996124  0
H  H26  1  0.21218235  0.36390375  0.46223679  1  0  0.107816  0  0.953397  0  0  0.126157  0  1.018841  0  0  0.128079  0  1.018271  0  0  0.090093  0.124727  0  1.019291  0
H  H27  1  0.63609655  0.78781802  0.03776297  1  0  0.107849  0  0.95336  0  0  0.126167  0  1.018826  0  0  0.128089  0  1.018255  0  0  0.09011  0.124739  0  1.019274  0
H  H28  1  0.78781889  0.63609480  0.53776291  1  0  0.10782  0  0.953399  0  0  0.126164  0  1.01884  0  0  0.128085  0  1.01827  0  0  0.090102  0.124734  0  1.019291  0
H  H29  1  0.36390368  0.21218164  0.96223675  1  0  0.107829  0  0.953388  0  0  0.126171  0  1.01883  0  0  0.128093  0  1.018259  0  0  0.090097  0.124741  0  1.019279  0
H  H30  1  0.32226813  0.51097104  0.41017469  1  0  0.096924  0  0.942486  0  0  0.118706  0  1.00153  0  0  0.120424  0  1.000992  0  0  0.085929  0.117764  0  1.001346  0
H  H31  1  0.48902894  0.67773289  0.08982600  1  0  0.096938  0  0.942465  0  0  0.11873  0  1.001493  0  0  0.120448  0  1.000953  0  0  0.085933  0.117787  0  1.001309  0
H  H32  1  0.67773210  0.48902863  0.58982592  1  0  0.096924  0  0.942436  0  0  0.118716  0  1.001469  0  0  0.120434  0  1.000929  0  0  0.085931  0.117773  0  1.001285  0
H  H33  1  0.51097129  0.32226678  0.91017371  1  0  0.096933  0  0.94247  0  0  0.118718  0  1.001508  0  0  0.120435  0  1.000969  0  0  0.085932  0.117774  0  1.001325  0
H  H34  1  0.13361886  0.53301025  0.43443322  1  0  0.101185  0  0.968697  0  0  0.120198  0  1.034121  0  0  0.120949  0  1.035956  0  0  0.086482  0.119783  0  1.032453  0
H  H35  1  0.46699009  0.86638119  0.06556567  1  0  0.101191  0  0.968709  0  0  0.120205  0  1.034126  0  0  0.120956  0  1.035961  0  0  0.086477  0.11979  0  1.032458  0
H  H36  1  0.86638137  0.46698942  0.56556649  1  0  0.101187  0  0.968726  0  0  0.120206  0  1.034146  0  0  0.120958  0  1.035981  0  0  0.086489  0.119791  0  1.032478  0
H  H37  1  0.53301125  0.13361847  0.93443325  1  0  0.101202  0  0.968676  0  0  0.12021  0  1.034104  0  0  0.120961  0  1.035939  0  0  0.086485  0.119794  0  1.032436  0
C  C38  1  0.97177157  0.27812950  0.85081990  1  0  0.652062  0  3.932965  0  0  0.595682  0  4.240927  0  0  0.630121  0  4.230609  0  0  0.224796  0.572193  0  4.247583  0
C  C39  1  0.72186905  0.02822627  0.64918120  1  0  0.651816  0  3.933295  0  0  0.59547  0  4.241198  0  0  0.629909  0  4.23088  0  0  0.2247  0.571982  0  4.247852  0
C  C40  1  0.02822878  0.72187129  0.14918082  1  0  0.651965  0  3.933102  0  0  0.595588  0  4.241063  0  0  0.630028  0  4.230743  0  0  0.224758  0.572101  0  4.247717  0
C  C41  1  0.27812996  0.97177228  0.35082009  1  0  0.652031  0  3.933003  0  0  0.595655  0  4.240951  0  0  0.630094  0  4.230631  0  0  0.224796  0.572166  0  4.247605  0
C  C42  1  0.03131898  0.40622425  0.79344297  1  0  0.021769  0  3.708604  0  0  0.000618  0  3.977322  0  0  0.001605  0  3.99361  0  0  0.094433  1.6e-05  0  3.96678  0
C  C43  1  0.59377448  0.96867739  0.70655555  1  0  0.021894  0  3.708754  0  0  0.000783  0  3.977385  0  0  0.001769  0  3.993672  0  0  0.094509  0.000182  0  3.966841  0
C  C44  1  0.96868136  0.59377654  0.20655686  1  0  0.021816  0  3.708597  0  0  0.000685  0  3.977319  0  0  0.00167  0  3.993607  0  0  0.094432  8.3e-05  0  3.966776  0
C  C45  1  0.40622452  0.03132115  0.29344395  1  0  0.021796  0  3.708551  0  0  0.000673  0  3.977283  0  0  0.001661  0  3.99357  0  0  0.09441  6.9e-05  0  3.966736  0
C  C46  1  0.00483007  0.55691462  0.80248017  1  0  -0.032531  0  3.83522  0  0  -0.038286  0  4.103932  0  0  -0.042138  0  4.124844  0  0  0.078946  -0.035921  0  4.089988  0
C  C47  1  0.44308657  0.99516823  0.69751967  1  0  -0.03251  0  3.835273  0  0  -0.038277  0  4.10398  0  0  -0.042122  0  4.124883  0  0  0.078948  -0.035916  0  4.090039  0
C  C48  1  0.99516914  0.44308616  0.19751867  1  0  -0.032582  0  3.835245  0  0  -0.038337  0  4.10395  0  0  -0.04219  0  4.124862  0  0  0.078913  -0.035975  0  4.090008  0
C  C49  1  0.55691478  0.00483144  0.30248193  1  0  -0.032524  0  3.835141  0  0  -0.038326  0  4.1039  0  0  -0.042178  0  4.12481  0  0  0.078991  -0.035955  0  4.089943  0
C  C50  1  0.89260822  0.63559238  0.86193256  1  0  0.658908  0  3.84253  0  0  0.603611  0  4.147153  0  0  0.638506  0  4.13645  0  0  0.240224  0.580236  0  4.153684  0
C  C51  1  0.36440876  0.10739130  0.63806723  1  0  0.658901  0  3.842531  0  0  0.603593  0  4.147163  0  0  0.638482  0  4.136464  0  0  0.240215  0.580219  0  4.153691  0
C  C52  1  0.10739201  0.36440729  0.13806716  1  0  0.658973  0  3.8425  0  0  0.603686  0  4.147105  0  0  0.638583  0  4.136402  0  0  0.240253  0.580311  0  4.153635  0
C  C53  1  0.63559259  0.89260837  0.36193348  1  0  0.658895  0  3.842561  0  0  0.603614  0  4.147181  0  0  0.638509  0  4.136479  0  0  0.240191  0.580236  0  4.153711  0
C  C54  1  0.17770202  0.53095663  0.68378182  1  0  0.410566  0  3.634942  0  0  0.383981  0  3.909161  0  0  0.398792  0  3.922533  0  0  0.245359  0.374774  0  3.899604  0
C  C55  1  0.46904246  0.82229756  0.81621879  1  0  0.410567  0  3.634957  0  0  0.383996  0  3.909157  0  0  0.398813  0  3.922523  0  0  0.245394  0.374787  0  3.899605  0
C  C56  1  0.82229720  0.46904415  0.31621790  1  0  0.410654  0  3.634837  0  0  0.384083  0  3.909083  0  0  0.398895  0  3.922452  0  0  0.245397  0.374876  0  3.899525  0
C  C57  1  0.53095677  0.17770323  0.18378272  1  0  0.410533  0  3.63503  0  0  0.383952  0  3.909254  0  0  0.398766  0  3.922623  0  0  0.245338  0.374741  0  3.899701  0
C  C58  1  0.29021027  0.55692247  0.59874934  1  0  -0.164611  0  3.7016  0  0  -0.200124  0  3.955198  0  0  -0.202396  0  3.966115  0  0  -0.150455  -0.198906  0  3.947485  0
C  C59  1  0.44307708  0.70978896  0.90125127  1  0  -0.164564  0  3.70162  0  0  -0.200104  0  3.955232  0  0  -0.202372  0  3.966148  0  0  -0.150459  -0.198884  0  3.947519  0
C  C60  1  0.70978996  0.44307719  0.40125038  1  0  -0.164609  0  3.701605  0  0  -0.200144  0  3.955227  0  0  -0.202415  0  3.966144  0  0  -0.150466  -0.198927  0  3.947512  0
C  C61  1  0.55692315  0.29021071  0.09874934  1  0  -0.164589  0  3.70158  0  0  -0.200098  0  3.955164  0  0  -0.202367  0  3.96608  0  0  -0.15045  -0.198878  0  3.947448  0
C  C62  1  0.23589454  0.48604217  0.46856436  1  0  -0.26459  0  3.668437  0  0  -0.339558  0  3.913961  0  0  -0.341667  0  3.923564  0  0  -0.244592  -0.337992  0  3.90698  0
C  C63  1  0.51395686  0.76410588  0.03143442  1  0  -0.26467  0  3.668463  0  0  -0.339621  0  3.914007  0  0  -0.341728  0  3.923605  0  0  -0.244615  -0.338055  0  3.907027  0
C  C64  1  0.76410680  0.51395749  0.53143456  1  0  -0.264607  0  3.668434  0  0  -0.339589  0  3.913978  0  0  -0.341697  0  3.923577  0  0  -0.244611  -0.338024  0  3.906999  0
C  C65  1  0.48604237  0.23589491  0.96856531  1  0  -0.264644  0  3.668437  0  0  -0.339609  0  3.913962  0  0  -0.341716  0  3.923561  0  0  -0.244605  -0.338042  0  3.906981  0
N  N66  1  0.14042308  0.39385054  0.71847772  1  0  -0.324569  0  3.361116  0  0  -0.265411  0  3.588373  0  0  -0.281539  0  3.601132  0  0  -0.35762  -0.255033  0  3.579815  0
N  N67  1  0.60614911  0.85957515  0.78152281  1  0  -0.324603  0  3.361087  0  0  -0.265475  0  3.588348  0  0  -0.281608  0  3.601108  0  0  -0.357637  -0.255098  0  3.579792  0
N  N68  1  0.85957727  0.60615025  0.28152300  1  0  -0.324614  0  3.361175  0  0  -0.265507  0  3.588524  0  0  -0.281636  0  3.601282  0  0  -0.357628  -0.25513  0  3.579966  0
N  N69  1  0.39385001  0.14042452  0.21847770  1  0  -0.324594  0  3.361158  0  0  -0.265472  0  3.588451  0  0  -0.281605  0  3.601215  0  0  -0.357644  -0.255095  0  3.579893  0
N  N70  1  0.09759504  0.63280169  0.73539304  1  0  -0.472355  0  3.080019  0  0  -0.43108  0  3.351677  0  0  -0.447974  0  3.368796  0  0  -0.365217  -0.420038  0  3.340332  0
N  N71  1  0.36719848  0.90240528  0.76460867  1  0  -0.472385  0  3.080115  0  0  -0.431112  0  3.35176  0  0  -0.448013  0  3.36888  0  0  -0.36525  -0.420067  0  3.340416  0
N  N72  1  0.90240418  0.36719910  0.26460669  1  0  -0.472397  0  3.079995  0  0  -0.43111  0  3.351636  0  0  -0.448004  0  3.368752  0  0  -0.365224  -0.420066  0  3.34029  0
N  N73  1  0.63280198  0.09759664  0.23539305  1  0  -0.47236  0  3.08004  0  0  -0.431059  0  3.351694  0  0  -0.447955  0  3.368818  0  0  -0.365215  -0.420018  0  3.340348  0
O  O74  1  0.03302897  0.15868672  0.84037462  1  0  -0.647762  0  2.012458  0  0  -0.590501  0  2.261959  0  0  -0.615128  0  2.251542  0  0  -0.347297  -0.573076  0  2.26833  0
O  O75  1  0.84131488  0.96696818  0.65962597  1  0  -0.647693  0  2.01251  0  0  -0.590447  0  2.261976  0  0  -0.615075  0  2.251557  0  0  -0.347304  -0.573021  0  2.268346  0
O  O76  1  0.96697014  0.84131294  0.15962500  1  0  -0.647678  0  2.012457  0  0  -0.590418  0  2.261945  0  0  -0.615043  0  2.251529  0  0  -0.347262  -0.572993  0  2.268314  0
O  O77  1  0.15868748  0.03303037  0.34037652  1  0  -0.647756  0  2.012464  0  0  -0.590489  0  2.261955  0  0  -0.615115  0  2.251536  0  0  -0.347281  -0.573065  0  2.268325  0
O  O78  1  0.85985171  0.29819967  0.91167493  1  0  -0.617691  0  2.025729  0  0  -0.551731  0  2.241635  0  0  -0.578332  0  2.231329  0  0  -0.304095  -0.533742  0  2.247601  0
O  O79  1  0.70179874  0.14014475  0.58832607  1  0  -0.617608  0  2.025847  0  0  -0.551653  0  2.241725  0  0  -0.578248  0  2.231415  0  0  -0.304046  -0.533664  0  2.24769  0
O  O80  1  0.14014740  0.70179999  0.08832380  1  0  -0.617683  0  2.025758  0  0  -0.551724  0  2.241664  0  0  -0.578322  0  2.231355  0  0  -0.304107  -0.533735  0  2.247629  0
O  O81  1  0.29820016  0.85985269  0.41167601  1  0  -0.617675  0  2.025755  0  0  -0.55172  0  2.241664  0  0  -0.578319  0  2.231357  0  0  -0.304105  -0.533731  0  2.247629  0
O  O82  1  0.79718040  0.56017188  0.91782379  1  0  -0.534316  0  2.065115  0  0  -0.484947  0  2.284704  0  0  -0.50772  0  2.270445  0  0  -0.315651  -0.469484  0  2.292069  0
O  O83  1  0.43982787  0.20281942  0.58217590  1  0  -0.534318  0  2.06514  0  0  -0.484974  0  2.284765  0  0  -0.507749  0  2.27051  0  0  -0.315663  -0.469512  0  2.292129  0
O  O84  1  0.20281883  0.43982891  0.08217594  1  0  -0.534341  0  2.06514  0  0  -0.484978  0  2.284727  0  0  -0.507752  0  2.270466  0  0  -0.315653  -0.469518  0  2.292098  0
O  O85  1  0.56017124  0.79718025  0.41782372  1  0  -0.534338  0  2.065136  0  0  -0.484968  0  2.28472  0  0  -0.507741  0  2.270459  0  0  -0.315658  -0.469505  0  2.292083  0
O  O86  1  0.88606998  0.77305108  0.85468818  1  0  -0.625355  0  2.03987  0  0  -0.56628  0  2.273647  0  0  -0.588819  0  2.261491  0  0  -0.300026  -0.550607  0  2.281091  0
O  O87  1  0.22694960  0.11393030  0.64531166  1  0  -0.625408  0  2.039821  0  0  -0.566321  0  2.273626  0  0  -0.588842  0  2.261455  0  0  -0.300062  -0.550648  0  2.281069  0
O  O88  1  0.11392924  0.22694971  0.14531155  1  0  -0.625391  0  2.039845  0  0  -0.566331  0  2.273649  0  0  -0.588857  0  2.261465  0  0  -0.300061  -0.550657  0  2.281093  0
O  O89  1  0.77305074  0.88607049  0.35468817  1  0  -0.625349  0  2.0399  0  0  -0.566272  0  2.273684  0  0  -0.588802  0  2.261515  0  0  -0.300011  -0.550598  0  2.281128  0
O  O90  1  0.04980643  0.82402535  0.53279188  1  0  -0.864974  0  1.837959  0  0  -0.816073  0  2.038899  0  0  -0.835476  0  2.008564  0  0  -0.614981  -0.801908  0  2.059977  0
O  O91  1  0.17597321  0.95019363  0.96720703  1  0  -0.864978  0  1.83796  0  0  -0.816076  0  2.038904  0  0  -0.835481  0  2.008567  0  0  -0.614992  -0.801912  0  2.059982  0
O  O92  1  0.95019369  0.17597319  0.46720773  1  0  -0.865  0  1.837911  0  0  -0.816104  0  2.038844  0  0  -0.835505  0  2.00851  0  0  -0.61499  -0.801939  0  2.059922  0
O  O93  1  0.82402702  0.04980603  0.03279268  1  0  -0.864973  0  1.837967  0  0  -0.816077  0  2.038914  0  0  -0.835479  0  2.008576  0  0  -0.614985  -0.801913  0  2.059993  0
