# generated using pymatgen
data_ZnH11C20N(O2F)2
_symmetry_space_group_name_H-M   'P 1'
_cell_length_a   11.11996474
_cell_length_b   16.29279900
_cell_length_c   17.67432229
_cell_angle_alpha   95.61186794
_cell_angle_beta   90.29613199
_cell_angle_gamma   92.18865824
_symmetry_Int_Tables_number   1
_chemical_formula_structural   ZnH11C20N(O2F)2
_chemical_formula_sum   'Zn2 H22 C40 N2 O8 F4'
_cell_volume   3184.35175219
_cell_formula_units_Z   2
loop_
 _symmetry_equiv_pos_site_id
 _symmetry_equiv_pos_as_xyz
  1  'x, y, z'
loop_
 _atom_site_type_symbol
 _atom_site_label
 _atom_site_symmetry_multiplicity
 _atom_site_fract_x
 _atom_site_fract_y
 _atom_site_fract_z
 _atom_site_occupancy
 _atom_site_pbe_bader_charge
 _atom_site_pbe_bader_spin_density
 _atom_site_pbe_cm5_charge
 _atom_site_pbe_ddec_charge
 _atom_site_pbe_ddec_spin_density
 _atom_site_pbe_ddec_sum_bond_order
 _atom_site_pbe_magmom
Zn  Zn0  1  0.49485875  0.41269805  0.49744439  1  1.277809  0  0.666433  0.814496  0  2.430672  0
Zn  Zn1  1  0.50417169  0.58605984  0.50571074  1  1.280816  0  0.665806  0.811459  0  2.445097  0
H  H2  1  0.37857149  0.71310647  0.42622842  1  0.097352  0  0.127851  0.100619  0  0.983786  0
H  H3  1  0.38144731  0.86541409  0.42788594  1  0.079007  0  0.11442  0.120292  0  0.99252  0
H  H4  1  0.66408991  0.87620040  0.59871821  1  0.072707  0  0.114389  0.119691  0  0.985088  0
H  H5  1  0.64774402  0.72167886  0.58966461  1  0.126133  0  0.132653  0.108708  0  0.963213  0
H  H6  1  0.33596357  0.12305060  0.40178113  1  0.078055  0  0.114291  0.119449  0  0.984827  0
H  H7  1  0.62000189  0.13344735  0.57162552  1  0.064521  0  0.113551  0.118832  0  0.994057  0
H  H8  1  0.62387178  0.28630338  0.57280238  1  0.108919  0  0.132189  0.109277  0  0.964953  0
H  H9  1  0.35135413  0.27770598  0.41175841  1  0.126036  0  0.132467  0.108554  0  0.963373  0
H  H10  1  0.60067955  0.00300444  0.56081550  1  0.038129  0  0.107561  0.103014  0  0.997945  0
H  H11  1  0.39968805  0.99623400  0.43931459  1  0.056611  0  0.108329  0.103888  0  0.996062  0
H  H12  1  0.50669460  0.61965965  0.26369121  1  0.078723  0  0.101644  0.104429  0  1.003725  0
H  H13  1  0.50706516  0.61216354  0.12320935  1  0.026511  0  0.100015  0.098843  0  1.006337  0
H  H14  1  0.49089321  0.34617157  0.11234567  1  0.052817  0  0.09802  0.095613  0  1.002434  0
H  H15  1  0.49067316  0.35547981  0.25412101  1  0.09585  0  0.102319  0.105761  0  1.004048  0
H  H16  1  0.50931000  0.65406724  0.89071753  1  0.053759  0  0.098004  0.094876  0  1.00348  0
H  H17  1  0.49330364  0.38794676  0.87789560  1  0.072819  0  0.098832  0.096979  0  1.008653  0
H  H18  1  0.49338372  0.38180725  0.73721189  1  0.094264  0  0.102739  0.105977  0  1.00268  0
H  H19  1  0.50930636  0.64593968  0.74887853  1  0.099076  0  0.101936  0.1051  0  1.004784  0
H  H20  1  0.49429815  0.40503509  0.99844547  1  0.010455  0  0.098123  0.093222  0  1.011374  0
H  H21  1  0.50585479  0.59448231  0.00361736  1  0.059501  0  0.098806  0.093706  0  1.011954  0
H  H22  1  0.78066642  0.60136545  0.40086175  1  0.144095  0  0.11515  0.154399  0  0.997566  0
H  H23  1  0.22922382  0.59874799  0.40009943  1  0.086121  0  0.111563  0.144909  0  1.01517  0
C  C24  1  0.49697711  0.49295295  0.35255002  1  1.536974  0  0.211236  0.588177  0  4.177303  0
C  C25  1  0.26333593  0.49635032  0.50084634  1  1.587847  0  0.218891  0.623342  0  4.162504  0
C  C26  1  0.50263910  0.50961788  0.64981493  1  1.510116  0  0.213621  0.590817  0  4.171984  0
C  C27  1  0.73567756  0.49765497  0.50135236  1  1.65194  0  0.218429  0.622214  0  4.163045  0
C  C28  1  0.43997509  0.75197386  0.46378289  1  0.503754  0  0.0618  0.107669  0  3.924791  0
C  C29  1  0.44264831  0.83718707  0.46510298  1  0.014554  0  -0.075872  -0.173682  0  3.924315  0
C  C30  1  0.52378354  0.88517997  0.51423618  1  -0.048242  0  0.010978  0.149923  0  4.034288  0
C  C31  1  0.59911618  0.84246611  0.55975194  1  -0.031617  0  -0.076893  -0.179934  0  3.934638  0
C  C32  1  0.59087268  0.75684949  0.55528746  1  0.506303  0  0.063848  0.109578  0  3.918883  0
C  C33  1  0.53318906  0.97498584  0.51998993  1  0.033012  0  -0.075572  -0.115079  0  3.960458  0
C  C34  1  0.46724812  0.02417916  0.48013847  1  -0.084727  0  -0.074492  -0.112455  0  3.958307  0
C  C35  1  0.40109675  0.15674568  0.44066119  1  -0.070534  0  -0.076658  -0.179242  0  3.935181  0
C  C36  1  0.47679839  0.11399930  0.48591587  1  -0.01537  0  0.009974  0.147042  0  4.036379  0
C  C37  1  0.55848411  0.16187875  0.53475988  1  0.004599  0  -0.076554  -0.174863  0  3.929438  0
C  C38  1  0.56144796  0.24712368  0.53615358  1  0.520294  0  0.063864  0.106897  0  3.920447  0
C  C39  1  0.40899113  0.24237556  0.44551526  1  0.550553  0  0.064969  0.112181  0  3.918091  0
C  C40  1  0.49773057  0.48801602  0.26764177  1  2.5e-05  0  -0.022114  -0.040238  0  3.971987  0
C  C41  1  0.50276750  0.56000894  0.22983440  1  0.004954  0  -0.084935  -0.087353  0  3.99567  0
C  C42  1  0.50310010  0.55528013  0.15103687  1  -0.018164  0  -0.09007  -0.131283  0  3.960863  0
C  C43  1  0.49850024  0.47814614  0.10682568  1  0.007429  0  -0.008488  0.118594  0  4.04193  0
C  C44  1  0.49406518  0.40639122  0.14556328  1  -0.017166  0  -0.093254  -0.14152  0  3.985829  0
C  C45  1  0.49371837  0.41105566  0.22446834  1  -0.106496  0  -0.086538  -0.087171  0  4.000173  0
C  C46  1  0.49816307  0.46898766  0.02408707  1  -0.019925  0  -0.091434  -0.132018  0  4.000491  0
C  C47  1  0.50203713  0.53057380  0.97788465  1  -0.040963  0  -0.090016  -0.127131  0  4.001608  0
C  C48  1  0.50613091  0.59410324  0.85707628  1  -0.1087  0  -0.09294  -0.139777  0  3.987681  0
C  C49  1  0.50176247  0.52191397  0.89518106  1  -0.042304  0  -0.009454  0.114918  0  4.047434  0
C  C50  1  0.49716505  0.44509641  0.85046667  1  -0.012961  0  -0.091211  -0.132574  0  3.968678  0
C  C51  1  0.49733101  0.44107542  0.77170200  1  -0.108436  0  -0.083665  -0.087673  0  3.99546  0
C  C52  1  0.50220274  0.51352151  0.73460920  1  0.085029  0  -0.019448  -0.033377  0  3.96555  0
C  C53  1  0.50630159  0.59015233  0.77824586  1  -0.039418  0  -0.086436  -0.087891  0  4.001765  0
C  C54  1  0.87102412  0.49913160  0.49920126  1  0.01521  0  -0.019345  -0.163918  0  3.945669  0
C  C55  1  0.93752151  0.54939360  0.45067685  1  0.031815  0  -0.002583  0.080601  0  3.975881  0
C  C56  1  0.93377267  0.45134588  0.54482938  1  0.489562  0  0.094695  0.159592  0  4.087328  0
C  C57  1  0.87835653  0.59941910  0.40165695  1  0.035732  0  -0.101116  -0.23944  0  3.970152  0
C  C58  1  0.94420459  0.64734269  0.35613969  1  0.422058  0  0.084575  0.179832  0  4.124102  0
C  C59  1  0.12815630  0.49821661  0.49887698  1  0.06508  0  -0.019128  -0.163743  0  3.947212  0
C  C60  1  0.06058363  0.45088569  0.54476585  1  0.501373  0  0.095261  0.161117  0  4.08984  0
C  C61  1  0.06687628  0.54880398  0.45055099  1  0.098988  0  -0.002726  0.081176  0  3.976284  0
C  C62  1  0.13144671  0.59826962  0.40138355  1  0.074457  0  -0.103662  -0.245007  0  3.987124  0
C  C63  1  0.07101171  0.64685823  0.35618268  1  0.464849  0  0.082579  0.177723  0  4.12541  0
N  N64  1  0.51242439  0.71226567  0.50820312  1  -1.214525  0  -0.317168  -0.193585  0  3.507257  0
N  N65  1  0.48791651  0.28675479  0.49235776  1  -1.221055  0  -0.316916  -0.191237  0  3.509341  0
O  O66  1  0.49332704  0.42509418  0.38281936  1  -1.165697  0  -0.319089  -0.547838  0  2.334911  0
O  O67  1  0.50020056  0.56489420  0.38884867  1  -1.172769  0  -0.323964  -0.562724  0  2.325634  0
O  O68  1  0.31964525  0.56618620  0.50784866  1  -1.16037  0  -0.313781  -0.543349  0  2.322363  0
O  O69  1  0.30903097  0.42600166  0.49466494  1  -1.158275  0  -0.312205  -0.54096  0  2.306138  0
O  O70  1  0.50724439  0.57813877  0.62055427  1  -1.160382  0  -0.321582  -0.549535  0  2.335029  0
O  O71  1  0.49823657  0.43815812  0.61291372  1  -1.168913  0  -0.319268  -0.549761  0  2.32925  0
O  O72  1  0.68179561  0.42737792  0.49599788  1  -1.150418  0  -0.312672  -0.540401  0  2.304744  0
O  O73  1  0.68740171  0.56753343  0.50745674  1  -1.156951  0  -0.313074  -0.546799  0  2.328155  0
F  F74  1  0.11324439  0.40379654  0.59350729  1  -0.618517  0  -0.098801  -0.11618  0  1.358185  0
F  F75  1  0.87619876  0.40438567  0.59364800  1  -0.62158  0  -0.100434  -0.120162  0  1.359594  0
F  F76  1  0.88854822  0.69656312  0.31010045  1  -0.626126  0  -0.112706  -0.140651  0  1.319454  0
F  F77  1  0.13277947  0.69603717  0.31051308  1  -0.635992  0  -0.115546  -0.144933  0  1.318213  0
