# generated using pymatgen
data_AlH11C15NO6
_symmetry_space_group_name_H-M   'P 1'
_cell_length_a   6.63280477
_cell_length_b   15.47052824
_cell_length_c   16.91106817
_cell_angle_alpha   82.15127177
_cell_angle_beta   83.43417305
_cell_angle_gamma   76.89033586
_symmetry_Int_Tables_number   1
_chemical_formula_structural   AlH11C15NO6
_chemical_formula_sum   'Al2 H22 C30 N2 O12'
_cell_volume   1667.97466257
_cell_formula_units_Z   2
loop_
 _symmetry_equiv_pos_site_id
 _symmetry_equiv_pos_as_xyz
  1  'x, y, z'
loop_
 _atom_site_type_symbol
 _atom_site_label
 _atom_site_symmetry_multiplicity
 _atom_site_fract_x
 _atom_site_fract_y
 _atom_site_fract_z
 _atom_site_occupancy
 _atom_site_pbe_bader_charge
 _atom_site_pbe_bader_spin_density
 _atom_site_pbe_cm5_charge
 _atom_site_pbe_ddec_charge
 _atom_site_pbe_ddec_spin_density
 _atom_site_pbe_ddec_sum_bond_order
 _atom_site_pbe_magmom
Al  Al0  1  0.50027786  0.50122584  0.50152661  1  2.50242  0  0.397419  1.638169  0  2.586212  0
Al  Al1  1  0.00007163  0.50224364  0.50056507  1  2.504354  0  0.39697  1.64482  0  2.585942  0
H  H2  1  0.24410044  0.57050379  0.40946474  1  0.615224  0  0.353443  0.429801  0  0.854645  0
H  H3  1  0.79575291  0.39256455  0.54697548  1  0.601565  0  0.350183  0.425307  0  0.863043  0
H  H4  1  0.91520961  0.44018186  0.74266553  1  0.056418  0  0.110269  0.112734  0  0.997343  0
H  H5  1  0.84658750  0.44151358  0.89162534  1  0.092493  0  0.105957  0.10934  0  1.015677  0
H  H6  1  0.36440891  0.56589165  0.88994315  1  0.078261  0  0.106335  0.112248  0  1.004529  0
H  H7  1  0.63661271  0.43180703  0.11187008  1  0.062557  0  0.107017  0.113023  0  1.003352  0
H  H8  1  0.14663829  0.56151629  0.10685793  1  0.115554  0  0.106283  0.109955  0  1.015465  0
H  H9  1  0.07812634  0.56558691  0.25523513  1  0.076134  0  0.104545  0.103382  0  1.004635  0
H  H10  1  0.07742386  0.23069722  0.53481184  1  0.100829  0  0.106854  0.115766  0  1.018136  0
H  H11  1  0.92380513  0.76880106  0.47223236  1  0.114421  0  0.111815  0.12714  0  1.007344  0
H  H12  1  0.28420672  0.77122888  0.54879425  1  0.064599  0  0.104649  0.11037  0  1.008448  0
H  H13  1  0.21483916  0.93428135  0.54501478  1  0.147354  0  0.104293  0.115605  0  1.076301  0
H  H14  1  0.71193489  0.22923266  0.44905278  1  0.059215  0  0.101173  0.104662  0  1.011734  0
H  H15  1  0.77999242  0.06670906  0.45201930  1  0.165375  0  0.104888  0.117725  0  1.067363  0
H  H16  1  0.55651596  0.60701406  0.77340664  1  0.000249  0  0.089565  0.126418  0  0.999878  0
H  H17  1  0.42821497  0.63094532  0.68337044  1  0.057437  0  0.095837  0.137979  0  0.995638  0
H  H18  1  0.60542891  0.52914724  0.70113274  1  0.072809  0  0.100643  0.149346  0  1.006525  0
H  H19  1  0.38916696  0.47066419  0.29619907  1  0.064039  0  0.095198  0.134728  0  1.019385  0
H  H20  1  0.57244543  0.37238597  0.32096899  1  0.054913  0  0.095501  0.138188  0  0.997378  0
H  H21  1  0.45392409  0.38768314  0.22907671  1  0.029236  0  0.091356  0.12806  0  0.996077  0
H  H22  1  0.98128283  0.10653287  0.55341571  1  0.61097  0  0.334615  0.361241  0  0.886934  0
H  H23  1  0.01952985  0.89332482  0.45368608  1  0.616757  0  0.33347  0.361115  0  0.889688  0
C  C24  1  0.65762223  0.66060281  0.50753966  1  1.591674  0  0.26955  0.640887  0  4.097006  0
C  C25  1  0.79344430  0.50649637  0.35509018  1  1.574825  0  0.265647  0.651151  0  4.086642  0
C  C26  1  0.34234820  0.34007487  0.49576885  1  1.564315  0  0.265906  0.641888  0  4.091514  0
C  C27  1  0.20440936  0.49819982  0.64478787  1  1.545298  0  0.27062  0.649323  0  4.086394  0
C  C28  1  0.17887192  0.50104550  0.73319114  1  -0.028916  0  -0.00931  -0.101954  0  3.906227  0
C  C29  1  0.01331178  0.46706979  0.77609233  1  0.055262  0  -0.080401  -0.079108  0  4.008076  0
C  C30  1  0.97433752  0.46775257  0.85818666  1  -0.043529  0  -0.088474  -0.153388  0  3.969156  0
C  C31  1  0.10297433  0.50442467  0.89875026  1  0.350765  0  0.086644  0.178173  0  4.065159  0
C  C32  1  0.26881796  0.53773801  0.85625386  1  -0.046877  0  -0.081399  -0.206242  0  3.902017  0
C  C33  1  0.31100896  0.53718486  0.77331616  1  0.019208  0  0.006203  0.175692  0  3.932791  0
C  C34  1  0.73064416  0.46169795  0.14475350  1  -0.033148  0  -0.081493  -0.207298  0  3.904202  0
C  C35  1  0.89411154  0.49583857  0.10135267  1  0.37796  0  0.086591  0.179701  0  4.064659  0
C  C36  1  0.02061614  0.53461639  0.14093686  1  -0.014359  0  -0.08807  -0.151591  0  3.967826  0
C  C37  1  0.98162571  0.53663188  0.22286427  1  -0.053248  0  -0.08122  -0.07713  0  4.013143  0
C  C38  1  0.81830393  0.50196428  0.26686297  1  -0.044408  0  -0.013965  -0.105791  0  3.90724  0
C  C39  1  0.68867406  0.46352640  0.22760220  1  -0.03609  0  0.004763  0.174858  0  3.931815  0
C  C40  1  0.38967053  0.24152592  0.49387043  1  -0.018663  0  -0.020344  -0.015938  0  4.026373  0
C  C41  1  0.60907541  0.75913825  0.50872695  1  -0.079228  0  -0.016375  -0.011756  0  4.028183  0
C  C42  1  0.23369923  0.19405182  0.51741424  1  -0.01734  0  -0.106195  -0.245943  0  4.013328  0
C  C43  1  0.27150206  0.10124464  0.52072487  1  0.423856  0  0.087199  0.27136  0  4.01907  0
C  C44  1  0.76650030  0.80617081  0.48726708  1  -0.013974  0  -0.104894  -0.247884  0  4.003265  0
C  C45  1  0.72820391  0.89901374  0.48365546  1  0.423972  0  0.085786  0.269591  0  4.021672  0
C  C46  1  0.40863893  0.80703466  0.52957834  1  0.059136  0  -0.102786  -0.13714  0  4.047501  0
C  C47  1  0.37072742  0.89938635  0.52709222  1  -0.095066  0  -0.10033  -0.137245  0  3.998719  0
C  C48  1  0.58817971  0.19362927  0.47026595  1  -0.008374  0  -0.103703  -0.136264  0  4.048297  0
C  C49  1  0.62562351  0.10129285  0.47223957  1  -0.09472  0  -0.099322  -0.134678  0  3.990072  0
C  C50  1  0.47353803  0.04972677  0.49900106  1  0.029745  0  -0.008687  -0.006722  0  3.883793  0
C  C51  1  0.52459268  0.95064973  0.50281218  1  -0.026425  0  -0.009117  -0.009442  0  3.889119  0
C  C52  1  0.48496972  0.57805083  0.73095254  1  -0.039256  0  -0.238724  -0.416159  0  3.94984  0
C  C53  1  0.51711591  0.42138132  0.27048126  1  -0.036752  0  -0.237443  -0.407842  0  3.954208  0
N  N54  1  0.07822769  0.51174125  0.98179658  1  -0.49202  0  -0.149079  -0.13505  0  3.280985  0
N  N55  1  0.91849519  0.48778264  0.01839098  1  -0.468207  0  -0.150462  -0.139661  0  3.274363  0
O  O56  1  0.50600681  0.62134204  0.51600365  1  -1.254496  0  -0.233325  -0.585313  0  2.348704  0
O  O57  1  0.95925658  0.50090147  0.38894059  1  -1.258052  0  -0.241343  -0.60709  0  2.343265  0
O  O58  1  0.15108031  0.37884721  0.50533335  1  -1.266249  0  -0.239339  -0.60224  0  2.346465  0
O  O59  1  0.38755537  0.48606373  0.60990240  1  -1.263546  0  -0.232014  -0.586466  0  2.360136  0
O  O60  1  0.49609685  0.37821608  0.48919122  1  -1.257552  0  -0.240305  -0.603606  0  2.345985  0
O  O61  1  0.03937647  0.50643764  0.61001825  1  -1.257496  0  -0.232933  -0.584639  0  2.340251  0
O  O62  1  0.84851503  0.62267477  0.49629079  1  -1.277352  0  -0.234256  -0.588579  0  2.35703  0
O  O63  1  0.61039922  0.51689670  0.39046716  1  -1.263395  0  -0.237349  -0.603633  0  2.357388  0
O  O64  1  0.23967494  0.54320398  0.46449516  1  -1.421545  0  -0.448131  -0.991638  0  2.215287  0
O  O65  1  0.76456768  0.45698801  0.53478551  1  -1.406322  0  -0.446663  -0.986035  0  2.20708  0
O  O66  1  0.10793065  0.06088620  0.54578787  1  -1.125388  0  -0.339856  -0.426724  0  2.359873  0
O  O67  1  0.89317588  0.93921028  0.46120491  1  -1.137203  0  -0.33988  -0.429557  0  2.361398  0
