# generated using pymatgen
data_Cd3H6C3(N9Cl)2
_symmetry_space_group_name_H-M   'P 1'
_cell_length_a   6.95044219
_cell_length_b   13.57662423
_cell_length_c   16.83600000
_cell_angle_alpha   90.00000000
_cell_angle_beta   90.00000000
_cell_angle_gamma   90.00000000
_symmetry_Int_Tables_number   1
_chemical_formula_structural   Cd3H6C3(N9Cl)2
_chemical_formula_sum   'Cd12 H24 C12 N72 Cl8'
_cell_volume   1588.70459041
_cell_formula_units_Z   4
loop_
 _symmetry_equiv_pos_site_id
 _symmetry_equiv_pos_as_xyz
  1  'x, y, z'
loop_
 _atom_site_type_symbol
 _atom_site_label
 _atom_site_symmetry_multiplicity
 _atom_site_fract_x
 _atom_site_fract_y
 _atom_site_fract_z
 _atom_site_occupancy
 _atom_site_hle17_bader_spin_density
 _atom_site_hle17_ddec_charge
 _atom_site_hle17_ddec_spin_density
 _atom_site_hle17_ddec_sum_bond_order
 _atom_site_hle17_magmom
 _atom_site_hse06_10hf_bader_spin_density
 _atom_site_hse06_10hf_ddec_charge
 _atom_site_hse06_10hf_ddec_spin_density
 _atom_site_hse06_10hf_ddec_sum_bond_order
 _atom_site_hse06_10hf_magmom
 _atom_site_hse06_bader_spin_density
 _atom_site_hse06_ddec_charge
 _atom_site_hse06_ddec_spin_density
 _atom_site_hse06_ddec_sum_bond_order
 _atom_site_hse06_magmom
 _atom_site_pbe_bader_charge
 _atom_site_pbe_bader_spin_density
 _atom_site_pbe_cm5_charge
 _atom_site_pbe_ddec_charge
 _atom_site_pbe_ddec_spin_density
 _atom_site_pbe_ddec_sum_bond_order
 _atom_site_pbe_magmom
Cd  Cd0  1  0.39168587  0.79819842  0.61376277  1  0  0.977896  0  1.935965  0  0  0.788082  0  2.412398  0  0  0.834503  0  2.371347  0  1.209882  0  0.712232  0.755413  0  2.44032  0
Cd  Cd1  1  0.89168284  0.20180053  0.38623604  1  0  0.977939  0  1.935839  0  0  0.788125  0  2.412265  0  0  0.834545  0  2.371213  0  1.209971  0  0.712238  0.755458  0  2.440185  0
Cd  Cd2  1  0.89168284  0.70180332  0.11376396  1  0  0.977899  0  1.935955  0  0  0.788086  0  2.412386  0  0  0.834503  0  2.371338  0  1.209981  0  0.712214  0.755418  0  2.440309  0
Cd  Cd3  1  0.39168443  0.29819710  0.88623664  1  0  0.977895  0  1.935926  0  0  0.788078  0  2.412348  0  0  0.834496  0  2.371302  0  1.209916  0  0.712221  0.755408  0  2.440272  0
Cd  Cd4  1  0.39299658  0.52998668  0.72813495  1  0  0.970238  0  1.87804  0  0  0.768486  0  2.350739  0  0  0.817549  0  2.309229  0  1.197551  0  0.698061  0.733924  0  2.378969  0
Cd  Cd5  1  0.89299498  0.47000933  0.27186565  1  0  0.970235  0  1.878091  0  0  0.76849  0  2.350785  0  0  0.817551  0  2.309278  0  1.19743  0  0.698054  0.733929  0  2.379014  0
Cd  Cd6  1  0.89299498  0.97001433  0.22813435  1  0  0.970249  0  1.878055  0  0  0.768513  0  2.35075  0  0  0.817572  0  2.309243  0  1.197562  0  0.698064  0.733952  0  2.37898  0
Cd  Cd7  1  0.39299226  0.02998831  0.77186327  1  0  0.970238  0  1.878126  0  0  0.768495  0  2.350828  0  0  0.817557  0  2.309317  0  1.197509  0  0.698051  0.733935  0  2.379059  0
Cd  Cd8  1  0.65738264  0.07190153  0.56587254  1  0  0.989582  0  1.896678  0  0  0.783551  0  2.376892  0  0  0.830971  0  2.336926  0  1.230551  0  0.762872  0.749942  0  2.404186  0
Cd  Cd9  1  0.15738855  0.92809669  0.43412984  1  0  0.989662  0  1.896625  0  0  0.78364  0  2.376816  0  0  0.831061  0  2.33685  0  1.230635  0  0.7629  0.750031  0  2.404111  0
Cd  Cd10  1  0.15738711  0.42810200  0.06587194  1  0  0.989624  0  1.896625  0  0  0.783586  0  2.37683  0  0  0.831008  0  2.336863  0  1.23069  0  0.762884  0.749976  0  2.404128  0
Cd  Cd11  1  0.65739558  0.57189769  0.93412806  1  0  0.989627  0  1.896627  0  0  0.783587  0  2.376839  0  0  0.831006  0  2.336874  0  1.230609  0  0.762883  0.749976  0  2.404135  0
H  H12  1  0.77255660  0.73716631  0.74770789  1  0  0.330167  0  0.894757  0  0  0.312023  0  0.960656  0  0  0.316806  0  0.958388  0  0.459459  0  0.310162  0.308648  0  0.962285  0
H  H13  1  0.27255532  0.26283338  0.25229330  1  0  0.330121  0  0.894856  0  0  0.312008  0  0.960727  0  0  0.316791  0  0.95846  0  0.459457  0  0.310136  0.308634  0  0.962355  0
H  H14  1  0.27255676  0.76283175  0.24770789  1  0  0.330116  0  0.894821  0  0  0.311999  0  0.960684  0  0  0.316782  0  0.958417  0  0.45945  0  0.31015  0.308625  0  0.962312  0
H  H15  1  0.77255660  0.23716868  0.75229152  1  0  0.330187  0  0.894715  0  0  0.312074  0  0.960567  0  0  0.316857  0  0.9583  0  0.459455  0  0.310167  0.3087  0  0.962196  0
H  H16  1  0.01802763  0.74012065  0.74750594  1  0  0.335757  0  0.892817  0  0  0.314177  0  0.967622  0  0  0.319594  0  0.963633  0  0.493838  0  0.308902  0.310349  0  0.970445  0
H  H17  1  0.51802316  0.25987756  0.25249406  1  0  0.335774  0  0.892814  0  0  0.314212  0  0.967609  0  0  0.319627  0  0.963621  0  0.493895  0  0.308916  0.310384  0  0.97043  0
H  H18  1  0.51802747  0.75987814  0.24750475  1  0  0.335739  0  0.892834  0  0  0.314178  0  0.96761  0  0  0.319594  0  0.963623  0  0.493881  0  0.308888  0.310351  0  0.970431  0
H  H19  1  0.01802763  0.24012302  0.75249168  1  0  0.335799  0  0.89284  0  0  0.314241  0  0.967624  0  0  0.319658  0  0.963632  0  0.493948  0  0.308926  0.310412  0  0.970449  0
H  H20  1  0.01801900  0.45329604  0.59496911  1  0  0.316454  0  0.898316  0  0  0.304392  0  0.960657  0  0  0.309887  0  0.95626  0  0.453793  0  0.297507  0.300496  0  0.963766  0
H  H21  1  0.51801740  0.54670144  0.40503207  1  0  0.316492  0  0.898292  0  0  0.304434  0  0.960622  0  0  0.30993  0  0.956219  0  0.453805  0  0.297532  0.300536  0  0.96374  0
H  H22  1  0.51801740  0.04670528  0.09496614  1  0  0.316438  0  0.898347  0  0  0.304383  0  0.960679  0  0  0.309879  0  0.956277  0  0.453884  0  0.297518  0.300486  0  0.963791  0
H  H23  1  0.01802044  0.95329736  0.90503267  1  0  0.316464  0  0.898302  0  0  0.304413  0  0.96062  0  0  0.309908  0  0.956221  0  0.453779  0  0.297514  0.300516  0  0.963731  0
H  H24  1  0.77623119  0.45322017  0.59211273  1  0  0.307002  0  0.944252  0  0  0.288654  0  1.017379  0  0  0.295136  0  1.012626  0  0.485985  0  0.282643  0.284091  0  1.020659  0
H  H25  1  0.27623135  0.54678025  0.40788786  1  0  0.307023  0  0.944193  0  0  0.288685  0  1.017304  0  0  0.295167  0  1.012547  0  0.485944  0  0.282658  0.284122  0  1.020584  0
H  H26  1  0.27623422  0.04678188  0.09211155  1  0  0.306962  0  0.944319  0  0  0.288668  0  1.017371  0  0  0.295151  0  1.012615  0  0.486437  0  0.28266  0.284105  0  1.020651  0
H  H27  1  0.77623407  0.95321928  0.90788845  1  0  0.307018  0  0.944185  0  0  0.288668  0  1.017318  0  0  0.295151  0  1.012565  0  0.485996  0  0.282647  0.284104  0  1.020603  0
H  H28  1  0.46004987  0.92835375  0.95162271  1  0  0.328402  0  0.898625  0  0  0.313498  0  0.96227  0  0  0.319832  0  0.956767  0  0.477009  0  0.295287  0.309003  0  0.966173  0
H  H29  1  0.96005259  0.07164741  0.04837729  1  0  0.328359  0  0.898689  0  0  0.313472  0  0.962302  0  0  0.319805  0  0.956799  0  0.477006  0  0.295298  0.308978  0  0.9662  0
H  H30  1  0.96005259  0.57164578  0.45162331  1  0  0.328444  0  0.898726  0  0  0.313544  0  0.962344  0  0  0.319878  0  0.95684  0  0.476999  0  0.295323  0.309049  0  0.966246  0
H  H31  1  0.46005131  0.42835317  0.54837610  1  0  0.328424  0  0.89868  0  0  0.313517  0  0.962316  0  0  0.319851  0  0.956812  0  0.476978  0  0.295309  0.309023  0  0.966216  0
H  H32  1  0.56778402  0.82496207  0.98746020  1  0  0.336036  0  0.878508  0  0  0.318435  0  0.944494  0  0  0.324007  0  0.940742  0  0.467981  0  0.306386  0.314508  0  0.947123  0
H  H33  1  0.06778418  0.17504130  0.01254098  1  0  0.336067  0  0.878543  0  0  0.318522  0  0.944469  0  0  0.324093  0  0.940723  0  0.467963  0  0.306412  0.314594  0  0.947101  0
H  H34  1  0.06778274  0.67503820  0.48746139  1  0  0.336048  0  0.878471  0  0  0.318427  0  0.944495  0  0  0.323998  0  0.940749  0  0.467951  0  0.306368  0.314501  0  0.947124  0
H  H35  1  0.56778402  0.32496296  0.51254039  1  0  0.336072  0  0.878485  0  0  0.318424  0  0.944519  0  0  0.323994  0  0.940772  0  0.468  0  0.30639  0.314498  0  0.947148  0
C  C36  1  0.89424670  0.51153143  0.69133999  1  0  0.567255  0  3.817075  0  0  0.519107  0  4.105084  0  0  0.542286  0  4.113299  0  1.452327  0  0.318736  0.503434  0  4.099154  0
C  C37  1  0.39424398  0.48846679  0.30866180  1  0  0.567159  0  3.817301  0  0  0.519087  0  4.105196  0  0  0.542267  0  4.11341  0  1.452389  0  0.318742  0.503414  0  4.099265  0
C  C38  1  0.39424830  0.98846958  0.19133880  1  0  0.567113  0  3.817337  0  0  0.51907  0  4.1052  0  0  0.542249  0  4.113416  0  1.452403  0  0.318747  0.503398  0  4.099267  0
C  C39  1  0.89424526  0.01153232  0.80866061  1  0  0.567193  0  3.817211  0  0  0.519037  0  4.105237  0  0  0.542218  0  4.113452  0  1.452347  0  0.318732  0.503365  0  4.099304  0
C  C40  1  0.88988583  0.79673635  0.64864576  1  0  0.577538  0  3.826145  0  0  0.532651  0  4.106126  0  0  0.555059  0  4.114538  0  1.515553  0  0.328071  0.517437  0  4.10026  0
C  C41  1  0.38988311  0.20326334  0.35135662  1  0  0.577613  0  3.825995  0  0  0.532736  0  4.105987  0  0  0.555155  0  4.114385  0  1.515898  0  0.328074  0.517521  0  4.10012  0
C  C42  1  0.38988311  0.70326245  0.14864279  1  0  0.577467  0  3.826133  0  0  0.5327  0  4.105981  0  0  0.55507  0  4.114448  0  1.515923  0  0.328112  0.517485  0  4.100114  0
C  C43  1  0.88988727  0.29673577  0.85135365  1  0  0.577563  0  3.825994  0  0  0.532672  0  4.106  0  0  0.555116  0  4.114367  0  1.515604  0  0.328062  0.517459  0  4.100132  0
C  C44  1  0.48586261  0.81621689  0.87181694  1  0  0.551809  0  3.823141  0  0  0.505944  0  4.111154  0  0  0.526044  0  4.121142  0  1.488465  0  0.325342  0.492325  0  4.104258  0
C  C45  1  0.98586102  0.18378501  0.12818425  1  0  0.551798  0  3.823075  0  0  0.505942  0  4.111103  0  0  0.526042  0  4.121091  0  1.488474  0  0.325406  0.492323  0  4.104207  0
C  C46  1  0.98586246  0.68378412  0.37181694  1  0  0.551834  0  3.822992  0  0  0.505973  0  4.111  0  0  0.526074  0  4.120988  0  1.48847  0  0.325436  0.492354  0  4.104105  0
C  C47  1  0.48585542  0.31621631  0.62818306  1  0  0.551704  0  3.82315  0  0  0.505801  0  4.111191  0  0  0.525901  0  4.121183  0  1.488486  0  0.32536  0.492181  0  4.104297  0
N  N48  1  0.05356350  0.52998079  0.73563614  1  0  -0.416786  0  3.087742  0  0  -0.347857  0  3.377636  0  0  -0.370562  0  3.391262  0  -0.714484  0  -0.256135  -0.332445  0  3.368047  0
N  N49  1  0.55356190  0.47001816  0.26436565  1  0  -0.416793  0  3.087817  0  0  -0.347858  0  3.377648  0  0  -0.370567  0  3.391279  0  -0.714447  0  -0.256126  -0.332445  0  3.368058  0
N  N50  1  0.55356766  0.97002022  0.23563495  1  0  -0.416818  0  3.087888  0  0  -0.347923  0  3.377762  0  0  -0.370629  0  3.391389  0  -0.714568  0  -0.256207  -0.332511  0  3.368173  0
N  N51  1  0.05356206  0.02998168  0.76436268  1  0  -0.416755  0  3.087718  0  0  -0.347828  0  3.377607  0  0  -0.370533  0  3.391232  0  -0.71443  0  -0.25615  -0.332416  0  3.368017  0
N  N52  1  0.73535897  0.52350348  0.73661380  1  0  -0.411955  0  3.073174  0  0  -0.355459  0  3.358283  0  0  -0.376121  0  3.374205  0  -0.734957  0  -0.262228  -0.341466  0  3.347194  0
N  N53  1  0.23535625  0.47649547  0.26338798  1  0  -0.411944  0  3.07333  0  0  -0.35547  0  3.358421  0  0  -0.376133  0  3.374346  0  -0.734991  0  -0.262269  -0.341476  0  3.34733  0
N  N54  1  0.23536056  0.97649753  0.23661262  1  0  -0.41178  0  3.073157  0  0  -0.355311  0  3.358221  0  0  -0.375971  0  3.374143  0  -0.734925  0  -0.26217  -0.341319  0  3.34713  0
N  N55  1  0.73535465  0.02350437  0.76338738  1  0  -0.411971  0  3.073202  0  0  -0.355468  0  3.358316  0  0  -0.376131  0  3.374238  0  -0.73497  0  -0.262276  -0.341476  0  3.347227  0
N  N56  1  0.04559278  0.82039613  0.60441554  1  0  -0.396748  0  3.044325  0  0  -0.340741  0  3.320045  0  0  -0.359407  0  3.333233  0  -0.728072  0  -0.251143  -0.3281  0  3.310907  0
N  N57  1  0.54558975  0.17960282  0.39558327  1  0  -0.396863  0  3.044468  0  0  -0.340842  0  3.320196  0  0  -0.35951  0  3.333377  0  -0.728401  0  -0.251202  -0.328202  0  3.311061  0
N  N58  1  0.54559119  0.67960266  0.10441554  1  0  -0.396795  0  3.044514  0  0  -0.340817  0  3.320225  0  0  -0.359471  0  3.333425  0  -0.728382  0  -0.251163  -0.328177  0  3.311092  0
N  N59  1  0.04559566  0.32039629  0.89558327  1  0  -0.396796  0  3.044394  0  0  -0.34078  0  3.320105  0  0  -0.359461  0  3.333292  0  -0.728158  0  -0.251157  -0.32814  0  3.310972  0
N  N60  1  0.39064853  0.78405794  0.75375802  1  0  -0.11388  0  3.208307  0  0  -0.07018  0  3.504145  0  0  -0.075306  0  3.518606  0  -0.20123  0  -0.122104  -0.066406  0  3.494112  0
N  N61  1  0.89064693  0.21594101  0.24624258  1  0  -0.113773  0  3.208439  0  0  -0.070026  0  3.504238  0  0  -0.075153  0  3.518702  0  -0.201287  0  -0.122009  -0.066252  0  3.494201  0
N  N62  1  0.89064837  0.71594159  0.25375861  1  0  -0.11386  0  3.208325  0  0  -0.070147  0  3.504159  0  0  -0.075274  0  3.518622  0  -0.201194  0  -0.122082  -0.066373  0  3.494123  0
N  N63  1  0.39063989  0.28405809  0.74624198  1  0  -0.113803  0  3.208503  0  0  -0.070062  0  3.504306  0  0  -0.075189  0  3.518768  0  -0.201355  0  -0.121995  -0.066289  0  3.494272  0
N  N64  1  0.72969314  0.83702398  0.61654193  1  0  -0.410914  0  3.068712  0  0  -0.354802  0  3.354118  0  0  -0.375124  0  3.368467  0  -0.728459  0  -0.256124  -0.340995  0  3.344149  0
N  N65  1  0.22969042  0.16298087  0.38345985  1  0  -0.410914  0  3.068586  0  0  -0.354817  0  3.354037  0  0  -0.375126  0  3.368335  0  -0.728041  0  -0.256097  -0.341025  0  3.344113  0
N  N66  1  0.22968898  0.66297777  0.11654075  1  0  -0.410824  0  3.068621  0  0  -0.354772  0  3.35405  0  0  -0.375064  0  3.368366  0  -0.728039  0  -0.256134  -0.340975  0  3.34411  0
N  N67  1  0.72969314  0.33701971  0.88345807  1  0  -0.410839  0  3.06842  0  0  -0.354731  0  3.353867  0  0  -0.375047  0  3.36816  0  -0.727913  0  -0.256081  -0.340924  0  3.343901  0
N  N68  1  0.41696915  0.85883058  0.80523462  1  0  -0.37262  0  3.073923  0  0  -0.320201  0  3.363731  0  0  -0.338156  0  3.376581  0  -0.715722  0  -0.244435  -0.308118  0  3.35494  0
N  N69  1  0.91697044  0.14116911  0.19476598  1  0  -0.372671  0  3.073976  0  0  -0.320297  0  3.363831  0  0  -0.33825  0  3.376678  0  -0.715748  0  -0.244496  -0.308214  0  3.355041  0
N  N70  1  0.91697044  0.64116822  0.30523462  1  0  -0.372665  0  3.073915  0  0  -0.320278  0  3.36378  0  0  -0.338233  0  3.376631  0  -0.715719  0  -0.244495  -0.308194  0  3.354987  0
N  N71  1  0.41696052  0.35883073  0.69476479  1  0  -0.372586  0  3.073944  0  0  -0.320182  0  3.363809  0  0  -0.338137  0  3.37666  0  -0.715765  0  -0.244465  -0.3081  0  3.355019  0
N  N72  1  0.38640275  0.82313393  0.47774887  1  0  -0.619379  0  2.850807  0  0  -0.563302  0  3.174453  0  0  -0.593408  0  3.182222  0  -0.334731  0  -0.352721  -0.542628  0  3.168928  0
N  N73  1  0.88639252  0.17685987  0.52224994  1  0  -0.619477  0  2.850887  0  0  -0.563379  0  3.17455  0  0  -0.593483  0  3.182319  0  -0.334953  0  -0.352808  -0.542709  0  3.169034  0
N  N74  1  0.88639684  0.67686340  0.97774947  1  0  -0.61948  0  2.850898  0  0  -0.563369  0  3.174538  0  0  -0.593475  0  3.182308  0  -0.334824  0  -0.352771  -0.542695  0  3.169019  0
N  N75  1  0.38639844  0.32313703  0.02224935  1  0  -0.619498  0  2.850896  0  0  -0.563399  0  3.174553  0  0  -0.593505  0  3.182325  0  -0.334848  0  -0.35279  -0.542726  0  3.169035  0
N  N76  1  0.99027225  0.55533834  0.80847173  1  0  -0.038867  0  3.037548  0  0  -0.041669  0  3.33484  0  0  -0.036703  0  3.348964  0  -0.031639  0  -0.107894  -0.044666  0  3.325065  0
N  N77  1  0.49027097  0.44466135  0.19153005  1  0  -0.03884  0  3.037411  0  0  -0.04165  0  3.334708  0  0  -0.036683  0  3.348831  0  -0.031639  0  -0.107893  -0.044647  0  3.324932  0
N  N78  1  0.49027816  0.94466414  0.30846995  1  0  -0.038761  0  3.037615  0  0  -0.041569  0  3.334926  0  0  -0.036602  0  3.34905  0  -0.031389  0  -0.107866  -0.044566  0  3.325149  0
N  N79  1  0.99026793  0.05533924  0.69152827  1  0  -0.038861  0  3.037404  0  0  -0.041646  0  3.334674  0  0  -0.036679  0  3.348795  0  -0.031599  0  -0.107883  -0.044643  0  3.324899  0
N  N80  1  0.89470854  0.74135881  0.71514730  1  0  -0.676247  0  3.093272  0  0  -0.64441  0  3.33358  0  0  -0.663182  0  3.332873  0  -1.267266  0  -0.583172  -0.631226  0  3.333841  0
N  N81  1  0.39470438  0.25864235  0.28485091  1  0  -0.676216  0  3.093047  0  0  -0.644463  0  3.333378  0  0  -0.663241  0  3.33267  0  -1.267313  0  -0.583169  -0.631277  0  3.333638  0
N  N82  1  0.39470438  0.75864219  0.21514849  1  0  -0.676091  0  3.093035  0  0  -0.644341  0  3.333335  0  0  -0.663104  0  3.33265  0  -1.267259  0  -0.583135  -0.631156  0  3.333595  0
N  N83  1  0.89471142  0.24135823  0.78485091  1  0  -0.676322  0  3.093182  0  0  -0.644548  0  3.333535  0  0  -0.663335  0  3.332817  0  -1.267413  0  -0.583215  -0.631365  0  3.333799  0
N  N84  1  0.80392007  0.55131010  0.80880257  1  0  -0.135723  0  3.270333  0  0  -0.085815  0  3.568174  0  0  -0.094012  0  3.586222  0  -0.269032  0  -0.134016  -0.079928  0  3.555574  0
N  N85  1  0.30391735  0.44868959  0.19119922  1  0  -0.135723  0  3.270233  0  0  -0.085826  0  3.568098  0  0  -0.094023  0  3.586148  0  -0.269028  0  -0.133984  -0.079938  0  3.555496  0
N  N86  1  0.30392455  0.94869091  0.30880197  1  0  -0.135885  0  3.270437  0  0  -0.085989  0  3.568328  0  0  -0.094187  0  3.586378  0  -0.269227  0  -0.134046  -0.080099  0  3.555725  0
N  N87  1  0.80391432  0.05131246  0.69119803  1  0  -0.135703  0  3.270091  0  0  -0.085801  0  3.567935  0  0  -0.093998  0  3.585983  0  -0.269106  0  -0.133981  -0.079914  0  3.555335  0
N  N88  1  0.79108348  0.89037671  0.55351093  1  0  -0.089515  0  3.096818  0  0  -0.064802  0  3.385838  0  0  -0.066409  0  3.401544  0  -0.140685  0  -0.110545  -0.063294  0  3.37492  0
N  N89  1  0.29107932  0.10962740  0.44649026  1  0  -0.089494  0  3.096601  0  0  -0.064771  0  3.385611  0  0  -0.066378  0  3.401321  0  -0.14131  0  -0.110534  -0.063264  0  3.374688  0
N  N90  1  0.29108076  0.60962356  0.05351033  1  0  -0.089614  0  3.096716  0  0  -0.064892  0  3.385752  0  0  -0.066499  0  3.401459  0  -0.141323  0  -0.110591  -0.063382  0  3.37483  0
N  N91  1  0.79108492  0.39037465  0.94648848  1  0  -0.089565  0  3.096703  0  0  -0.064854  0  3.385722  0  0  -0.066462  0  3.401432  0  -0.141137  0  -0.110572  -0.063344  0  3.374803  0
N  N92  1  0.97714215  0.88029320  0.54695771  1  0  -0.090448  0  3.224858  0  0  -0.042939  0  3.513925  0  0  -0.048426  0  3.530265  0  -0.175241  0  -0.116913  -0.038806  0  3.502512  0
N  N93  1  0.47713799  0.11970722  0.45304170  1  0  -0.090431  0  3.22491  0  0  -0.042932  0  3.513981  0  0  -0.048421  0  3.530324  0  -0.175221  0  -0.116895  -0.038799  0  3.502566  0
N  N94  1  0.47713943  0.61970486  0.04695771  1  0  -0.090397  0  3.224883  0  0  -0.042898  0  3.513971  0  0  -0.048384  0  3.53031  0  -0.175254  0  -0.11688  -0.038766  0  3.502558  0
N  N95  1  0.97714359  0.38029336  0.95304051  1  0  -0.090417  0  3.224893  0  0  -0.042896  0  3.513941  0  0  -0.048384  0  3.530282  0  -0.175263  0  -0.116894  -0.038766  0  3.50253  0
N  N96  1  0.89643505  0.48901847  0.61241091  1  0  -0.689911  0  3.0661  0  0  -0.665411  0  3.303657  0  0  -0.683355  0  3.299322  0  -1.239206  0  -0.595786  -0.652686  0  3.306237  0
N  N97  1  0.39643233  0.51098048  0.38759028  1  0  -0.689951  0  3.066143  0  0  -0.665474  0  3.303648  0  0  -0.683416  0  3.299314  0  -1.23928  0  -0.595835  -0.65275  0  3.306222  0
N  N98  1  0.39643521  0.01098285  0.11240912  1  0  -0.689853  0  3.066286  0  0  -0.665434  0  3.30376  0  0  -0.683377  0  3.299428  0  -1.239864  0  -0.595828  -0.652708  0  3.306336  0
N  N99  1  0.89643649  0.98901905  0.88758969  1  0  -0.689914  0  3.066097  0  0  -0.665418  0  3.303665  0  0  -0.683363  0  3.299329  0  -1.23922  0  -0.595775  -0.652692  0  3.306243  0
N  N100  1  0.50606708  0.71819989  0.86116714  1  0  -0.371995  0  3.027202  0  0  -0.329787  0  3.316152  0  0  -0.346497  0  3.329843  0  -0.693933  0  -0.235789  -0.318511  0  3.306756  0
N  N101  1  0.00606580  0.28180127  0.13883405  1  0  -0.371856  0  3.027221  0  0  -0.329653  0  3.316182  0  0  -0.346363  0  3.329875  0  -0.693925  0  -0.235781  -0.318376  0  3.306784  0
N  N102  1  0.00606868  0.78180038  0.36116655  1  0  -0.371968  0  3.02719  0  0  -0.329763  0  3.316146  0  0  -0.34647  0  3.32983  0  -0.693922  0  -0.235815  -0.318486  0  3.306749  0
N  N103  1  0.50605989  0.21820004  0.63883345  1  0  -0.371726  0  3.027238  0  0  -0.329527  0  3.31626  0  0  -0.34623  0  3.329937  0  -0.693815  0  -0.235724  -0.318248  0  3.306862  0
N  N104  1  0.44441777  0.70088336  0.78688346  1  0  -0.101477  0  3.166723  0  0  -0.06761  0  3.460227  0  0  -0.070023  0  3.474513  0  -0.166334  0  -0.108792  -0.065555  0  3.450302  0
N  N105  1  0.94441473  0.29911633  0.21311713  1  0  -0.101637  0  3.167003  0  0  -0.067786  0  3.460526  0  0  -0.070201  0  3.474815  0  -0.166339  0  -0.108859  -0.065731  0  3.450599  0
N  N106  1  0.94441761  0.79911691  0.28688346  1  0  -0.101493  0  3.166713  0  0  -0.06762  0  3.460211  0  0  -0.070033  0  3.474499  0  -0.166335  0  -0.108799  -0.065565  0  3.450285  0
N  N107  1  0.44440913  0.20088352  0.71311594  1  0  -0.101726  0  3.167136  0  0  -0.067906  0  3.460687  0  0  -0.070319  0  3.474975  0  -0.166269  0  -0.108911  -0.065852  0  3.450762  0
N  N108  1  0.47747897  0.77293293  0.43202126  1  0  0.423878  0  4.206475  0  0  0.451312  0  4.492863  0  0  0.468338  0  4.520467  0  -0.344643  0  0.087671  0.439764  0  4.474366  0
N  N109  1  0.97746587  0.22705939  0.56797755  1  0  0.423861  0  4.206434  0  0  0.451257  0  4.492847  0  0  0.468283  0  4.520453  0  -0.344483  0  0.087621  0.439707  0  4.474357  0
N  N110  1  0.97747018  0.72706439  0.93202126  1  0  0.423881  0  4.206545  0  0  0.451293  0  4.492931  0  0  0.46832  0  4.520535  0  -0.34447  0  0.087659  0.439744  0  4.474438  0
N  N111  1  0.47747034  0.27293604  0.06797695  1  0  0.423902  0  4.206484  0  0  0.451299  0  4.492891  0  0  0.468325  0  4.520496  0  -0.344424  0  0.087696  0.439749  0  4.474395  0
N  N112  1  0.53782190  0.86664327  0.93881207  1  0  -0.685348  0  3.066804  0  0  -0.647037  0  3.292515  0  0  -0.664995  0  3.288531  0  -1.246214  0  -0.576061  -0.634375  0  3.295026  0
N  N113  1  0.03781918  0.13335863  0.06118734  1  0  -0.685335  0  3.066821  0  0  -0.64711  0  3.292497  0  0  -0.665072  0  3.28851  0  -1.246125  0  -0.57613  -0.634449  0  3.295009  0
N  N114  1  0.03781630  0.63335626  0.43881266  1  0  -0.685417  0  3.066829  0  0  -0.647096  0  3.29256  0  0  -0.665057  0  3.288573  0  -1.246148  0  -0.576109  -0.634434  0  3.295071  0
N  N115  1  0.53781902  0.36664416  0.56118852  1  0  -0.685423  0  3.066825  0  0  -0.647023  0  3.292561  0  0  -0.664979  0  3.288576  0  -1.246221  0  -0.57612  -0.634364  0  3.295074  0
N  N116  1  0.56484895  0.72393180  0.38850024  1  0  -0.35664  0  2.439085  0  0  -0.359889  0  2.679521  0  0  -0.363648  0  2.687658  0  0.015625  0  -0.178579  -0.357465  0  2.674551  0
N  N117  1  0.06483472  0.27605979  0.61149917  1  0  -0.356534  0  2.438938  0  0  -0.35973  0  2.679309  0  0  -0.363495  0  2.687453  0  0.01573  0  -0.178449  -0.35729  0  2.674319  0
N  N118  1  0.06483616  0.77606405  0.88849964  1  0  -0.356559  0  2.439118  0  0  -0.359776  0  2.679489  0  0  -0.363537  0  2.68763  0  0.015556  0  -0.178504  -0.357343  0  2.674506  0
N  N119  1  0.56483744  0.22393490  0.11150036  1  0  -0.356594  0  2.43907  0  0  -0.359786  0  2.679437  0  0  -0.363547  0  2.687578  0  0.015534  0  -0.178535  -0.357353  0  2.674455  0
Cl  Cl120  1  0.39617335  0.60724963  0.58697969  1  0  -0.543894  0  0.947124  0  0  -0.47082  0  1.224861  0  0  -0.487649  0  1.201462  0  -0.644677  0  -0.301482  -0.459036  0  1.240989  0
Cl  Cl121  1  0.89616744  0.39275448  0.41302269  1  0  -0.543873  0  0.947054  0  0  -0.470825  0  1.224807  0  0  -0.487654  0  1.201409  0  -0.644629  0  -0.301475  -0.45904  0  1.240936  0
Cl  Cl122  1  0.89617608  0.89275138  0.08697969  1  0  -0.543896  0  0.947124  0  0  -0.470832  0  1.224864  0  0  -0.487662  0  1.201469  0  -0.644698  0  -0.301485  -0.459046  0  1.240989  0
Cl  Cl123  1  0.39615177  0.10724242  0.91301853  1  0  -0.543894  0  0.947102  0  0  -0.470837  0  1.224866  0  0  -0.487663  0  1.201461  0  -0.644672  0  -0.301493  -0.459056  0  1.241  0
Cl  Cl124  1  0.35568960  0.99122284  0.61847648  1  0  -0.489695  0  1.361201  0  0  -0.427619  0  1.735163  0  0  -0.447073  0  1.707828  0  -0.571504  0  -0.239946  -0.413671  0  1.753603  0
Cl  Cl125  1  0.85570095  0.00877685  0.38152055  1  0  -0.489737  0  1.361181  0  0  -0.427659  0  1.735127  0  0  -0.447115  0  1.707792  0  -0.571556  0  -0.239961  -0.413708  0  1.753565  0
Cl  Cl126  1  0.85569807  0.50878038  0.11847885  1  0  -0.489652  0  1.361126  0  0  -0.427571  0  1.735078  0  0  -0.447023  0  1.70774  0  -0.571587  0  -0.23995  -0.413621  0  1.753519  0
Cl  Cl127  1  0.35569392  0.49122299  0.88152411  1  0  -0.489714  0  1.361145  0  0  -0.427634  0  1.73508  0  0  -0.447089  0  1.707749  0  -0.571515  0  -0.239958  -0.413684  0  1.753519  0
