# generated using pymatgen
data_ZnH18C21(NO)4
_symmetry_space_group_name_H-M   'P 1'
_cell_length_a   21.58223844
_cell_length_b   21.75926701
_cell_length_c   21.67839397
_cell_angle_alpha   60.11694512
_cell_angle_beta   63.33193976
_cell_angle_gamma   90.04846413
_symmetry_Int_Tables_number   1
_chemical_formula_structural   ZnH18C21(NO)4
_chemical_formula_sum   'Zn4 H72 C84 N16 O16'
_cell_volume   7549.67052410
_cell_formula_units_Z   4
loop_
 _symmetry_equiv_pos_site_id
 _symmetry_equiv_pos_as_xyz
  1  'x, y, z'
loop_
 _atom_site_type_symbol
 _atom_site_label
 _atom_site_symmetry_multiplicity
 _atom_site_fract_x
 _atom_site_fract_y
 _atom_site_fract_z
 _atom_site_occupancy
 _atom_site_pbe_bader_charge
 _atom_site_pbe_bader_spin_density
 _atom_site_pbe_cm5_charge
 _atom_site_pbe_ddec_charge
 _atom_site_pbe_ddec_spin_density
 _atom_site_pbe_ddec_sum_bond_order
 _atom_site_pbe_magmom
Zn  Zn0  1  0.54740430  0.04618342  0.90616062  1  1.312097  0  0.677656  0.860931  0  2.309256  0
Zn  Zn1  1  0.45698472  0.95389948  0.09332286  1  1.312831  0  0.68117  0.878312  0  2.249928  0
Zn  Zn2  1  0.96549753  0.45578944  0.08702069  1  1.289818  0  0.668418  0.814664  0  2.430252  0
Zn  Zn3  1  0.03838201  0.54316088  0.91222149  1  1.290285  0  0.670165  0.829154  0  2.380077  0
H  H4  1  0.82122480  0.38233430  0.21931659  1  0.125921  0  0.125728  0.102488  0  0.994502  0
H  H5  1  0.74495303  0.30210776  0.37608659  1  0.129838  0  0.113307  0.121831  0  1.012085  0
H  H6  1  0.59446140  0.20248478  0.60346259  1  0.072463  0  0.113983  0.129493  0  0.993544  0
H  H7  1  0.78743378  0.19451584  0.61636947  1  0.092975  0  0.112312  0.125556  0  1.015543  0
H  H8  1  0.18227983  0.61758780  0.78130762  1  0.130094  0  0.128694  0.11019  0  0.977109  0
H  H9  1  0.25881931  0.69838000  0.62428308  1  0.11623  0  0.114526  0.122627  0  1.008877  0
H  H10  1  0.40704682  0.77995698  0.39560560  1  0.097558  0  0.114382  0.128128  0  0.992267  0
H  H11  1  0.21809243  0.82732104  0.38371107  1  0.085493  0  0.110883  0.122497  0  1.018991  0
H  H12  1  0.73214850  0.30126889  0.90260263  1  0.056077  0  0.097031  0.105205  0  1.015129  0
H  H13  1  0.70105333  0.21060590  0.15349507  1  0.061971  0  0.096355  0.104533  0  1.016561  0
H  H14  1  0.92223413  0.40405526  0.89261692  1  0.099754  0  0.101712  0.107189  0  1.000479  0
H  H15  1  0.84198433  0.32630422  0.88779237  1  0.042506  0  0.093236  0.09641  0  1.022976  0
H  H16  1  0.60931139  0.03811165  0.13681330  1  0.080108  0  0.0992  0.098671  0  1.00977  0
H  H17  1  0.69080240  0.11665809  0.13910114  1  0.071129  0  0.093513  0.095546  0  1.02282  0
H  H18  1  0.35330343  0.83005028  0.87251217  1  0.04103  0  0.097681  0.105358  0  1.019847  0
H  H19  1  0.13091232  0.70895957  0.10777909  1  0.032392  0  0.096234  0.102651  0  1.024451  0
H  H20  1  0.22725193  0.65411099  0.89192685  1  0.075173  0  0.101104  0.104392  0  0.999115  0
H  H21  1  0.31222062  0.72644858  0.89652924  1  0.049204  0  0.09192  0.093946  0  1.027737  0
H  H22  1  0.29071905  0.80581102  0.13431000  1  0.075233  0  0.099526  0.102139  0  1.009405  0
H  H23  1  0.21025773  0.72200812  0.13701030  1  0.052438  0  0.093393  0.096104  0  1.024098  0
H  H24  1  0.38665907  0.33283285  0.86883621  1  0.024222  0  0.097335  0.105804  0  1.016413  0
H  H25  1  0.16943700  0.21561321  0.10404704  1  0.060156  0  0.096401  0.103683  0  1.020092  0
H  H26  1  0.21743240  0.44990079  0.84835640  1  0.083903  0  0.10101  0.104713  0  1.00267  0
H  H27  1  0.30162892  0.37258704  0.83855342  1  0.045646  0  0.091688  0.093067  0  1.023147  0
H  H28  1  0.29151654  0.06111577  0.07276883  1  0.073407  0  0.101938  0.105638  0  1.007612  0
H  H29  1  0.20573167  0.13697379  0.06960400  1  0.024061  0  0.093198  0.095472  0  1.023682  0
H  H30  1  0.73206091  0.78761748  0.88624842  1  0.034337  0  0.096804  0.104975  0  1.014928  0
H  H31  1  0.69591469  0.63444248  0.13420836  1  0.043042  0  0.097017  0.105856  0  1.013345  0
H  H32  1  0.92799576  0.70319899  0.88149133  1  0.093347  0  0.100108  0.104348  0  1.007547  0
H  H33  1  0.85013338  0.78840267  0.87272569  1  0.046476  0  0.091844  0.095257  0  1.022687  0
H  H34  1  0.61843654  0.83865104  0.10475379  1  0.075825  0  0.100941  0.102142  0  1.017691  0
H  H35  1  0.69710576  0.75485329  0.11373056  1  0.043083  0  0.093977  0.097686  0  1.019103  0
H  H36  1  0.06007121  0.36500030  0.20676837  1  0.079707  0  0.101767  0.147426  0  0.995046  0
H  H37  1  0.05329108  0.45429431  0.14631602  1  0.089963  0  0.104191  0.162922  0  1.02185  0
H  H38  1  0.05114956  0.42617877  0.23988648  1  0.037394  0  0.100753  0.143627  0  0.986595  0
H  H39  1  0.97834456  0.35932310  0.38604950  1  0.044036  0  0.103602  0.141234  0  0.9774  0
H  H40  1  0.91945065  0.26730562  0.45750068  1  0.07151  0  0.094584  0.125352  0  1.029394  0
H  H41  1  0.00091685  0.29178529  0.36415210  1  0.03339  0  0.102491  0.142384  0  0.980128  0
H  H42  1  0.47279353  0.05902888  0.81408164  1  0.09279  0  0.102041  0.160311  0  1.033088  0
H  H43  1  0.47743572  0.14347460  0.80578770  1  0.088035  0  0.103962  0.16218  0  1.008493  0
H  H44  1  0.48152779  0.13926065  0.72370470  1  0.006811  0  0.095879  0.139976  0  0.988009  0
H  H45  1  0.70070934  0.12456493  0.82901594  1  0.11829  0  0.103208  0.167555  0  1.015363  0
H  H46  1  0.70697771  0.04812586  0.82083343  1  0.084298  0  0.103262  0.161559  0  1.007201  0
H  H47  1  0.77946271  0.13256305  0.74364589  1  0.040572  0  0.096211  0.140217  0  0.988221  0
H  H48  1  0.95193208  0.57511190  0.76295140  1  0.045144  0  0.098688  0.138099  0  0.990498  0
H  H49  1  0.94842502  0.55444438  0.85514121  1  0.128958  0  0.104133  0.164633  0  1.029455  0
H  H50  1  0.94503950  0.64280872  0.78638729  1  0.03665  0  0.10328  0.147203  0  0.978419  0
H  H51  1  0.00529709  0.71462011  0.63281824  1  0.062538  0  0.100221  0.137341  0  0.985427  0
H  H52  1  0.08519354  0.73246467  0.54181188  1  0.065657  0  0.093706  0.124111  0  1.032264  0
H  H53  1  0.02230889  0.64248364  0.61767709  1  0.03977  0  0.100756  0.136629  0  0.981903  0
H  H54  1  0.51944074  0.83020147  0.27359903  1  0.032338  0  0.094357  0.136733  0  0.993028  0
H  H55  1  0.51862823  0.84823225  0.18369354  1  0.11495  0  0.1038  0.163678  0  1.026032  0
H  H56  1  0.53261410  0.92215930  0.19250739  1  0.1108  0  0.103372  0.16201  0  1.012044  0
H  H57  1  0.22805022  0.90502897  0.25555867  1  0.065348  0  0.094251  0.136781  0  0.993092  0
H  H58  1  0.31169502  0.97760718  0.17690325  1  0.120074  0  0.104011  0.162493  0  1.009992  0
H  H59  1  0.29660514  0.90127280  0.17206113  1  0.1094  0  0.104455  0.164036  0  1.008523  0
H  H60  1  0.61858128  0.19685976  0.88466215  1  0.473905  0  0.295533  0.300293  0  0.984787  0
H  H61  1  0.66028138  0.28353102  0.85132049  1  0.424671  0  0.302185  0.294625  0  0.950371  0
H  H62  1  0.81988729  0.30279552  0.17600330  1  0.492503  0  0.286161  0.29163  0  1.030566  0
H  H63  1  0.74162615  0.23270993  0.22694379  1  0.420929  0  0.29953  0.291967  0  0.955283  0
H  H64  1  0.48387530  0.94743065  0.85752971  1  0.478155  0  0.29683  0.302023  0  0.991915  0
H  H65  1  0.46812332  0.90869403  0.81077157  1  0.419825  0  0.304666  0.295612  0  0.948286  0
H  H66  1  0.99952061  0.59302258  0.12117818  1  0.49519  0  0.298596  0.313574  0  0.981369  0
H  H67  1  0.01323812  0.64706224  0.15490775  1  0.428677  0  0.305921  0.29822  0  0.950395  0
H  H68  1  0.51637454  0.23027778  0.84435075  1  0.472731  0  0.29124  0.298828  0  1.001921  0
H  H69  1  0.50123758  0.31633294  0.80421892  1  0.433638  0  0.302179  0.294826  0  0.952528  0
H  H70  1  0.03793241  0.31625423  0.13049755  1  0.494949  0  0.294512  0.305597  0  0.992955  0
H  H71  1  0.05486024  0.23103039  0.17426437  1  0.402871  0  0.302779  0.293797  0  0.951963  0
H  H72  1  0.63254447  0.92216966  0.85211751  1  0.482144  0  0.29219  0.301688  0  1.003362  0
H  H73  1  0.68462829  0.87476005  0.81366556  1  0.417442  0  0.302882  0.295283  0  0.953304  0
H  H74  1  0.79790336  0.50102194  0.15827029  1  0.500419  0  0.288166  0.299976  0  1.0191  0
H  H75  1  0.71562800  0.51820963  0.20476561  1  0.42497  0  0.303792  0.298005  0  0.949503  0
C  C76  1  0.41128288  0.91384564  0.00742849  1  1.529922  0  0.214809  0.608887  0  4.150199  0
C  C77  1  0.43393980  0.10264916  0.97694898  1  1.569289  0  0.213972  0.608739  0  4.150146  0
C  C78  1  0.58052707  0.07226131  0.01841379  1  1.548257  0  0.217734  0.613469  0  4.153516  0
C  C79  1  0.58584470  0.91330941  0.98847759  1  1.517573  0  0.21335  0.609003  0  4.145179  0
C  C80  1  0.09901903  0.42710973  0.98008785  1  1.559807  0  0.211732  0.605045  0  4.148842  0
C  C81  1  0.08580777  0.59254834  0.99288313  1  1.524379  0  0.211572  0.600923  0  4.159947  0
C  C82  1  0.90635579  0.57389287  0.00985878  1  1.525357  0  0.209892  0.601546  0  4.152095  0
C  C83  1  0.91087027  0.39817856  0.02191140  1  1.518676  0  0.212679  0.60954  0  4.14482  0
C  C84  1  0.84524273  0.36686840  0.25785747  1  0.454197  0  0.042083  0.0936  0  3.962933  0
C  C85  1  0.80360548  0.32273526  0.34339205  1  -0.057828  0  -0.083997  -0.198998  0  3.989186  0
C  C86  1  0.83892441  0.30410388  0.38847326  1  0.235629  0  0.101331  0.138701  0  4.017251  0
C  C87  1  0.91483894  0.33003259  0.34633827  1  0.086624  0  0.013604  0.03401  0  3.849627  0
C  C88  1  0.95317587  0.37671873  0.25821696  1  0.509821  0  0.137211  0.275335  0  3.877902  0
C  C89  1  0.62062615  0.18310774  0.63979608  1  -0.074584  0  -0.08194  -0.259885  0  3.900317  0
C  C90  1  0.69596637  0.20306166  0.59919274  1  0.379658  0  0.09688  0.212721  0  4.093446  0
C  C91  1  0.72871774  0.17871865  0.64668263  1  -0.068116  0  -0.08865  -0.268941  0  3.90853  0
C  C92  1  0.68550605  0.13456813  0.73318530  1  0.580739  0  0.128336  0.346469  0  3.935115  0
C  C93  1  0.57918048  0.13861716  0.72676444  1  0.471909  0  0.129631  0.344109  0  3.936159  0
C  C94  1  0.15848769  0.63419288  0.74247693  1  0.44987  0  0.049774  0.101621  0  3.943399  0
C  C95  1  0.20012412  0.67830833  0.65683416  1  0.013819  0  -0.079143  -0.192986  0  3.978485  0
C  C96  1  0.16491130  0.69755727  0.61163465  1  0.390419  0  0.101212  0.13742  0  4.018285  0
C  C97  1  0.08888778  0.67260144  0.65381833  1  -0.073258  0  0.012483  0.031111  0  3.851971  0
C  C98  1  0.05046144  0.62670767  0.74185985  1  0.56643  0  0.136772  0.275073  0  3.874136  0
C  C99  1  0.38180780  0.80769214  0.35950796  1  0.046334  0  -0.079403  -0.25568  0  3.890467  0
C  C100  1  0.30747585  0.79787320  0.40046208  1  0.221082  0  0.09875  0.215351  0  4.08495  0
C  C101  1  0.27596757  0.83383943  0.35319354  1  0.009589  0  -0.087007  -0.266445  0  3.90693  0
C  C102  1  0.31942303  0.87820825  0.26676795  1  0.513801  0  0.131998  0.350401  0  3.933551  0
C  C103  1  0.42330112  0.85278062  0.27259782  1  0.510086  0  0.135655  0.353905  0  3.926392  0
C  C104  1  0.62800428  0.12287046  0.01720074  1  -0.00518  0  -0.034531  -0.159667  0  3.944025  0
C  C105  1  0.85927810  0.35061602  0.02438074  1  -0.004984  0  -0.03621  -0.166767  0  3.932074  0
C  C106  1  0.66330938  0.19822475  0.94942842  1  0.4035  0  0.100493  0.300777  0  4.074514  0
C  C107  1  0.70654125  0.24286158  0.95353232  1  0.002254  0  -0.107798  -0.258543  0  3.941202  0
C  C108  1  0.79636305  0.29419810  0.09988018  1  0.453687  0  0.100487  0.307942  0  4.071754  0
C  C109  1  0.75043542  0.25220902  0.09581862  1  -0.067565  0  -0.111127  -0.266323  0  3.945912  0
C  C110  1  0.87312190  0.36138019  0.94932536  1  -0.065171  0  -0.091386  -0.072019  0  4.047337  0
C  C111  1  0.82799961  0.31868913  0.94659333  1  -0.03475  0  -0.116955  -0.187177  0  4.045415  0
C  C112  1  0.63740869  0.09591255  0.08522266  1  -0.089747  0  -0.091618  -0.073887  0  4.054789  0
C  C113  1  0.68177867  0.14008626  0.08724312  1  -0.067968  0  -0.11614  -0.182698  0  4.042324  0
C  C114  1  0.71707987  0.21500840  0.02057068  1  -0.017035  0  -0.008317  0.094631  0  4.033036  0
C  C115  1  0.76536587  0.26279934  0.02099502  1  -0.025487  0  -0.006917  0.099387  0  4.032473  0
C  C116  1  0.36682334  0.86534729  0.00350642  1  -0.024975  0  -0.037204  -0.169943  0  3.939024  0
C  C117  1  0.13261761  0.63685967  0.99880032  1  -0.006437  0  -0.037038  -0.166916  0  3.93836  0
C  C118  1  0.38616239  0.87067556  0.92863150  1  0.443584  0  0.10389  0.307133  0  4.072849  0
C  C119  1  0.33941888  0.82327515  0.93098772  1  -0.06569  0  -0.110243  -0.26288  0  3.939271  0
C  C120  1  0.10483296  0.65044835  0.06276906  1  0.417907  0  0.103252  0.307495  0  4.081397  0
C  C121  1  0.15313484  0.69577325  0.06107666  1  -0.026746  0  -0.111752  -0.266201  0  3.945477  0
C  C122  1  0.20718562  0.66618737  0.93946775  1  -0.027517  0  -0.091861  -0.072308  0  4.052655  0
C  C123  1  0.25430830  0.70766395  0.94124240  1  -0.007572  0  -0.116853  -0.184795  0  4.045088  0
C  C124  1  0.30330568  0.81086206  0.07706312  1  0.026622  0  -0.089935  -0.070468  0  4.049075  0
C  C125  1  0.25822654  0.76437202  0.07836419  1  -0.088731  0  -0.116491  -0.183973  0  4.038193  0
C  C126  1  0.27553880  0.77077635  0.00393379  1  0.011936  0  -0.005048  0.101074  0  4.021598  0
C  C127  1  0.22721514  0.72408998  0.00225638  1  -0.043176  0  -0.007953  0.095865  0  4.029852  0
C  C128  1  0.38656394  0.15236447  0.97196011  1  0.033185  0  -0.03672  -0.165395  0  3.943421  0
C  C129  1  0.14691448  0.37808481  0.98017419  1  -0.008049  0  -0.036631  -0.16607  0  3.93175  0
C  C130  1  0.41393981  0.23003440  0.91101722  1  0.385673  0  0.099597  0.300394  0  4.083276  0
C  C131  1  0.36496766  0.27274852  0.91260900  1  0.040627  0  -0.110556  -0.263819  0  3.942427  0
C  C132  1  0.13222217  0.31018058  0.05381137  1  0.444176  0  0.102205  0.306305  0  4.075988  0
C  C133  1  0.17988751  0.26663597  0.04710133  1  -0.030836  0  -0.110021  -0.263254  0  3.944085  0
C  C134  1  0.20820847  0.39847219  0.90409657  1  -0.096506  0  -0.089356  -0.069122  0  4.041182  0
C  C135  1  0.25516206  0.35544280  0.89878939  1  -0.034676  0  -0.116025  -0.183187  0  4.041296  0
C  C136  1  0.31160899  0.12101575  0.02841916  1  -0.118143  0  -0.091033  -0.0759  0  4.053977  0
C  C137  1  0.26385373  0.16347595  0.02722033  1  -0.002838  0  -0.116095  -0.182803  0  4.045109  0
C  C138  1  0.29055499  0.24103974  0.96975049  1  -0.020561  0  -0.005908  0.099378  0  4.025217  0
C  C139  1  0.24119858  0.28805059  0.97144589  1  -0.030318  0  -0.006756  0.0976  0  4.028024  0
C  C140  1  0.63118915  0.86169301  0.99094551  1  0.065869  0  -0.037088  -0.168492  0  3.937728  0
C  C141  1  0.85700702  0.62131262  0.01109587  1  0.027425  0  -0.039835  -0.17477  0  3.936264  0
C  C142  1  0.66427350  0.84794349  0.92733151  1  0.371841  0  0.100908  0.305769  0  4.087666  0
C  C143  1  0.70799141  0.79972228  0.93383374  1  -0.003933  0  -0.112636  -0.268522  0  3.951641  0
C  C144  1  0.79062608  0.60137401  0.08440467  1  0.413348  0  0.103702  0.313627  0  4.077771  0
C  C145  1  0.74725548  0.65010708  0.07837685  1  -0.016538  0  -0.112448  -0.268187  0  3.945227  0
C  C146  1  0.87637557  0.68872593  0.93618218  1  -0.042874  0  -0.091952  -0.068419  0  4.049621  0
C  C147  1  0.83293986  0.73569617  0.93121474  1  -0.040799  0  -0.120275  -0.193375  0  4.050955  0
C  C148  1  0.64318225  0.82637681  0.05753293  1  -0.081165  0  -0.092332  -0.073902  0  4.050824  0
C  C149  1  0.68654471  0.77925015  0.06296200  1  -0.04122  0  -0.117473  -0.18655  0  4.044021  0
C  C150  1  0.71982406  0.76558204  0.00007033  1  0.034592  0  -0.005257  0.101614  0  4.036497  0
C  C151  1  0.76707373  0.71633367  0.00344575  1  -0.082341  0  -0.006706  0.099383  0  4.036747  0
C  C152  1  0.03376971  0.40759973  0.20995898  1  -0.056536  0  -0.235437  -0.453152  0  3.923826  0
C  C153  1  0.95521098  0.31055359  0.39143434  1  -0.021999  0  -0.232081  -0.400217  0  3.982581  0
C  C154  1  0.49836733  0.11896873  0.76948670  1  -0.012835  0  -0.243539  -0.47291  0  3.921877  0
C  C155  1  0.72053049  0.10885149  0.78408377  1  -0.079278  0  -0.242704  -0.473902  0  3.919196  0
C  C156  1  0.96963525  0.59774422  0.78970754  1  -0.063451  0  -0.234103  -0.452208  0  3.930724  0
C  C157  1  0.04863118  0.69207487  0.60857219  1  -0.068329  0  -0.233544  -0.398494  0  3.989907  0
C  C158  1  0.50300868  0.86338432  0.22883509  1  -0.097377  0  -0.241002  -0.476168  0  3.924863  0
C  C159  1  0.28649716  0.91750404  0.21552918  1  -0.146445  0  -0.241875  -0.476394  0  3.930246  0
N  N160  1  0.91820311  0.39354869  0.21618564  1  -1.214158  0  -0.312101  -0.250319  0  3.457186  0
N  N161  1  0.80124083  0.25812038  0.47644974  1  -0.427961  0  -0.129371  -0.096123  0  3.250523  0
N  N162  1  0.73368461  0.24903284  0.51105338  1  -0.475599  0  -0.136061  -0.125298  0  3.234323  0
N  N163  1  0.61160715  0.11452466  0.77246131  1  -1.207089  0  -0.305111  -0.327558  0  3.304175  0
N  N164  1  0.08542367  0.60857441  0.78398047  1  -1.214373  0  -0.309198  -0.242573  0  3.449032  0
N  N165  1  0.20255656  0.74350043  0.52365185  1  -0.486758  0  -0.1291  -0.095604  0  3.251877  0
N  N166  1  0.26975030  0.75064924  0.48865355  1  -0.455135  0  -0.133562  -0.12434  0  3.226892  0
N  N167  1  0.39217003  0.88719758  0.22711104  1  -1.221418  0  -0.298806  -0.316043  0  3.293556  0
N  N168  1  0.65670225  0.22888225  0.88018209  1  -1.246204  0  -0.604185  -0.629474  0  3.329939  0
N  N169  1  0.77789822  0.28180739  0.17560337  1  -1.252471  0  -0.606717  -0.632664  0  3.348493  0
N  N170  1  0.44795225  0.92128889  0.85378185  1  -1.25436  0  -0.601532  -0.623932  0  3.347723  0
N  N171  1  0.03336031  0.62118158  0.12547909  1  -1.27092  0  -0.601741  -0.628303  0  3.346824  0
N  N172  1  0.48716575  0.26452176  0.85423315  1  -1.260967  0  -0.60714  -0.634004  0  3.334401  0
N  N173  1  0.07423433  0.28639396  0.13132084  1  -1.240399  0  -0.602993  -0.630718  0  3.342038  0
N  N174  1  0.65172269  0.87740056  0.86275057  1  -1.246449  0  -0.60543  -0.630914  0  3.347115  0
N  N175  1  0.76867776  0.53747098  0.16020597  1  -1.275079  0  -0.60373  -0.633668  0  3.349971  0
O  O176  1  0.45998022  0.97258141  0.93869317  1  -1.1993  0  -0.316832  -0.568885  0  2.379218  0
O  O177  1  0.39816367  0.89471570  0.07915100  1  -1.157159  0  -0.318518  -0.551793  0  2.357371  0
O  O178  1  0.41279745  0.04212414  0.04614966  1  -1.183738  0  -0.309212  -0.557627  0  2.335316  0
O  O179  1  0.49395349  0.12374581  0.90912825  1  -1.192157  0  -0.321255  -0.570389  0  2.366304  0
O  O180  1  0.52599132  0.02190288  0.08853929  1  -1.167285  0  -0.317306  -0.54968  0  2.336184  0
O  O181  1  0.59775417  0.08259317  0.94854006  1  -1.176066  0  -0.315688  -0.568302  0  2.392206  0
O  O182  1  0.59545314  0.96324573  0.91674377  1  -1.178357  0  -0.320743  -0.567534  0  2.365135  0
O  O183  1  0.54141430  0.90686019  0.05584993  1  -1.186155  0  -0.309517  -0.557175  0  2.346615  0
O  O184  1  0.05248370  0.41616284  0.05064927  1  -1.185282  0  -0.318546  -0.563882  0  2.368313  0
O  O185  1  0.10626900  0.47697065  0.91090037  1  -1.167079  0  -0.318303  -0.543707  0  2.32214  0
O  O186  1  0.10738651  0.59954497  0.92411172  1  -1.162535  0  -0.315871  -0.545489  0  2.298428  0
O  O187  1  0.02472612  0.54783167  0.06004959  1  -1.176424  0  -0.321466  -0.567285  0  2.388381  0
O  O188  1  0.96414385  0.59728063  0.94046076  1  -1.175276  0  -0.320116  -0.553177  0  2.353885  0
O  O189  1  0.88871685  0.51187813  0.07809666  1  -1.180142  0  -0.319301  -0.557149  0  2.347068  0
O  O190  1  0.90662047  0.37817923  0.09084790  1  -1.168441  0  -0.32424  -0.561079  0  2.351021  0
O  O191  1  0.95676230  0.45643461  0.95186584  1  -1.186749  0  -0.315929  -0.559043  0  2.344676  0
