# generated using pymatgen
data_TbH14C14N3O9F4
_symmetry_space_group_name_H-M   'P 1'
_cell_length_a   11.34889768
_cell_length_b   12.36017408
_cell_length_c   20.23388053
_cell_angle_alpha   91.55130071
_cell_angle_beta   106.28505848
_cell_angle_gamma   117.34106115
_symmetry_Int_Tables_number   1
_chemical_formula_structural   TbH14C14N3O9F4
_chemical_formula_sum   'Tb4 H56 C56 N12 O36 F16'
_cell_volume   2379.29095487
_cell_formula_units_Z   4
loop_
 _symmetry_equiv_pos_site_id
 _symmetry_equiv_pos_as_xyz
  1  'x, y, z'
loop_
 _atom_site_type_symbol
 _atom_site_label
 _atom_site_symmetry_multiplicity
 _atom_site_fract_x
 _atom_site_fract_y
 _atom_site_fract_z
 _atom_site_occupancy
 _atom_site_pbe_bader_charge
 _atom_site_pbe_bader_spin_density
 _atom_site_pbe_cm5_charge
 _atom_site_pbe_ddec_charge
 _atom_site_pbe_ddec_spin_density
 _atom_site_pbe_ddec_sum_bond_order
 _atom_site_pbe_magmom
Tb  Tb0  1  0.75968871  0.89203924  0.69678176  1  2.182355  0  1.519279  2.036994  0  2.176657  0
Tb  Tb1  1  0.67088723  0.60789343  0.80324390  1  2.1842  0  1.519379  2.037038  0  2.177198  0
Tb  Tb2  1  0.24031239  0.10796106  0.30321825  1  2.182345  0  1.51927  2.036991  0  2.176659  0
Tb  Tb3  1  0.32911295  0.39210687  0.19675647  1  2.184194  0  1.519382  2.037041  0  2.177182  0
H  H4  1  0.02320354  0.97620887  0.61625299  1  0.114407  0  0.129094  0.051702  0  0.980224  0
H  H5  1  0.93095219  0.52388383  0.88382799  1  0.111602  0  0.129048  0.051962  0  0.979929  0
H  H6  1  0.97679613  0.02379051  0.38374678  1  0.114416  0  0.129096  0.051729  0  0.980203  0
H  H7  1  0.06904799  0.47611648  0.11617090  1  0.111618  0  0.12904  0.051976  0  0.979911  0
H  H8  1  0.02843346  0.26138853  0.66318517  1  0.086904  0  0.113744  0.13094  0  1.020225  0
H  H9  1  0.60397629  0.23866310  0.83678290  1  0.106572  0  0.114169  0.131801  0  1.019399  0
H  H10  1  0.97156712  0.73861084  0.33681574  1  0.086903  0  0.113735  0.13091  0  1.020216  0
H  H11  1  0.39602389  0.76133720  0.16321698  1  0.106566  0  0.114164  0.131795  0  1.019408  0
H  H12  1  0.04183953  0.30234884  0.58028479  1  0.086341  0  0.109714  0.127248  0  0.967514  0
H  H13  1  0.65928532  0.19763369  0.91967155  1  0.081813  0  0.10944  0.126853  0  0.968706  0
H  H14  1  0.95815882  0.69765146  0.41971628  1  0.086322  0  0.109691  0.127226  0  0.967506  0
H  H15  1  0.34071577  0.80236662  0.08032847  1  0.0818  0  0.109433  0.126851  0  0.968694  0
H  H16  1  0.19758553  0.34755034  0.65248442  1  0.084527  0  0.106497  0.127177  0  0.99983  0
H  H17  1  0.69767970  0.15252641  0.84746946  1  0.071793  0  0.10633  0.127111  0  0.999518  0
H  H18  1  0.80241464  0.65244996  0.34751693  1  0.084518  0  0.106506  0.127208  0  0.999865  0
H  H19  1  0.30232048  0.84747390  0.15252992  1  0.071696  0  0.106322  0.127101  0  0.999538  0
H  H20  1  0.26266689  0.22737371  0.57536027  1  0.084527  0  0.10622  0.125498  0  1.016636  0
H  H21  1  0.95999059  0.27263480  0.92466507  1  0.073438  0  0.106256  0.125239  0  1.016961  0
H  H22  1  0.73733237  0.77262659  0.42463946  1  0.084517  0  0.10623  0.125475  0  1.016607  0
H  H23  1  0.04000959  0.72736551  0.07533431  1  0.073395  0  0.106265  0.125259  0  1.016982  0
H  H24  1  0.10040010  0.17343745  0.50702307  1  0.063743  0  0.103873  0.11912  0  0.99421  0
H  H25  1  0.91993044  0.32651961  0.99298369  1  0.056244  0  0.10379  0.11926  0  0.99407  0
H  H26  1  0.89959824  0.82656286  0.49297701  1  0.06375  0  0.103873  0.119104  0  0.994217  0
H  H27  1  0.08007066  0.67348070  0.00701534  1  0.056237  0  0.103839  0.119392  0  0.994114  0
H  H28  1  0.14549710  0.06503831  0.54795288  1  0.06999  0  0.109909  0.122204  0  0.994877  0
H  H29  1  0.03268344  0.43497162  0.95211914  1  0.04407  0  0.109842  0.121695  0  0.994765  0
H  H30  1  0.85450124  0.93496199  0.45204671  1  0.069988  0  0.109895  0.12218  0  0.994884  0
H  H31  1  0.96731623  0.56502776  0.04788014  1  0.043881  0  0.109833  0.121712  0  0.994742  0
H  H32  1  0.52069560  0.99421836  0.68889095  1  0.132015  0  0.123207  0.047701  0  1.027152  0
H  H33  1  0.33775587  0.50576315  0.81123570  1  0.136961  0  0.123347  0.047459  0  1.028124  0
H  H34  1  0.47930406  0.00578102  0.31110882  1  0.132019  0  0.123202  0.047698  0  1.027159  0
H  H35  1  0.66224431  0.49423715  0.18876466  1  0.136971  0  0.123337  0.047447  0  1.028135  0
H  H36  1  0.40696601  0.09348183  0.68993143  1  0.025887  0  0.103153  0.110721  0  1.004794  0
H  H37  1  0.12362945  0.40652941  0.81006526  1  0.058359  0  0.103042  0.110921  0  1.004986  0
H  H38  1  0.59303315  0.90651663  0.31006776  1  0.025894  0  0.103165  0.11075  0  1.004787  0
H  H39  1  0.87636930  0.59346997  0.18993388  1  0.058361  0  0.103045  0.110905  0  1.005014  0
H  H40  1  0.43432427  0.20299678  0.63170586  1  0.089403  0  0.10345  0.125651  0  1.031853  0
H  H41  1  0.09953801  0.29702768  0.86831045  1  0.094656  0  0.103618  0.125829  0  1.031217  0
H  H42  1  0.56567591  0.79700352  0.36829352  1  0.089413  0  0.103441  0.125636  0  1.031842  0
H  H43  1  0.90046269  0.70297356  0.13168903  1  0.094641  0  0.103628  0.125871  0  1.031108  0
H  H44  1  0.51148098  0.25710483  0.72376888  1  0.107208  0  0.111771  0.135946  0  1.006261  0
H  H45  1  0.03057893  0.24289377  0.77623099  1  0.08533  0  0.111574  0.135754  0  1.006046  0
H  H46  1  0.48851777  0.74289454  0.27623075  1  0.107199  0  0.111773  0.135949  0  1.006285  0
H  H47  1  0.96942125  0.75710653  0.22376888  1  0.085326  0  0.111591  0.135765  0  1.006107  0
H  H48  1  0.80645211  0.27227264  0.67073254  1  0.081855  0  0.109069  0.128614  0  1.007064  0
H  H49  1  0.36337020  0.22768890  0.82933109  1  0.096869  0  0.109156  0.128686  0  1.006604  0
H  H50  1  0.19354664  0.72772674  0.32926709  1  0.081854  0  0.109073  0.128601  0  1.007067  0
H  H51  1  0.63662906  0.77231141  0.17066814  1  0.096871  0  0.109157  0.128692  0  1.006599  0
H  H52  1  0.75589951  0.36558472  0.71351978  1  0.081916  0  0.104831  0.12385  0  1.020047  0
H  H53  1  0.17671315  0.13439933  0.78651880  1  0.092683  0  0.104936  0.124058  0  1.020274  0
H  H54  1  0.24410016  0.63441466  0.28647999  1  0.081913  0  0.104822  0.123827  0  1.020069  0
H  H55  1  0.82328611  0.86560098  0.21348043  1  0.092686  0  0.104929  0.124034  0  1.020316  0
H  H56  1  0.68235717  0.31575603  0.62081515  1  0.112708  0  0.106628  0.130215  0  0.992826  0
H  H57  1  0.24564962  0.18416454  0.87921013  1  0.09355  0  0.106553  0.1306  0  0.992039  0
H  H58  1  0.31764249  0.68424334  0.37918512  1  0.112701  0  0.106633  0.130223  0  0.992827  0
H  H59  1  0.75435056  0.81583576  0.12078925  1  0.093524  0  0.10656  0.130618  0  0.99208  0
C  C60  1  0.47653280  0.74993989  0.75008436  1  1.69171  0  0.244124  0.697492  0  4.121856  0
C  C61  1  0.52346738  0.25006042  0.24991502  1  1.691712  0  0.244115  0.697449  0  4.121881  0
C  C62  1  0.34343634  0.74991797  0.75015044  1  0.037808  0  -0.023136  -0.208432  0  3.996898  0
C  C63  1  0.65656333  0.25008141  0.24984884  1  0.037819  0  -0.023115  -0.208366  0  3.996784  0
C  C64  1  0.34586275  0.85491880  0.77933678  1  0.578854  0  0.090093  0.149824  0  4.098799  0
C  C65  1  0.21159938  0.64497335  0.72090512  1  0.49616  0  0.090646  0.149399  0  4.098699  0
C  C66  1  0.65413784  0.14508057  0.22066314  1  0.57884  0  0.090099  0.149799  0  4.098779  0
C  C67  1  0.78840080  0.35502696  0.27909377  1  0.496167  0  0.090656  0.149435  0  4.0986  0
C  C68  1  0.22309828  0.85530692  0.77878189  1  0.505964  0  0.090735  0.151738  0  4.099067  0
C  C69  1  0.08900143  0.64471034  0.72133235  1  0.534919  0  0.090107  0.152388  0  4.098932  0
C  C70  1  0.77690231  0.14469246  0.22121803  1  0.50597  0  0.090738  0.151726  0  4.099015  0
C  C71  1  0.91099915  0.35528904  0.27866757  1  0.534913  0  0.090119  0.152368  0  4.098886  0
C  C72  1  0.09155582  0.75003962  0.75001357  1  0.106454  0  -0.02247  -0.203754  0  3.99327  0
C  C73  1  0.90844476  0.24995975  0.24998635  1  0.106457  0  -0.022487  -0.203779  0  3.993261  0
C  C74  1  0.95804008  0.75007177  0.74998408  1  1.691605  0  0.236043  0.691472  0  4.142585  0
C  C75  1  0.04195959  0.24992761  0.25001569  1  1.691607  0  0.236096  0.691563  0  4.142504  0
C  C76  1  0.58067824  0.56119452  0.65187623  1  1.634695  0  0.225799  0.66719  0  4.165512  0
C  C77  1  0.86764872  0.93873187  0.84814045  1  1.646134  0  0.226656  0.667823  0  4.163325  0
C  C78  1  0.41932194  0.43880578  0.34812414  1  1.634694  0  0.225798  0.66719  0  4.16555  0
C  C79  1  0.13235054  0.06126843  0.15185977  1  1.64615  0  0.226716  0.667906  0  4.163214  0
C  C80  1  0.53912850  0.53046193  0.57353789  1  0.170336  0  -0.019631  -0.203186  0  4.003487  0
C  C81  1  0.93516255  0.96949340  0.92647027  1  0.074168  0  -0.020609  -0.202663  0  4.001695  0
C  C82  1  0.46087168  0.46953838  0.42646248  1  0.170281  0  -0.019638  -0.203175  0  4.003597  0
C  C83  1  0.06483579  0.03050690  0.07352931  1  0.074204  0  -0.020649  -0.2028  0  4.00186  0
C  C84  1  0.63787442  0.54345376  0.54168930  1  0.556918  0  0.095901  0.16344  0  4.082691  0
C  C85  1  0.05278190  0.95654647  0.95834379  1  0.570914  0  0.096422  0.163738  0  4.083162  0
C  C86  1  0.36212576  0.45654655  0.45831057  1  0.556904  0  0.095868  0.163346  0  4.08276  0
C  C87  1  0.94721736  0.04345383  0.04165643  1  0.570846  0  0.096443  0.163827  0  4.08315  0
C  C88  1  0.40089396  0.48694173  0.53067861  1  0.469998  0  0.09611  0.162795  0  4.081364  0
C  C89  1  0.88325292  0.01300085  0.96928775  1  0.548459  0  0.095821  0.161209  0  4.080308  0
C  C90  1  0.59910530  0.51305857  0.46932111  1  0.469988  0  0.096088  0.162767  0  4.081494  0
C  C91  1  0.11674450  0.98699945  0.03071268  1  0.548931  0  0.095895  0.161366  0  4.08032  0
C  C92  1  0.01989137  0.05911908  0.63515316  1  1.358684  0  0.188146  0.326764  0  4.090818  0
C  C93  1  0.82582002  0.44094512  0.86487761  1  1.373013  0  0.188596  0.326286  0  4.092058  0
C  C94  1  0.98010686  0.94087937  0.36484736  1  1.358676  0  0.188098  0.326649  0  4.090993  0
C  C95  1  0.17418108  0.55905518  0.13512192  1  1.373021  0  0.188599  0.326262  0  4.092045  0
C  C96  1  0.08834348  0.27453728  0.62738840  1  0.246297  0  -0.13117  -0.274943  0  3.88217  0
C  C97  1  0.68652267  0.22549616  0.87257562  1  0.249476  0  -0.131238  -0.275468  0  3.881643  0
C  C98  1  0.91165527  0.72546210  0.37261222  1  0.246319  0  -0.131152  -0.274914  0  3.882158  0
C  C99  1  0.31347842  0.77450414  0.12742440  1  0.249627  0  -0.131229  -0.275469  0  3.881651  0
C  C100  1  0.15176437  0.15563418  0.55692681  1  0.268892  0  -0.131538  -0.288207  0  3.934955  0
C  C101  1  0.93930364  0.34437799  0.94310407  1  0.317461  0  -0.131656  -0.287541  0  3.935851  0
C  C102  1  0.84823489  0.84436613  0.44307341  1  0.268875  0  -0.131507  -0.288089  0  3.934931  0
C  C103  1  0.06069654  0.65562231  0.05689531  1  0.317696  0  -0.131711  -0.287745  0  3.93599  0
C  C104  1  0.61406143  0.07335556  0.68337975  1  1.338576  0  0.182956  0.322775  0  4.087988  0
C  C105  1  0.35742960  0.42661950  0.81672343  1  1.348426  0  0.182784  0.322037  0  4.087953  0
C  C106  1  0.38593915  0.92664382  0.31662017  1  1.338068  0  0.182945  0.32278  0  4.087982  0
C  C107  1  0.64257018  0.57338173  0.18327689  1  1.34845  0  0.182771  0.321978  0  4.087984  0
C  C108  1  0.48217200  0.18276567  0.68142431  1  0.265749  0  -0.131804  -0.283226  0  3.886316  0
C  C109  1  0.11796287  0.31723660  0.81859400  1  0.253234  0  -0.131907  -0.284371  0  3.887411  0
C  C110  1  0.51782767  0.81723371  0.31857547  1  0.265743  0  -0.131814  -0.28324  0  3.886317  0
C  C111  1  0.88203823  0.68276371  0.18140601  1  0.253276  0  -0.131935  -0.284416  0  3.887349  0
C  C112  1  0.72041515  0.28993437  0.67068525  1  0.226669  0  -0.134574  -0.272616  0  3.868111  0
C  C113  1  0.25970873  0.21004201  0.82936093  1  0.218598  0  -0.134601  -0.273651  0  3.865926  0
C  C114  1  0.27958452  0.71006501  0.32931452  1  0.226673  0  -0.134562  -0.27256  0  3.86815  0
C  C115  1  0.74029145  0.78995830  0.17063796  1  0.21862  0  -0.134605  -0.273681  0  3.866019  0
N  N116  1  0.08467243  0.15843078  0.60804731  1  -1.213377  0  -0.275575  0.040739  0  3.702067  0
N  N117  1  0.81834356  0.34162148  0.89196053  1  -1.221352  0  -0.27507  0.041005  0  3.703983  0
N  N118  1  0.91532632  0.84156859  0.39195282  1  -1.213405  0  -0.275576  0.040694  0  3.702243  0
N  N119  1  0.18165662  0.65837882  0.10803934  1  -1.221395  0  -0.275072  0.041035  0  3.703982  0
N  N120  1  0.60663459  0.17744167  0.67926686  1  -1.200815  0  -0.272561  0.048768  0  3.702579  0
N  N121  1  0.24992671  0.32254381  0.82080010  1  -1.214737  0  -0.272799  0.050769  0  3.701556  0
N  N122  1  0.39336600  0.82255770  0.32073356  1  -1.20031  0  -0.272561  0.048731  0  3.702584  0
N  N123  1  0.75007255  0.67745649  0.17920012  1  -1.214766  0  -0.272773  0.05085  0  3.70154  0
N  N124  1  0.61301776  0.81175287  0.54692489  1  0.843957  0  0.081167  0.724721  0  4.436351  0
N  N125  1  0.75422765  0.68824870  0.95309633  1  0.80984  0  0.082404  0.725939  0  4.43309  0
N  N126  1  0.38698334  0.18824744  0.45307512  1  0.843581  0  0.081271  0.724943  0  4.436307  0
N  N127  1  0.24577162  0.31175161  0.04690340  1  0.809836  0  0.082356  0.725945  0  4.433116  0
O  O128  1  0.56193912  0.84165926  0.73106472  1  -1.175288  0  -0.37718  -0.637623  0  2.327535  0
O  O129  1  0.48925644  0.65820799  0.76902224  1  -1.178101  0  -0.376678  -0.637272  0  2.328729  0
O  O130  1  0.43806146  0.15834012  0.26893520  1  -1.17527  0  -0.377179  -0.637601  0  2.327505  0
O  O131  1  0.51074466  0.34179232  0.23097728  1  -1.178112  0  -0.376665  -0.63726  0  2.328769  0
O  O132  1  0.93827229  0.83381527  0.72272617  1  -1.175818  0  -0.37688  -0.645554  0  2.2679  0
O  O133  1  0.88169937  0.66633607  0.77722362  1  -1.174915  0  -0.37746  -0.646532  0  2.269828  0
O  O134  1  0.06172778  0.16618318  0.27727365  1  -1.175834  0  -0.376921  -0.645614  0  2.267906  0
O  O135  1  0.11830030  0.33366331  0.22277566  1  -1.174895  0  -0.377474  -0.646568  0  2.269824  0
O  O136  1  0.64939925  0.67491578  0.68125870  1  -1.200145  0  -0.416588  -0.727448  0  2.477283  0
O  O137  1  0.79322698  0.82500995  0.81876069  1  -1.201106  0  -0.41639  -0.728058  0  2.477231  0
O  O138  1  0.35060093  0.32508452  0.31874167  1  -1.200144  0  -0.416596  -0.727452  0  2.477251  0
O  O139  1  0.20677361  0.17498942  0.18123972  1  -1.201106  0  -0.416468  -0.728107  0  2.477205  0
O  O140  1  0.54849196  0.47470033  0.68629430  1  -1.156923  0  -0.342241  -0.57767  0  2.146144  0
O  O141  1  0.88763718  0.02522850  0.81372425  1  -1.16425  0  -0.34291  -0.578099  0  2.145651  0
O  O142  1  0.45150771  0.52529905  0.31370547  1  -1.156919  0  -0.342226  -0.57766  0  2.146211  0
O  O143  1  0.11236483  0.97477180  0.18627591  1  -1.164252  0  -0.34291  -0.578106  0  2.145579  0
O  O144  1  0.95973646  0.05784087  0.67877184  1  -1.167416  0  -0.366137  -0.54923  0  2.409739  0
O  O145  1  0.72338905  0.44224845  0.82123578  1  -1.180619  0  -0.36658  -0.548991  0  2.410006  0
O  O146  1  0.04026229  0.94215850  0.32122878  1  -1.167372  0  -0.366112  -0.549154  0  2.409761  0
O  O147  1  0.27661154  0.55775092  0.17876464  1  -1.180635  0  -0.366567  -0.548978  0  2.410005  0
O  O148  1  0.71882850  0.06285603  0.68229601  1  -1.169001  0  -0.382379  -0.562123  0  2.361999  0
O  O149  1  0.47379435  0.43710674  0.81783495  1  -1.173183  0  -0.382201  -0.561975  0  2.362279  0
O  O150  1  0.28117260  0.93714427  0.31770500  1  -1.16899  0  -0.382354  -0.562107  0  2.36197  0
O  O151  1  0.52620491  0.56289356  0.18216527  1  -1.173216  0  -0.382199  -0.561954  0  2.362259  0
O  O152  1  0.55065238  0.81861541  0.58926658  1  -0.545787  0  -0.236793  -0.505107  0  1.989378  0
O  O153  1  0.64268874  0.68138887  0.91073942  1  -0.549977  0  -0.237464  -0.505929  0  1.987829  0
O  O154  1  0.44934923  0.18138582  0.41073354  1  -0.545638  0  -0.236806  -0.505155  0  1.989356  0
O  O155  1  0.35731195  0.31861236  0.08926105  1  -0.549975  0  -0.23745  -0.505918  0  1.98775  0
O  O156  1  0.55261127  0.77637826  0.48309717  1  -0.510029  0  -0.152258  -0.387642  0  1.966447  0
O  O157  1  0.79307136  0.72373150  0.01691510  1  -0.476861  0  -0.152619  -0.387988  0  1.966966  0
O  O158  1  0.44739034  0.22362297  0.51690245  1  -0.509816  0  -0.152355  -0.38779  0  1.966517  0
O  O159  1  0.20692842  0.27626973  0.98308473  1  -0.476868  0  -0.152605  -0.388019  0  1.967103  0
O  O160  1  0.74457646  0.84351502  0.57506073  1  -0.600406  0  -0.258281  -0.554216  0  2.017909  0
O  O161  1  0.82584726  0.65636649  0.92499950  1  -0.595872  0  -0.258487  -0.554362  0  2.016867  0
O  O162  1  0.25542321  0.15648436  0.42493905  1  -0.600395  0  -0.25826  -0.55424  0  2.01791  0
O  O163  1  0.17415435  0.34363474  0.07500061  1  -0.595871  0  -0.258477  -0.554355  0  2.01682  0
F  F164  1  0.46977598  0.95963555  0.81068823  1  -0.629622  0  -0.077574  -0.104611  0  1.423508  0
F  F165  1  0.19944004  0.54024309  0.68958124  1  -0.624351  0  -0.077827  -0.104858  0  1.423633  0
F  F166  1  0.53022461  0.04036383  0.18931169  1  -0.62962  0  -0.077585  -0.104609  0  1.423515  0
F  F167  1  0.80056055  0.45975629  0.31041769  1  -0.624323  0  -0.07783  -0.104877  0  1.423609  0
F  F168  1  0.23477102  0.96065274  0.80856627  1  -0.62033  0  -0.078002  -0.100143  0  1.425755  0
F  F169  1  0.96546908  0.53943499  0.69141073  1  -0.624226  0  -0.077716  -0.100048  0  1.425983  0
F  F170  1  0.76522865  0.03934664  0.19143301  1  -0.620348  0  -0.078012  -0.100147  0  1.425725  0
F  F171  1  0.03453150  0.46056439  0.30858919  1  -0.624228  0  -0.077727  -0.100034  0  1.425933  0
F  F172  1  0.77327215  0.58444844  0.58139532  1  -0.620185  0  -0.084358  -0.106076  0  1.378402  0
F  F173  1  0.10750639  0.91550989  0.91868897  1  -0.622517  0  -0.084187  -0.105763  0  1.378802  0
F  F174  1  0.22672895  0.41555186  0.41860470  1  -0.620176  0  -0.084353  -0.106053  0  1.378444  0
F  F175  1  0.89249053  0.08448948  0.08131186  1  -0.622571  0  -0.084209  -0.105806  0  1.378777  0
F  F176  1  0.30210480  0.47502035  0.55951771  1  -0.61991  0  -0.083047  -0.11067  0  1.379171  0
F  F177  1  0.76750438  0.02480676  0.94036589  1  -0.618639  0  -0.082834  -0.110084  0  1.379558  0
F  F178  1  0.69789486  0.52497902  0.44048256  1  -0.619907  0  -0.083044  -0.110687  0  1.379182  0
F  F179  1  0.23249499  0.97519539  0.05963438  1  -0.619233  0  -0.082853  -0.110125  0  1.379528  0
