# generated using pymatgen
data_AlH8C12NClO5
_symmetry_space_group_name_H-M   'P 1'
_cell_length_a   6.63279608
_cell_length_b   11.10528359
_cell_length_c   17.02495837
_cell_angle_alpha   84.35872918
_cell_angle_beta   82.48968245
_cell_angle_gamma   72.80613275
_symmetry_Int_Tables_number   1
_chemical_formula_structural   AlH8C12NClO5
_chemical_formula_sum   'Al2 H16 C24 N2 Cl2 O10'
_cell_volume   1185.36346389
_cell_formula_units_Z   2
loop_
 _symmetry_equiv_pos_site_id
 _symmetry_equiv_pos_as_xyz
  1  'x, y, z'
loop_
 _atom_site_type_symbol
 _atom_site_label
 _atom_site_symmetry_multiplicity
 _atom_site_fract_x
 _atom_site_fract_y
 _atom_site_fract_z
 _atom_site_occupancy
 _atom_site_pbe_bader_charge
 _atom_site_pbe_bader_spin_density
 _atom_site_pbe_cm5_charge
 _atom_site_pbe_ddec_charge
 _atom_site_pbe_ddec_spin_density
 _atom_site_pbe_ddec_sum_bond_order
 _atom_site_pbe_magmom
Al  Al0  1  0.49999007  0.50001489  0.50000550  1  2.499517  0  0.393299  1.649028  0  2.575347  0
Al  Al1  1  0.99999895  0.49999502  0.50000602  1  2.499801  0  0.397993  1.643202  0  2.580694  0
H  H2  1  0.23710795  0.59035496  0.40982945  1  0.635695  0  0.33937  0.416222  0  0.887789  0
H  H3  1  0.76289648  0.40965314  0.59018138  1  0.635581  0  0.339331  0.416099  0  0.88789  0
H  H4  1  0.84918636  0.59219532  0.73538412  1  0.104216  0  0.114205  0.11883  0  0.990185  0
H  H5  1  0.78500515  0.59265192  0.88390251  1  0.116961  0  0.109731  0.114211  0  1.007055  0
H  H6  1  0.43239756  0.36857312  0.89817148  1  0.100875  0  0.113047  0.129857  0  0.98969  0
H  H7  1  0.56756696  0.63137957  0.10183072  1  0.102044  0  0.112999  0.129716  0  0.989898  0
H  H8  1  0.21498177  0.40734848  0.11611197  1  0.117276  0  0.10967  0.114157  0  1.007114  0
H  H9  1  0.15079859  0.40782776  0.26462931  1  0.10454  0  0.114174  0.118821  0  0.989926  0
H  H10  1  0.30094728  0.87965948  0.44341228  1  0.045366  0  0.104167  0.108271  0  1.014761  0
H  H11  1  0.69906364  0.12035688  0.55657900  1  0.045747  0  0.104206  0.108165  0  1.014937  0
H  H12  1  0.07960930  0.06049051  0.38699610  1  0.040031  0  0.088619  0.122538  0  1.000784  0
H  H13  1  0.15751107  0.20214016  0.37245119  1  0.039173  0  0.090998  0.127772  0  1.001731  0
H  H14  1  0.98619455  0.17973220  0.45668539  1  0.093441  0  0.100448  0.151995  0  0.998085  0
H  H15  1  0.01381549  0.82027637  0.54328635  1  0.093182  0  0.100436  0.152036  0  0.997954  0
H  H16  1  0.84253577  0.79787103  0.62752733  1  0.039097  0  0.091043  0.127802  0  1.001616  0
H  H17  1  0.92045805  0.93951908  0.61297497  1  0.039785  0  0.088668  0.122584  0  1.00073  0
C  C18  1  0.63199038  0.72798750  0.50493457  1  1.568767  0  0.265389  0.645364  0  4.093248  0
C  C19  1  0.79932279  0.50485680  0.35594600  1  1.578329  0  0.269994  0.650396  0  4.101114  0
C  C20  1  0.36802790  0.27202012  0.49506382  1  1.568677  0  0.265301  0.645324  0  4.093161  0
C  C21  1  0.20068394  0.49514963  0.64405893  1  1.578232  0  0.270079  0.650651  0  4.100756  0
C  C22  1  0.17712669  0.48577953  0.73278721  1  0.055224  0  -0.009257  -0.093521  0  3.911021  0
C  C23  1  0.97643604  0.54529779  0.77209492  1  -0.036119  0  -0.074786  -0.068305  0  3.980775  0
C  C24  1  0.93968136  0.54522529  0.85399462  1  0.007547  0  -0.081972  -0.143854  0  3.947292  0
C  C25  1  0.10663203  0.48154671  0.89953147  1  0.375971  0  0.091406  0.190463  0  4.040706  0
C  C26  1  0.30609015  0.41935157  0.86198253  1  0.006601  0  -0.08218  -0.210331  0  3.928629  0
C  C27  1  0.34209364  0.42171496  0.77934654  1  0.049024  0  0.025688  0.148072  0  4.003287  0
C  C28  1  0.69388516  0.58061332  0.13802202  1  0.004385  0  -0.082048  -0.210071  0  3.928451  0
C  C29  1  0.89335188  0.51843795  0.10047456  1  0.376453  0  0.091438  0.190398  0  4.04043  0
C  C30  1  0.06030660  0.45477911  0.14601373  1  0.007243  0  -0.081965  -0.143682  0  3.947195  0
C  C31  1  0.02354054  0.45471429  0.22790952  1  -0.035936  0  -0.074688  -0.068282  0  3.980567  0
C  C32  1  0.82284784  0.51421183  0.26721603  1  0.055631  0  -0.009342  -0.093598  0  3.910719  0
C  C33  1  0.65786024  0.57825644  0.22065996  1  0.048553  0  0.025836  0.148167  0  4.002846  0
C  C34  1  0.43297873  0.13156027  0.49436302  1  -0.018112  0  -0.015133  -0.094352  0  3.947692  0
C  C35  1  0.56702996  0.86845436  0.50562376  1  -0.018263  0  -0.014972  -0.094152  0  3.947501  0
C  C36  1  0.31441789  0.06630271  0.46116502  1  -0.052187  0  -0.000957  0.156818  0  3.949705  0
C  C37  1  0.68561486  0.93371235  0.53881050  1  -0.052421  0  -0.001104  0.156746  0  3.949449  0
C  C38  1  0.38624745  0.93457320  0.46840481  1  0.056485  0  -0.08654  -0.163781  0  3.967722  0
C  C39  1  0.61377575  0.06544908  0.53157966  1  0.056162  0  -0.086437  -0.163429  0  3.967377  0
C  C40  1  0.12414230  0.13024816  0.41721622  1  -0.094325  0  -0.238382  -0.40883  0  3.957915  0
C  C41  1  0.87588786  0.86976599  0.58275831  1  -0.09319  0  -0.238519  -0.409067  0  3.957745  0
N  N42  1  0.09114131  0.47266176  0.98337460  1  -0.515218  0  -0.14521  -0.130658  0  3.261308  0
N  N43  1  0.90885148  0.52731719  0.01663303  1  -0.478493  0  -0.145251  -0.130787  0  3.261248  0
Cl  Cl44  1  0.59256304  0.33686991  0.73979479  1  -0.200923  0  0.009881  -0.063231  0  1.494593  0
Cl  Cl45  1  0.40736278  0.66304985  0.26020345  1  -0.200674  0  0.009857  -0.06323  0  1.494825  0
O  O46  1  0.48515969  0.67442988  0.50886008  1  -1.26037  0  -0.237592  -0.591518  0  2.341314  0
O  O47  1  0.96591216  0.49196613  0.38935987  1  -1.255086  0  -0.230713  -0.58358  0  2.339232  0
O  O48  1  0.16928353  0.32773518  0.50253090  1  -1.265207  0  -0.235589  -0.594787  0  2.36955  0
O  O49  1  0.38275080  0.49116980  0.60865492  1  -1.253536  0  -0.230698  -0.590119  0  2.402577  0
O  O50  1  0.51483995  0.32559423  0.49115137  1  -1.260564  0  -0.237588  -0.591559  0  2.341235  0
O  O51  1  0.03411078  0.50802261  0.61063865  1  -1.254789  0  -0.230737  -0.583655  0  2.339543  0
O  O52  1  0.83072856  0.67226020  0.49746667  1  -1.265465  0  -0.235615  -0.594776  0  2.369597  0
O  O53  1  0.61727603  0.50884855  0.39136011  1  -1.253484  0  -0.230774  -0.59006  0  2.403095  0
O  O54  1  0.23404850  0.55649524  0.46457674  1  -1.440674  0  -0.449597  -0.99034  0  2.221518  0
O  O55  1  0.76596779  0.44350724  0.53543318  1  -1.440577  0  -0.449627  -0.990151  0  2.221554  0
