# generated using pymatgen
data_UH17C11NO7
_symmetry_space_group_name_H-M   'P 1'
_cell_length_a   10.47445289
_cell_length_b   11.57410257
_cell_length_c   12.25530000
_cell_angle_alpha   90.00000000
_cell_angle_beta   105.62058840
_cell_angle_gamma   90.00000000
_symmetry_Int_Tables_number   1
_chemical_formula_structural   UH17C11NO7
_chemical_formula_sum   'U4 H68 C44 N4 O28'
_cell_volume   1430.86484847
_cell_formula_units_Z   4
loop_
 _symmetry_equiv_pos_site_id
 _symmetry_equiv_pos_as_xyz
  1  'x, y, z'
loop_
 _atom_site_type_symbol
 _atom_site_label
 _atom_site_symmetry_multiplicity
 _atom_site_fract_x
 _atom_site_fract_y
 _atom_site_fract_z
 _atom_site_occupancy
 _atom_site_hle17_bader_spin_density
 _atom_site_hle17_ddec_charge
 _atom_site_hle17_ddec_spin_density
 _atom_site_hle17_ddec_sum_bond_order
 _atom_site_hle17_magmom
 _atom_site_hse06_10hf_bader_spin_density
 _atom_site_hse06_10hf_ddec_charge
 _atom_site_hse06_10hf_ddec_spin_density
 _atom_site_hse06_10hf_ddec_sum_bond_order
 _atom_site_hse06_10hf_magmom
 _atom_site_hse06_bader_spin_density
 _atom_site_hse06_ddec_charge
 _atom_site_hse06_ddec_spin_density
 _atom_site_hse06_ddec_sum_bond_order
 _atom_site_hse06_magmom
 _atom_site_pbe_bader_charge
 _atom_site_pbe_bader_spin_density
 _atom_site_pbe_cm5_charge
 _atom_site_pbe_ddec_charge
 _atom_site_pbe_ddec_spin_density
 _atom_site_pbe_ddec_sum_bond_order
 _atom_site_pbe_magmom
U  U0  1  0.40339078  0.51572724  0.27444849  1  0  2.448318  0  4.197301  0  0  2.514611  0  4.853693  0  0  2.624958  0  4.817142  0  2.906476  0  2.18127  2.436071  0  4.880979  0
U  U1  1  0.09660981  0.01573427  0.22555218  1  0  2.448501  0  4.197034  0  0  2.514598  0  4.85354  0  0  2.62495  0  4.816991  0  2.906424  0  2.181249  2.436003  0  4.88092  0
U  U2  1  0.59661139  0.48427254  0.72555307  1  0  2.448343  0  4.197251  0  0  2.514532  0  4.853753  0  0  2.624949  0  4.817108  0  2.906521  0  2.181268  2.435988  0  4.881056  0
U  U3  1  0.90339037  0.98426551  0.77444648  1  0  2.448339  0  4.197302  0  0  2.514538  0  4.853844  0  0  2.62496  0  4.817181  0  2.906428  0  2.181248  2.435954  0  4.881201  0
H  H4  1  0.57461506  0.65233827  0.96738895  1  0  0.091844  0  0.929574  0  0  0.101354  0  0.989383  0  0  0.103213  0  0.988905  0  0.06212  0  0.111866  0.100144  0  0.989817  0
H  H5  1  0.92538473  0.15233838  0.53261178  1  0  0.091827  0  0.92959  0  0  0.101341  0  0.989395  0  0  0.103199  0  0.988916  0  0.062107  0  0.111853  0.100131  0  0.989828  0
H  H6  1  0.42538513  0.34766151  0.03261052  1  0  0.09182  0  0.92958  0  0  0.101351  0  0.989387  0  0  0.10321  0  0.988909  0  0.062137  0  0.111862  0.100141  0  0.989821  0
H  H7  1  0.07461447  0.84766226  0.46738747  1  0  0.091833  0  0.929586  0  0  0.101346  0  0.989391  0  0  0.103206  0  0.988912  0  0.062112  0  0.111856  0.100137  0  0.989824  0
H  H8  1  0.41644841  0.74804849  0.81987438  1  0  0.072026  0  0.938482  0  0  0.090918  0  0.999172  0  0  0.091599  0  0.999602  0  0.046603  0  0.093159  0.090491  0  0.998894  0
H  H9  1  0.08355119  0.24804861  0.68012687  1  0  0.072044  0  0.938445  0  0  0.090964  0  0.999103  0  0  0.091647  0  0.999535  0  0.046583  0  0.093165  0.090536  0  0.998827  0
H  H10  1  0.58355178  0.25195042  0.18012591  1  0  0.072064  0  0.93849  0  0  0.090955  0  0.999164  0  0  0.091638  0  0.999596  0  0.046587  0  0.093177  0.090529  0  0.998886  0
H  H11  1  0.91644801  0.75195117  0.31987400  1  0  0.072044  0  0.93847  0  0  0.090952  0  0.999137  0  0  0.091635  0  0.999568  0  0.046598  0  0.093164  0.090524  0  0.99886  0
H  H12  1  0.33945181  0.62167498  0.84987918  1  0  0.077602  0  0.945581  0  0  0.094533  0  1.009258  0  0  0.095719  0  1.009301  0  0.046982  0  0.09751  0.093634  0  1.009313  0
H  H13  1  0.16054680  0.12167423  0.65012103  1  0  0.077593  0  0.945598  0  0  0.094527  0  1.009274  0  0  0.095715  0  1.009317  0  0.046971  0  0.097503  0.093629  0  1.009329  0
H  H14  1  0.66054739  0.37832480  0.15012088  1  0  0.077626  0  0.945583  0  0  0.094555  0  1.009244  0  0  0.095742  0  1.009287  0  0.04699  0  0.097516  0.093655  0  1.009301  0
H  H15  1  0.83945240  0.87832469  0.34987903  1  0  0.077629  0  0.945564  0  0  0.09454  0  1.009264  0  0  0.095726  0  1.009307  0  0.046973  0  0.097509  0.093641  0  1.009319  0
H  H16  1  0.18782190  0.79521500  0.81933656  1  0  0.078318  0  0.955937  0  0  0.09251  0  1.02351  0  0  0.0943  0  1.022818  0  0.04036  0  0.095479  0.09123  0  1.023981  0
H  H17  1  0.31217670  0.29521425  0.68066365  1  0  0.078314  0  0.95592  0  0  0.092499  0  1.023509  0  0  0.094292  0  1.022808  0  0.040373  0  0.095469  0.091221  0  1.023977  0
H  H18  1  0.81217729  0.20478478  0.18066268  1  0  0.078307  0  0.955936  0  0  0.092494  0  1.023529  0  0  0.094289  0  1.022826  0  0.040369  0  0.095471  0.091217  0  1.023998  0
H  H19  1  0.68782249  0.70478553  0.31933641  1  0  0.078311  0  0.95593  0  0  0.092509  0  1.023505  0  0  0.0943  0  1.022811  0  0.040368  0  0.095472  0.091229  0  1.023975  0
H  H20  1  0.20938603  0.73261922  0.95507699  1  0  0.073871  0  0.952744  0  0  0.091854  0  1.014326  0  0  0.092911  0  1.014527  0  0.03208  0  0.092304  0.091029  0  1.014287  0
H  H21  1  0.29061357  0.23261847  0.54492263  1  0  0.073904  0  0.952708  0  0  0.091885  0  1.014292  0  0  0.092941  0  1.014493  0  0.032041  0  0.092323  0.091062  0  1.014251  0
H  H22  1  0.79061416  0.26738315  0.04492329  1  0  0.073914  0  0.952681  0  0  0.091898  0  1.014266  0  0  0.092955  0  1.014466  0  0.032473  0  0.092343  0.091075  0  1.014229  0
H  H23  1  0.70938563  0.76738304  0.45507662  1  0  0.073922  0  0.952702  0  0  0.091907  0  1.014288  0  0  0.092962  0  1.01449  0  0.032473  0  0.092349  0.091083  0  1.014249  0
H  H24  1  0.34446391  0.94928051  0.89697604  1  0  0.074126  0  0.926904  0  0  0.087188  0  0.984691  0  0  0.088714  0  0.98504  0  0.036887  0  0.103018  0.086073  0  0.98454  0
H  H25  1  0.15553371  0.44927889  0.60302394  1  0  0.074113  0  0.9269  0  0  0.087186  0  0.984674  0  0  0.088712  0  0.985023  0  0.036893  0  0.103014  0.086072  0  0.984523  0
H  H26  1  0.65553628  0.05072100  0.10302180  1  0  0.074097  0  0.927002  0  0  0.087197  0  0.984749  0  0  0.088724  0  0.9851  0  0.036718  0  0.10302  0.086081  0  0.984598  0
H  H27  1  0.84446350  0.55072088  0.39697730  1  0  0.074096  0  0.926977  0  0  0.087202  0  0.984717  0  0  0.088728  0  0.985067  0  0.036709  0  0.103027  0.086088  0  0.984564  0
H  H28  1  0.45559057  0.96405055  0.10467092  1  0  0.063923  0  0.950568  0  0  0.079764  0  1.017834  0  0  0.080634  0  1.017857  0  0.035195  0  0.089543  0.07909  0  1.017931  0
H  H29  1  0.04440804  0.46404980  0.39532765  1  0  0.063932  0  0.950538  0  0  0.079765  0  1.017821  0  0  0.080634  0  1.017846  0  0.035201  0  0.089562  0.079091  0  1.017914  0
H  H30  1  0.54440962  0.03595095  0.89532773  1  0  0.063971  0  0.950577  0  0  0.079814  0  1.017816  0  0  0.080683  0  1.017842  0  0.03521  0  0.089575  0.07914  0  1.017916  0
H  H31  1  0.95559215  0.53594998  0.60467100  1  0  0.063917  0  0.950588  0  0  0.079773  0  1.017835  0  0  0.080642  0  1.017859  0  0.035204  0  0.089548  0.0791  0  1.017932  0
H  H32  1  0.38210918  0.83400851  0.12971496  1  0  0.086324  0  0.926363  0  0  0.103992  0  0.985653  0  0  0.105314  0  0.984994  0  0.045974  0  0.103256  0.103047  0  0.986215  0
H  H33  1  0.11789042  0.33400775  0.37028467  1  0  0.086309  0  0.926352  0  0  0.103976  0  0.985659  0  0  0.105303  0  0.984987  0  0.045963  0  0.103249  0.103029  0  0.986222  0
H  H34  1  0.61789002  0.16599127  0.87028266  1  0  0.086349  0  0.926378  0  0  0.104012  0  0.985659  0  0  0.105336  0  0.984994  0  0.04594  0  0.103273  0.103069  0  0.986219  0
H  H35  1  0.88211076  0.66599202  0.62971667  1  0  0.086366  0  0.926355  0  0  0.104009  0  0.985673  0  0  0.105334  0  0.985004  0  0.04595  0  0.103285  0.103066  0  0.986233  0
H  H36  1  0.61593514  0.80121892  0.12269561  1  0  0.073965  0  0.93797  0  0  0.09258  0  0.997629  0  0  0.09398  0  0.997511  0  0.052678  0  0.0943  0.091573  0  0.997704  0
H  H37  1  0.88406365  0.30121731  0.37730326  1  0  0.073963  0  0.937955  0  0  0.092594  0  0.997605  0  0  0.093997  0  0.997483  0  0.05266  0  0.094297  0.091588  0  0.997679  0
H  H38  1  0.38406406  0.19878172  0.87730282  1  0  0.073949  0  0.938014  0  0  0.09259  0  0.997652  0  0  0.093993  0  0.997528  0  0.052659  0  0.094307  0.091584  0  0.997731  0
H  H39  1  0.11593554  0.69878247  0.62269517  1  0  0.073939  0  0.937977  0  0  0.092543  0  0.997656  0  0  0.093943  0  0.997539  0  0.052675  0  0.094293  0.091536  0  0.99773  0
H  H40  1  0.57917115  0.85920182  0.98405521  1  0  0.07143  0  0.930554  0  0  0.092104  0  0.987463  0  0  0.092697  0  0.988327  0  0.01421  0  0.09399  0.091616  0  0.986997  0
H  H41  1  0.92082665  0.35920280  0.51594424  1  0  0.071386  0  0.930593  0  0  0.092082  0  0.987481  0  0  0.092676  0  0.988347  0  0.01421  0  0.093982  0.091596  0  0.987015  0
H  H42  1  0.42083003  0.14079623  0.01594449  1  0  0.071333  0  0.930528  0  0  0.092045  0  0.98742  0  0  0.092638  0  0.988284  0  0.014243  0  0.09397  0.09156  0  0.986955  0
H  H43  1  0.07917155  0.64079785  0.48405477  1  0  0.071417  0  0.930579  0  0  0.092115  0  0.98746  0  0  0.092709  0  0.988325  0  0.014213  0  0.093997  0.091628  0  0.986994  0
H  H44  1  0.14131128  0.69489275  0.13735087  1  0  0.063028  0  0.919475  0  0  0.069674  0  0.989264  0  0  0.071182  0  0.983826  0  0.139685  0  0.144453  0.06855  0  0.993081  0
H  H45  1  0.35868931  0.19489286  0.36265061  1  0  0.063043  0  0.919426  0  0  0.069693  0  0.989206  0  0  0.071199  0  0.983773  0  0.139675  0  0.144447  0.068569  0  0.993023  0
H  H46  1  0.85868891  0.30510702  0.86264860  1  0  0.063042  0  0.919467  0  0  0.069685  0  0.989258  0  0  0.071193  0  0.983821  0  0.139703  0  0.14446  0.068559  0  0.993077  0
H  H47  1  0.64130989  0.80510691  0.63734864  1  0  0.063025  0  0.919428  0  0  0.069675  0  0.989221  0  0  0.071182  0  0.983785  0  0.139676  0  0.144452  0.068552  0  0.993037  0
H  H48  1  0.95565460  0.77465358  0.04815963  1  0  0.116167  0  0.952026  0  0  0.131444  0  1.022039  0  0  0.132855  0  1.020919  0  0.106857  0  0.120187  0.130295  0  1.023052  0
H  H49  1  0.54434518  0.27465369  0.45184028  1  0  0.116097  0  0.952034  0  0  0.131402  0  1.022033  0  0  0.132814  0  1.020913  0  0.106856  0  0.120166  0.130253  0  1.023045  0
H  H50  1  0.04434559  0.22534706  0.95183985  1  0  0.116141  0  0.952079  0  0  0.131426  0  1.022091  0  0  0.132838  0  1.02097  0  0.106861  0  0.120177  0.130277  0  1.023103  0
H  H51  1  0.45565401  0.72534695  0.54815896  1  0  0.116166  0  0.952065  0  0  0.131449  0  1.022072  0  0  0.13286  0  1.020953  0  0.10686  0  0.120182  0.1303  0  1.023084  0
H  H52  1  0.81977673  0.73683553  0.10282400  1  0  0.105292  0  0.932546  0  0  0.126638  0  0.993708  0  0  0.127144  0  0.993997  0  0.060855  0  0.1102  0.126145  0  0.99358  0
H  H53  1  0.68022405  0.23683478  0.39717532  1  0  0.105275  0  0.932585  0  0  0.126657  0  0.993712  0  0  0.127165  0  0.994  0  0.060829  0  0.110212  0.126164  0  0.993584  0
H  H54  1  0.18022445  0.26316425  0.89717489  1  0  0.105255  0  0.932569  0  0  0.126603  0  0.993742  0  0  0.127111  0  0.994031  0  0.060837  0  0.110193  0.12611  0  0.993614  0
H  H55  1  0.31977515  0.76316414  0.60282392  1  0  0.105265  0  0.932591  0  0  0.126642  0  0.993712  0  0  0.12715  0  0.994  0  0.060736  0  0.110205  0.126149  0  0.993585  0
H  H56  1  0.83325369  0.67580013  0.97196230  1  0  0.120981  0  0.919409  0  0  0.142479  0  0.975553  0  0  0.143364  0  0.974675  0  0.084935  0  0.118291  0.141804  0  0.976338  0
H  H57  1  0.66674610  0.17580110  0.52803761  1  0  0.121019  0  0.919359  0  0  0.142495  0  0.975532  0  0  0.143379  0  0.974658  0  0.084934  0  0.11829  0.14182  0  0.976317  0
H  H58  1  0.16674650  0.32419965  0.02803636  1  0  0.120931  0  0.919402  0  0  0.142428  0  0.975567  0  0  0.143312  0  0.974692  0  0.084827  0  0.118242  0.141752  0  0.976353  0
H  H59  1  0.33325211  0.82419954  0.47196222  1  0  0.12099  0  0.919368  0  0  0.14246  0  0.975543  0  0  0.143345  0  0.974667  0  0.084884  0  0.118263  0.141785  0  0.976327  0
H  H60  1  0.96109991  0.43922282  0.17724239  1  0  0.124269  0  0.93413  0  0  0.145511  0  0.989846  0  0  0.146864  0  0.989392  0  0.095303  0  0.118111  0.144385  0  0.990352  0
H  H61  1  0.53889988  0.93922271  0.32275670  1  0  0.12428  0  0.934149  0  0  0.145493  0  0.989876  0  0  0.146846  0  0.989419  0  0.0953  0  0.118108  0.144365  0  0.990384  0
H  H62  1  0.03890028  0.56077696  0.82275708  1  0  0.12428  0  0.934174  0  0  0.145496  0  0.989898  0  0  0.146848  0  0.989442  0  0.09529  0  0.118105  0.144369  0  0.990407  0
H  H63  1  0.46109932  0.06077707  0.67724254  1  0  0.124286  0  0.934126  0  0  0.145512  0  0.98984  0  0  0.146867  0  0.989383  0  0.0953  0  0.118107  0.144382  0  0.990353  0
H  H64  1  0.82540642  0.47825393  0.05807259  1  0  0.121509  0  0.963626  0  0  0.140922  0  1.026481  0  0  0.142296  0  1.026073  0  0.126862  0  0.111684  0.139802  0  1.026885  0
H  H65  1  0.67459436  0.97825295  0.44192755  1  0  0.121516  0  0.96361  0  0  0.140914  0  1.026458  0  0  0.142289  0  1.026051  0  0.126861  0  0.111687  0.139793  0  1.026864  0
H  H66  1  0.17459377  0.52174758  0.94192851  1  0  0.121531  0  0.963603  0  0  0.140933  0  1.026447  0  0  0.142308  0  1.026037  0  0.126859  0  0.111699  0.139813  0  1.026851  0
H  H67  1  0.32540484  0.02174683  0.55807251  1  0  0.121515  0  0.963616  0  0  0.140917  0  1.026469  0  0  0.14229  0  1.026063  0  0.126869  0  0.111683  0.139797  0  1.026874  0
H  H68  1  0.82933997  0.53132845  0.19468158  1  0  0.108076  0  0.930235  0  0  0.12986  0  0.992407  0  0  0.130578  0  0.991851  0  0.066447  0  0.109448  0.129257  0  0.992781  0
H  H69  1  0.67066081  0.03132856  0.30531855  1  0  0.108125  0  0.930289  0  0  0.129892  0  0.992449  0  0  0.130611  0  0.991892  0  0.066416  0  0.10946  0.129289  0  0.992824  0
H  H70  1  0.17066220  0.46867219  0.80531834  1  0  0.10814  0  0.930141  0  0  0.12988  0  0.992347  0  0  0.130593  0  0.991788  0  0.066421  0  0.109465  0.129279  0  0.992718  0
H  H71  1  0.32933938  0.96867208  0.69468255  1  0  0.108161  0  0.930171  0  0  0.129899  0  0.992381  0  0  0.130613  0  0.991821  0  0.066423  0  0.109489  0.129297  0  0.992752  0
C  C72  1  0.49075557  0.69259452  0.99102946  1  0  -0.121873  0  3.634277  0  0  -0.115712  0  3.860957  0  0  -0.121219  0  3.874163  0  0.012081  0  -0.084446  -0.112105  0  3.851886  0
C  C73  1  0.00924403  0.19259463  0.50897179  1  0  -0.121927  0  3.634295  0  0  -0.115744  0  3.861008  0  0  -0.121247  0  3.874218  0  0.012087  0  -0.08447  -0.112135  0  3.851934  0
C  C74  1  0.50924561  0.30740526  0.00897024  1  0  -0.121865  0  3.634243  0  0  -0.115776  0  3.86103  0  0  -0.121285  0  3.87424  0  0.01217  0  -0.084486  -0.112166  0  3.851959  0
C  C75  1  0.99075516  0.80740601  0.49102827  1  0  -0.121886  0  3.634341  0  0  -0.115721  0  3.861026  0  0  -0.121227  0  3.874234  0  0.012078  0  -0.084479  -0.112114  0  3.851956  0
C  C76  1  0.37539796  0.70694466  0.88404668  1  0  -0.108113  0  3.655352  0  0  -0.153519  0  3.911278  0  0  -0.153559  0  3.924239  0  -0.021192  0  -0.160283  -0.153304  0  3.902259  0
C  C77  1  0.12460263  0.20694477  0.61595480  1  0  -0.108119  0  3.65535  0  0  -0.153544  0  3.911283  0  0  -0.153591  0  3.92425  0  -0.021127  0  -0.160269  -0.153328  0  3.902262  0
C  C78  1  0.62460223  0.29305425  0.11595361  1  0  -0.108192  0  3.655395  0  0  -0.153543  0  3.911267  0  0  -0.153587  0  3.924229  0  -0.021074  0  -0.160272  -0.153327  0  3.90225  0
C  C79  1  0.87539756  0.79305587  0.38404630  1  0  -0.108122  0  3.655349  0  0  -0.153518  0  3.91126  0  0  -0.153562  0  3.924223  0  -0.021136  0  -0.160257  -0.153304  0  3.902242  0
C  C80  1  0.26043887  0.77946259  0.90118113  1  0  -0.124316  0  3.643166  0  0  -0.168371  0  3.89685  0  0  -0.169111  0  3.910323  0  -0.012748  0  -0.161903  -0.167674  0  3.88754  0
C  C81  1  0.23955974  0.27946270  0.59881826  1  0  -0.124335  0  3.64316  0  0  -0.168397  0  3.896861  0  0  -0.169137  0  3.910337  0  -0.012856  0  -0.1619  -0.1677  0  3.88755  0
C  C82  1  0.73956132  0.22053805  0.09881834  1  0  -0.124323  0  3.643116  0  0  -0.168399  0  3.896821  0  0  -0.169136  0  3.910295  0  -0.013275  0  -0.161947  -0.167711  0  3.887521  0
C  C83  1  0.76043846  0.72053880  0.40118157  1  0  -0.1244  0  3.643127  0  0  -0.16848  0  3.896858  0  0  -0.169221  0  3.910333  0  -0.013227  0  -0.161978  -0.167785  0  3.887549  0
C  C84  1  0.30922060  0.89668205  0.95797408  1  0  -0.123971  0  3.638156  0  0  -0.125222  0  3.871237  0  0  -0.132972  0  3.885926  0  0.011504  0  -0.083701  -0.119919  0  3.861394  0
C  C85  1  0.19077801  0.39668216  0.54202613  1  0  -0.123985  0  3.638166  0  0  -0.125228  0  3.871218  0  0  -0.132975  0  3.88591  0  0.011555  0  -0.083722  -0.119921  0  3.861375  0
C  C86  1  0.69077860  0.10331859  0.04202434  1  0  -0.123968  0  3.638309  0  0  -0.125258  0  3.871373  0  0  -0.133017  0  3.886079  0  0.011691  0  -0.083689  -0.119947  0  3.861535  0
C  C87  1  0.80922119  0.60331935  0.45797475  1  0  -0.123963  0  3.638222  0  0  -0.125263  0  3.871298  0  0  -0.133016  0  3.885992  0  0.011713  0  -0.083722  -0.119952  0  3.861457  0
C  C88  1  0.42114527  0.87970449  0.06676324  1  0  -0.120974  0  3.669976  0  0  -0.167158  0  3.930799  0  0  -0.167032  0  3.944377  0  -0.033464  0  -0.164057  -0.16701  0  3.921135  0
C  C89  1  0.07885433  0.37970374  0.43323719  1  0  -0.120946  0  3.669959  0  0  -0.167153  0  3.930821  0  0  -0.167024  0  3.944401  0  -0.033505  0  -0.164066  -0.167023  0  3.921199  0
C  C90  1  0.57885591  0.12029529  0.93323482  1  0  -0.121095  0  3.670184  0  0  -0.167267  0  3.931034  0  0  -0.167141  0  3.944614  0  -0.033517  0  -0.164109  -0.167108  0  3.921354  0
C  C91  1  0.92114487  0.62029604  0.56676368  1  0  -0.120978  0  3.670125  0  0  -0.167162  0  3.930973  0  0  -0.167034  0  3.944553  0  -0.033468  0  -0.164067  -0.167009  0  3.921293  0
C  C92  1  0.53640077  0.81182622  0.04383913  1  0  -0.112003  0  3.649389  0  0  -0.15792  0  3.909289  0  0  -0.15882  0  3.923091  0  -0.03178  0  -0.157456  -0.156977  0  3.899562  0
C  C93  1  0.96359902  0.31182547  0.45615996  1  0  -0.111964  0  3.64941  0  0  -0.157903  0  3.90932  0  0  -0.15881  0  3.92313  0  -0.031729  0  -0.157438  -0.15696  0  3.899584  0
C  C94  1  0.46360041  0.18817269  0.95615812  1  0  -0.111845  0  3.649255  0  0  -0.157796  0  3.90918  0  0  -0.158696  0  3.922983  0  -0.031831  0  -0.157438  -0.156863  0  3.899468  0
C  C95  1  0.03640018  0.68817431  0.54383928  1  0  -0.111967  0  3.649442  0  0  -0.157895  0  3.909361  0  0  -0.158796  0  3.923161  0  -0.031761  0  -0.157449  -0.15695  0  3.899631  0
C  C96  1  0.46088519  0.61588965  0.08083495  1  0  0.659799  0  3.795493  0  0  0.62163  0  4.102311  0  0  0.657122  0  4.095929  0  1.49294  0  0.207657  0.597353  0  4.105525  0
C  C97  1  0.03911440  0.11588717  0.41916712  1  0  0.659983  0  3.79534  0  0  0.621727  0  4.102278  0  0  0.657217  0  4.095897  0  1.493154  0  0.20769  0.597452  0  4.105481  0
C  C98  1  0.53911698  0.38411099  0.91916579  1  0  0.659864  0  3.795436  0  0  0.621679  0  4.102307  0  0  0.657172  0  4.095931  0  1.492816  0  0.207651  0.597403  0  4.105521  0
C  C99  1  0.96088578  0.88411174  0.58083399  1  0  0.659813  0  3.795538  0  0  0.621626  0  4.102374  0  0  0.657117  0  4.095997  0  1.49288  0  0.20765  0.597349  0  4.105583  0
C  C100  1  0.18937530  0.95683185  0.97770243  1  0  0.73854  0  3.749246  0  0  0.709313  0  4.040274  0  0  0.750389  0  4.025247  0  1.549924  0  0.26221  0.680725  0  4.049812  0
C  C101  1  0.31062628  0.45682937  0.52230092  1  0  0.738445  0  3.749408  0  0  0.709234  0  4.040403  0  0  0.750299  0  4.025393  0  1.549942  0  0.262171  0.680632  0  4.049966  0
C  C102  1  0.81062588  0.04316879  0.02229727  1  0  0.738557  0  3.749233  0  0  0.709374  0  4.040212  0  0  0.75045  0  4.025186  0  1.549947  0  0.262226  0.680768  0  4.049782  0
C  C103  1  0.68937390  0.54316954  0.47770264  1  0  0.738526  0  3.749233  0  0  0.70939  0  4.040132  0  0  0.750467  0  4.0251  0  1.549894  0  0.262226  0.680781  0  4.049712  0
C  C104  1  0.09647995  0.61380137  0.15574432  1  0  0.414058  0  3.757023  0  0  0.34562  0  4.047183  0  0  0.377202  0  4.045017  0  1.395325  0  0.200515  0.324506  0  4.047523  0
C  C105  1  0.40352064  0.11379975  0.34425635  1  0  0.414009  0  3.756924  0  0  0.345583  0  4.047088  0  0  0.377162  0  4.044924  0  1.395326  0  0.200487  0.32447  0  4.047424  0
C  C106  1  0.90352024  0.38620100  0.84425516  1  0  0.414057  0  3.757035  0  0  0.345639  0  4.047174  0  0  0.377221  0  4.045011  0  1.39542  0  0.200538  0.324525  0  4.047516  0
C  C107  1  0.59647955  0.88619916  0.65574312  1  0  0.414106  0  3.756869  0  0  0.345652  0  4.047062  0  0  0.377234  0  4.044897  0  1.395344  0  0.200525  0.324537  0  4.047402  0
C  C108  1  0.88913325  0.70455311  0.05681648  1  0  -0.175056  0  3.617169  0  0  -0.27653  0  3.864824  0  0  -0.272738  0  3.874868  0  0.252448  0  -0.119898  -0.27894  0  3.858165  0
C  C109  1  0.61086753  0.20455236  0.44318448  1  0  -0.175017  0  3.617133  0  0  -0.276531  0  3.864797  0  0  -0.272743  0  3.874843  0  0.252489  0  -0.119905  -0.27894  0  3.858138  0
C  C110  1  0.11086694  0.29544666  0.94318299  1  0  -0.174925  0  3.617223  0  0  -0.27641  0  3.864881  0  0  -0.272622  0  3.874931  0  0.252584  0  -0.119842  -0.278819  0  3.85822  0
C  C111  1  0.38913167  0.79544742  0.55681558  1  0  -0.175007  0  3.617158  0  0  -0.276484  0  3.864794  0  0  -0.272694  0  3.874841  0  0.25265  0  -0.119856  -0.278894  0  3.858134  0
C  C112  1  0.89156198  0.50772403  0.13871247  1  0  -0.185845  0  3.609711  0  0  -0.285634  0  3.850949  0  0  -0.282373  0  3.860588  0  0.220947  0  -0.131855  -0.287562  0  3.844537  0
C  C113  1  0.60843880  0.00772328  0.36128685  1  0  -0.185906  0  3.609773  0  0  -0.285611  0  3.85095  0  0  -0.282344  0  3.860579  0  0.220976  0  -0.131859  -0.28754  0  3.844539  0
C  C114  1  0.10843722  0.49227748  0.86128677  1  0  -0.185963  0  3.609702  0  0  -0.285664  0  3.850913  0  0  -0.282389  0  3.86054  0  0.22098  0  -0.131893  -0.287593  0  3.844505  0
C  C115  1  0.39156139  0.99227650  0.63871344  1  0  -0.185922  0  3.609678  0  0  -0.285633  0  3.850897  0  0  -0.282362  0  3.86053  0  0.220957  0  -0.131872  -0.287562  0  3.844488  0
N  N116  1  0.96546071  0.60865972  0.11898264  1  0  -0.059776  0  3.497504  0  0  0.042478  0  3.729668  0  0  0.02181  0  3.755185  0  -1.256964  0  -0.265526  0.056227  0  3.712001  0
N  N117  1  0.53453808  0.10865983  0.38101704  1  0  -0.059755  0  3.497495  0  0  0.042476  0  3.729658  0  0  0.021811  0  3.755173  0  -1.256963  0  -0.265499  0.056225  0  3.71199  0
N  N118  1  0.03453848  0.39134006  0.88101660  1  0  -0.059792  0  3.49753  0  0  0.04244  0  3.729684  0  0  0.021772  0  3.755199  0  -1.257021  0  -0.265509  0.056188  0  3.712018  0
N  N119  1  0.46545913  0.89133995  0.61898256  1  0  -0.059846  0  3.497467  0  0  0.042393  0  3.729633  0  0  0.021725  0  3.755148  0  -1.256992  0  -0.265566  0.056143  0  3.711967  0
O  O120  1  0.39843518  0.36832921  0.22311341  1  0  -0.71728  0  1.553342  0  0  -0.727047  0  1.844866  0  0  -0.747999  0  1.8303  0  -0.878156  0  -0.760868  -0.714293  0  1.855845  0
O  O121  1  0.10156739  0.86832564  0.27688853  1  0  -0.71739  0  1.553193  0  0  -0.72711  0  1.844725  0  0  -0.748064  0  1.830156  0  -0.878121  0  -0.760768  -0.714339  0  1.855713  0
O  O122  1  0.60157195  0.63166971  0.77689092  1  0  -0.717296  0  1.553343  0  0  -0.726995  0  1.844839  0  0  -0.747963  0  1.83026  0  -0.878156  0  -0.760883  -0.714244  0  1.855819  0
O  O123  1  0.89842883  0.13167068  0.72311085  1  0  -0.717292  0  1.553307  0  0  -0.727048  0  1.84484  0  0  -0.748015  0  1.83026  0  -0.878076  0  -0.760792  -0.714282  0  1.855826  0
O  O124  1  0.40699917  0.66238829  0.32658815  1  0  -0.715249  0  1.522849  0  0  -0.720274  0  1.791768  0  0  -0.741448  0  1.78019  0  -0.867776  0  -0.764383  -0.707579  0  1.800772  0
O  O125  1  0.09299844  0.16238840  0.17341591  1  0  -0.715174  0  1.522827  0  0  -0.720136  0  1.791772  0  0  -0.741306  0  1.780193  0  -0.867748  0  -0.764437  -0.70743  0  1.800789  0
O  O126  1  0.59300003  0.33761235  0.67341109  1  0  -0.715252  0  1.522845  0  0  -0.720256  0  1.791776  0  0  -0.741446  0  1.780188  0  -0.86777  0  -0.764371  -0.707564  0  1.800786  0
O  O127  1  0.90700670  0.83761138  0.82658878  1  0  -0.715195  0  1.52293  0  0  -0.720194  0  1.791879  0  0  -0.74138  0  1.780287  0  -0.867817  0  -0.764425  -0.707491  0  1.800891  0
O  O128  1  0.34169218  0.58863657  0.07961723  1  0  -0.652142  0  2.015615  0  0  -0.632655  0  2.279168  0  0  -0.665988  0  2.277068  0  -1.158034  0  -0.350808  -0.608674  0  2.279308  0
O  O129  1  0.15830742  0.08863409  0.42038565  1  0  -0.652279  0  2.015665  0  0  -0.632727  0  2.279225  0  0  -0.666056  0  2.277121  0  -1.158299  0  -0.350842  -0.608749  0  2.279385  0
O  O130  1  0.65831098  0.41136235  0.92038374  1  0  -0.652213  0  2.015615  0  0  -0.632721  0  2.279201  0  0  -0.666064  0  2.277105  0  -1.157893  0  -0.350836  -0.608735  0  2.279329  0
O  O131  1  0.84169178  0.91136224  0.57961685  1  0  -0.652178  0  2.015659  0  0  -0.63267  0  2.279216  0  0  -0.666008  0  2.277112  0  -1.15804  0  -0.350822  -0.608688  0  2.279364  0
O  O132  1  0.55569577  0.58057806  0.16386474  1  0  -0.640016  0  1.944469  0  0  -0.628339  0  2.206951  0  0  -0.660077  0  2.203109  0  -1.163701  0  -0.350842  -0.605569  0  2.208244  0
O  O133  1  0.94430402  0.08057903  0.33613517  1  0  -0.640103  0  1.944434  0  0  -0.628368  0  2.206938  0  0  -0.660114  0  2.203108  0  -1.163602  0  -0.350843  -0.605593  0  2.208231  0
O  O134  1  0.44430740  0.41942258  0.83613623  1  0  -0.640015  0  1.944497  0  0  -0.62831  0  2.206976  0  0  -0.660053  0  2.203126  0  -1.163763  0  -0.35079  -0.605542  0  2.208271  0
O  O135  1  0.05569518  0.91942074  0.66386326  1  0  -0.640018  0  1.944541  0  0  -0.628303  0  2.206992  0  0  -0.660055  0  2.20316  0  -1.163585  0  -0.350819  -0.605529  0  2.208282  0
O  O136  1  0.11318563  0.01326582  0.89613720  1  0  -0.670927  0  2.053541  0  0  -0.661703  0  2.331893  0  0  -0.697998  0  2.323874  0  -1.172426  0  -0.374921  -0.635024  0  2.336061  0
O  O137  1  0.38681199  0.51326571  0.60386523  1  0  -0.670872  0  2.053613  0  0  -0.66165  0  2.331942  0  0  -0.697942  0  2.323933  0  -1.172459  0  -0.374903  -0.63497  0  2.336114  0
O  O138  1  0.88681555  0.98673655  0.10386250  1  0  -0.67095  0  2.053598  0  0  -0.661732  0  2.331922  0  0  -0.698017  0  2.323908  0  -1.172428  0  -0.37494  -0.635046  0  2.336103  0
O  O139  1  0.61318721  0.48673320  0.39613891  1  0  -0.67091  0  2.053544  0  0  -0.661724  0  2.331841  0  0  -0.698007  0  2.323823  0  -1.172427  0  -0.374926  -0.635043  0  2.33602  0
O  O140  1  0.16510091  0.94404814  0.07321998  1  0  -0.670627  0  2.083902  0  0  -0.660997  0  2.368941  0  0  -0.696275  0  2.359327  0  -1.173671  0  -0.369425  -0.635213  0  2.374342  0
O  O141  1  0.33490166  0.44404652  0.42678360  1  0  -0.670513  0  2.083912  0  0  -0.660924  0  2.368974  0  0  -0.696194  0  2.359362  0  -1.173574  0  -0.369386  -0.63514  0  2.374382  0
O  O142  1  0.83490027  0.05595250  0.92678054  1  0  -0.670625  0  2.083897  0  0  -0.661021  0  2.368936  0  0  -0.696308  0  2.359315  0  -1.173677  0  -0.369441  -0.635234  0  2.374346  0
O  O143  1  0.66509456  0.55595671  0.57321496  1  0  -0.670584  0  2.083955  0  0  -0.661008  0  2.368991  0  0  -0.696292  0  2.359366  0  -1.173605  0  -0.369424  -0.635226  0  2.374406  0
O  O144  1  0.16712419  0.53183130  0.20827717  1  0  -0.585328  0  2.111797  0  0  -0.565914  0  2.38776  0  0  -0.597272  0  2.382961  0  -1.165812  0  -0.358081  -0.543205  0  2.389643  0
O  O145  1  0.33287442  0.03182968  0.29172385  1  0  -0.585338  0  2.111713  0  0  -0.565926  0  2.387689  0  0  -0.597284  0  2.38289  0  -1.16579  0  -0.358064  -0.543211  0  2.389577  0
O  O146  1  0.83287699  0.46817021  0.79172253  1  0  -0.585315  0  2.111856  0  0  -0.565902  0  2.38782  0  0  -0.597269  0  2.383019  0  -1.16587  0  -0.358097  -0.543194  0  2.389705  0
O  O147  1  0.66712379  0.96816837  0.70827761  1  0  -0.585366  0  2.111754  0  0  -0.565938  0  2.387737  0  0  -0.597306  0  2.382934  0  -1.165811  0  -0.358084  -0.543225  0  2.389626  0
