# generated using pymatgen
data_Zn2H8C23(NO4)3
_symmetry_space_group_name_H-M   'P 1'
_cell_length_a   15.08241491
_cell_length_b   14.95374920
_cell_length_c   19.60504333
_cell_angle_alpha   89.55515003
_cell_angle_beta   90.01988069
_cell_angle_gamma   88.46411694
_symmetry_Int_Tables_number   1
_chemical_formula_structural   Zn2H8C23(NO4)3
_chemical_formula_sum   'Zn4 H16 C46 N6 O24'
_cell_volume   4419.97253885
_cell_formula_units_Z   2
loop_
 _symmetry_equiv_pos_site_id
 _symmetry_equiv_pos_as_xyz
  1  'x, y, z'
loop_
 _atom_site_type_symbol
 _atom_site_label
 _atom_site_symmetry_multiplicity
 _atom_site_fract_x
 _atom_site_fract_y
 _atom_site_fract_z
 _atom_site_occupancy
 _atom_site_pbe_bader_charge
 _atom_site_pbe_bader_spin_density
 _atom_site_pbe_cm5_charge
 _atom_site_pbe_ddec_charge
 _atom_site_pbe_ddec_spin_density
 _atom_site_pbe_ddec_sum_bond_order
 _atom_site_pbe_magmom
Zn  Zn0  1  0.57101850  0.56808800  0.42988133  1  1.332962  0  0.69478  0.985684  0  2.321029  0
Zn  Zn1  1  0.43305734  0.57833264  0.56531288  1  1.322306  0  0.687574  0.981561  0  2.306931  0
Zn  Zn2  1  0.57995772  0.43506170  0.55968490  1  1.306224  0  0.677113  0.955008  0  2.384504  0
Zn  Zn3  1  0.42552724  0.43167441  0.44301554  1  1.305932  0  0.677527  0.963759  0  2.370647  0
H  H4  1  0.14783500  0.47691488  0.41216782  1  0.130535  0  0.116678  0.13505  0  0.992435  0
H  H5  1  0.40365898  0.33983865  0.74016804  1  0.648388  0  0.299051  0.343928  0  0.992053  0
H  H6  1  0.48298434  0.21649991  0.40585334  1  0.642811  0  0.325893  0.373741  0  0.922088  0
H  H7  1  0.61583882  0.40473941  0.98535722  1  0.600785  0  0.346144  0.375235  0  0.856369  0
H  H8  1  0.41585268  0.36920342  0.04945507  1  0.621622  0  0.316643  0.346188  0  0.917339  0
H  H9  1  0.34395085  0.36688783  0.86576788  1  0.635812  0  0.332154  0.370275  0  0.88513  0
H  H10  1  0.42801726  0.36448745  0.28310687  1  0.662805  0  0.305411  0.351147  0  0.973151  0
H  H11  1  0.47150287  0.66690603  0.05075524  1  0.646144  0  0.328525  0.362823  0  0.894085  0
H  H12  1  0.83669040  0.48655755  0.36503986  1  0.134569  0  0.126159  0.138222  0  0.963275  0
H  H13  1  0.47115351  0.85775022  0.59324236  1  0.148643  0  0.123835  0.141522  0  0.977765  0
H  H14  1  0.63387903  0.55783377  0.77377092  1  0.115967  0  0.112748  0.140328  0  0.976325  0
H  H15  1  0.38769618  0.54795419  0.99325347  1  0.113204  0  0.11401  0.143559  0  0.977919  0
H  H16  1  0.48352788  0.71949726  0.20094910  1  0.616146  0  0.337716  0.375126  0  0.873688  0
H  H17  1  0.64458091  0.55074436  0.95309789  1  0.593424  0  0.322834  0.355866  0  0.919572  0
H  H18  1  0.04296830  0.53811584  0.68479230  1  0.624386  0  0.336606  0.367308  0  0.884646  0
H  H19  1  0.78414869  0.47232546  0.58850139  1  0.645094  0  0.315304  0.36539  0  0.946131  0
C  C20  1  0.26649861  0.50347977  0.51090145  1  1.595756  0  0.236598  0.61747  0  4.148646  0
C  C21  1  0.44425388  0.51718966  0.02021607  1  0.001275  0  -0.120839  -0.298496  0  4.010205  0
C  C22  1  0.51034356  0.48086997  0.98206463  1  0.382914  0  0.075216  0.276678  0  4.108656  0
C  C23  1  0.73759158  0.48792614  0.47801047  1  1.508142  0  0.22853  0.619356  0  4.146186  0
C  C24  1  0.51295152  0.48357077  0.76381025  1  0.088415  0  -0.020649  -0.09239  0  4.022646  0
C  C25  1  0.16796081  0.50198763  0.51817942  1  -0.012666  0  -5.2e-05  -0.018215  0  3.982814  0
C  C26  1  0.83519968  0.48783799  0.47484947  1  0.043536  0  -0.04056  -0.209449  0  4.01563  0
C  C27  1  0.96908080  0.48363600  0.40595864  1  0.078931  0  -0.001782  -0.007736  0  4.0807  0
C  C28  1  0.87755761  0.48700688  0.41084908  1  -0.022978  0  -0.056433  -0.073383  0  3.943451  0
C  C29  1  0.88605155  0.48909799  0.53563663  1  0.608562  0  0.122895  0.318944  0  3.98585  0
C  C30  1  0.98053498  0.49747046  0.53149898  1  0.029126  0  -0.010323  -0.134274  0  3.906596  0
C  C31  1  0.44581320  0.51549320  0.09548789  1  0.117903  0  -0.034919  -0.06691  0  4.116313  0
C  C32  1  0.02274323  0.48937118  0.46626913  1  0.035383  0  0.015706  0.090428  0  3.989712  0
C  C33  1  0.11623236  0.48769970  0.46149450  1  0.004738  0  -0.084029  -0.166719  0  3.945762  0
C  C34  1  0.12763254  0.51796278  0.58251372  1  0.081333  0  -0.014475  -0.11192  0  4.088507  0
C  C35  1  0.51742657  0.73400969  0.50224851  1  1.619081  0  0.237555  0.614647  0  4.156987  0
C  C36  1  0.03485026  0.51342049  0.58978293  1  0.592707  0  0.119357  0.288421  0  4.000817  0
C  C37  1  0.51563829  0.83367090  0.49164173  1  0.031019  0  0.008053  -0.042179  0  3.924441  0
C  C38  1  0.48724585  0.17092616  0.52297561  1  0.038343  0  -0.02251  -0.216286  0  3.958492  0
C  C39  1  0.46934777  0.03882995  0.59555147  1  0.177858  0  0.016056  -0.022242  0  4.024252  0
C  C40  1  0.47330716  0.13188904  0.58828687  1  0.072986  0  0.028533  0.043192  0  4.051619  0
C  C41  1  0.49510635  0.11667090  0.46497298  1  0.620834  0  0.122171  0.294481  0  4.024694  0
C  C42  1  0.43536331  0.43460462  0.13097456  1  0.595698  0  0.064061  0.149315  0  4.075599  0
C  C43  1  0.50519814  0.02144717  0.47272596  1  0.014522  0  0.011912  -0.044721  0  3.915735  0
C  C44  1  0.48800199  0.98259271  0.53804376  1  0.017785  0  0.016315  0.068827  0  3.987251  0
C  C45  1  0.48956202  0.88841352  0.54480611  1  -0.029968  0  -0.056555  -0.112062  0  3.889361  0
C  C46  1  0.54131324  0.87173165  0.42803165  1  0.094083  0  0.037056  0.034747  0  3.981499  0
C  C47  1  0.49800994  0.26866946  0.51412270  1  1.590196  0  0.231284  0.620208  0  4.166497  0
C  C48  1  0.53297034  0.96514817  0.41791828  1  0.124438  0  0.035619  0.030326  0  3.966232  0
C  C49  1  0.51345473  0.49377877  0.68794849  1  1.554717  0  0.236696  0.638017  0  4.132179  0
C  C50  1  0.47057878  0.50833233  0.31279239  1  1.433072  0  0.222097  0.631639  0  4.119319  0
C  C51  1  0.45622633  0.51275062  0.23931550  1  0.070354  0  -0.051122  -0.289176  0  4.000788  0
C  C52  1  0.46417764  0.59466159  0.20273027  1  0.590683  0  0.075281  0.214674  0  4.075286  0
C  C53  1  0.43855664  0.43269614  0.20267010  1  0.512719  0  0.081061  0.212383  0  4.051176  0
C  C54  1  0.45821183  0.59454987  0.13168166  1  0.412152  0  0.048043  0.109238  0  4.131679  0
C  C55  1  0.17436666  0.53712312  0.64338307  1  0.817247  0  0.165774  0.227027  0  4.090506  0
C  C56  1  0.01097778  0.47609101  0.34109467  1  0.840188  0  0.169381  0.227454  0  4.055813  0
C  C57  1  0.57572201  0.81944416  0.37304331  1  0.879364  0  0.174405  0.21796  0  4.024399  0
C  C58  1  0.44873846  0.99924259  0.65951917  1  0.819789  0  0.171191  0.216902  0  4.062247  0
C  C59  1  0.55842034  0.99928984  0.35282253  1  0.858188  0  0.173254  0.220364  0  4.034108  0
C  C60  1  0.45617631  0.18860816  0.64534234  1  0.883632  0  0.204285  0.270359  0  3.987147  0
C  C61  1  0.44586331  0.43592938  0.86947847  1  0.477724  0  0.079297  0.211534  0  4.088586  0
C  C62  1  0.44689279  0.43677330  0.79767741  1  0.558732  0  0.05607  0.138608  0  4.073858  0
C  C63  1  0.58123305  0.52328276  0.80027005  1  0.065871  0  -0.113609  -0.241968  0  3.985506  0
C  C64  1  0.58088715  0.52071903  0.87125102  1  0.38097  0  0.074892  0.287381  0  4.122242  0
C  C65  1  0.51179495  0.47847271  0.90708121  1  -0.002867  0  -0.053892  -0.261717  0  4.095214  0
N  N66  1  0.19939566  0.55309512  0.69844778  1  -1.099595  0  -0.305466  -0.344634  0  2.668115  0
N  N67  1  0.04695414  0.46949212  0.28847628  1  -1.107543  0  -0.316701  -0.358711  0  2.667377  0
N  N68  1  0.60626965  0.78344984  0.32548584  1  -1.052858  0  -0.271739  -0.290441  0  2.67324  0
N  N69  1  0.43192717  0.96473000  0.71147674  1  -1.06186  0  -0.290446  -0.319803  0  2.647635  0
N  N70  1  0.58274345  0.02069676  0.29869511  1  -1.048467  0  -0.279329  -0.300557  0  2.637982  0
N  N71  1  0.43917061  0.23606396  0.69069236  1  -1.122337  0  -0.265458  -0.324229  0  2.789514  0
O  O72  1  0.50120852  0.50387727  0.49976686  1  -1.232115  0  -0.575408  -1.040804  0  2.54226  0
O  O73  1  0.44932783  0.53777745  0.66025095  1  -1.154461  0  -0.301717  -0.531555  0  2.304703  0
O  O74  1  0.44503115  0.43633468  0.34506490  1  -1.173989  0  -0.325577  -0.580693  0  2.372361  0
O  O75  1  0.58050959  0.45944870  0.65690348  1  -1.161314  0  -0.316725  -0.541962  0  2.304241  0
O  O76  1  0.50833204  0.57178257  0.34377470  1  -1.157887  0  -0.309528  -0.527799  0  2.359518  0
O  O77  1  0.47566501  0.67307390  0.23573227  1  -1.085144  0  -0.339864  -0.407889  0  2.313409  0
O  O78  1  0.64773093  0.56317221  0.90410446  1  -1.116848  0  -0.362604  -0.446098  0  2.242023  0
O  O79  1  0.99654877  0.52634520  0.65096679  1  -1.101734  0  -0.315706  -0.387299  0  2.305374  0
O  O80  1  0.84858954  0.48377969  0.59697400  1  -1.118521  0  -0.319349  -0.390996  0  2.299608  0
O  O81  1  0.37970122  0.39158926  0.76616800  1  -1.17654  0  -0.373224  -0.474126  0  2.320259  0
O  O82  1  0.49697866  0.15076290  0.40215011  1  -1.114382  0  -0.301533  -0.377091  0  2.317871  0
O  O83  1  0.57413660  0.68998937  0.46737724  1  -1.177153  0  -0.299985  -0.530953  0  2.358933  0
O  O84  1  0.58700266  0.44945924  0.01449154  1  -1.103434  0  -0.344389  -0.442945  0  2.243887  0
O  O85  1  0.42109165  0.35600156  0.09833733  1  -1.126208  0  -0.35208  -0.406087  0  2.271416  0
O  O86  1  0.38065508  0.39150333  0.90228669  1  -1.148056  0  -0.350133  -0.43074  0  2.26581  0
O  O87  1  0.42725874  0.35258394  0.23329198  1  -1.147779  0  -0.351948  -0.410113  0  2.268664  0
O  O88  1  0.46707806  0.67642778  0.09988205  1  -1.17046  0  -0.363883  -0.449435  0  2.284655  0
O  O89  1  0.46706968  0.30335263  0.45829330  1  -1.17188  0  -0.305114  -0.553114  0  2.336118  0
O  O90  1  0.30641472  0.55886177  0.54803816  1  -1.167827  0  -0.297862  -0.524282  0  2.341321  0
O  O91  1  0.70348635  0.46110246  0.53534762  1  -1.176238  0  -0.312705  -0.564336  0  2.380187  0
O  O92  1  0.30092889  0.44914503  0.46775128  1  -1.162779  0  -0.310533  -0.537989  0  2.31665  0
O  O93  1  0.69234825  0.51405738  0.42657848  1  -1.157183  0  -0.301757  -0.522055  0  2.292365  0
O  O94  1  0.46214161  0.70403557  0.54539017  1  -1.147989  0  -0.302468  -0.527375  0  2.293738  0
O  O95  1  0.53952133  0.30939116  0.55996992  1  -1.157667  0  -0.29037  -0.508345  0  2.335002  0
