# generated using pymatgen
data_Zn4H24C30O13
_symmetry_space_group_name_H-M   'P 1'
_cell_length_a   10.83627100
_cell_length_b   10.87234122
_cell_length_c   15.57009835
_cell_angle_alpha   71.66190275
_cell_angle_beta   86.66341479
_cell_angle_gamma   83.90264722
_symmetry_Int_Tables_number   1
_chemical_formula_structural   Zn4H24C30O13
_chemical_formula_sum   'Zn4 H24 C30 O13'
_cell_volume   1730.79628744
_cell_formula_units_Z   1
loop_
 _symmetry_equiv_pos_site_id
 _symmetry_equiv_pos_as_xyz
  1  'x, y, z'
loop_
 _atom_site_type_symbol
 _atom_site_label
 _atom_site_symmetry_multiplicity
 _atom_site_fract_x
 _atom_site_fract_y
 _atom_site_fract_z
 _atom_site_occupancy
 _atom_site_pbe_bader_charge
 _atom_site_pbe_bader_spin_density
 _atom_site_pbe_cm5_charge
 _atom_site_pbe_ddec_charge
 _atom_site_pbe_ddec_spin_density
 _atom_site_pbe_ddec_sum_bond_order
 _atom_site_pbe_magmom
Zn  Zn0  1  0.59836472  0.55691825  0.58020977  1  1.307493  0  0.671542  0.953862  0  2.409385  0
Zn  Zn1  1  0.61592819  0.41311816  0.42786818  1  1.311906  0  0.671968  0.962354  0  2.354565  0
Zn  Zn2  1  0.41058215  0.64454317  0.41642424  1  1.317374  0  0.670456  0.964203  0  2.368177  0
Zn  Zn3  1  0.39207470  0.37579402  0.58077074  1  1.315481  0  0.672309  0.967408  0  2.380143  0
H  H4  1  0.52411125  0.82613593  0.13949025  1  0.089926  0  0.103856  0.11192  0  1.005707  0
H  H5  1  0.74558609  0.10231741  0.62242668  1  0.041516  0  0.086891  0.119043  0  1.008  0
H  H6  1  0.62423154  0.06235757  0.70550704  1  0.017601  0  0.085398  0.114475  0  1.010661  0
H  H7  1  0.76533400  0.96058854  0.71752587  1  0.00421  0  0.09216  0.123026  0  1.001022  0
H  H8  1  0.60630871  0.85488931  0.66403680  1  0.072189  0  0.102842  0.109844  0  0.971672  0
H  H9  1  0.72205609  0.89827370  0.58102916  1  0.061762  0  0.108883  0.118004  0  0.947074  0
H  H10  1  0.68934086  0.87661265  0.87999695  1  0.048692  0  0.084615  0.10905  0  1.022942  0
H  H11  1  0.67516070  0.04023906  0.88219404  1  0.025223  0  0.087559  0.116306  0  1.001704  0
H  H12  1  0.72570521  0.91016290  0.97944535  1  0.045111  0  0.087742  0.117775  0  0.996092  0
H  H13  1  0.46393402  0.96034832  0.90008442  1  0.03427  0  0.090886  0.082371  0  0.992306  0
H  H14  1  0.50336896  0.98948591  0.99954172  1  0.027537  0  0.091731  0.086614  0  0.9946  0
H  H15  1  0.01683177  0.56812086  0.37755120  1  0.119939  0  0.11885  0.140924  0  0.969607  0
H  H16  1  0.46462208  0.11146340  0.17315032  1  0.022687  0  0.086591  0.113379  0  1.006656  0
H  H17  1  0.54202744  0.23658923  0.19073691  1  0.02954  0  0.089586  0.118961  0  1.007412  0
H  H18  1  0.41897490  0.17013128  0.26573840  1  0.032393  0  0.0888  0.120261  0  0.998432  0
H  H19  1  0.33317445  0.38308834  0.16035572  1  0.04279  0  0.093807  0.091603  0  1.003838  0
H  H20  1  0.26796510  0.25378616  0.14053572  1  0.032346  0  0.096382  0.092909  0  0.969554  0
H  H21  1  0.00691619  0.41269808  0.58113125  1  0.157538  0  0.121621  0.143337  0  0.968124  0
H  H22  1  0.49584939  0.82038141  0.83375973  1  0.080337  0  0.102398  0.10213  0  1.019743  0
H  H23  1  0.50471957  0.42668443  0.16373382  1  0.103611  0  0.105141  0.111268  0  1.061474  0
H  H24  1  0.37317276  0.21580460  0.86172350  1  0.100429  0  0.106616  0.110597  0  0.998306  0
H  H25  1  0.32873610  0.16824334  0.02646277  1  0.075462  0  0.102919  0.10297  0  0.997274  0
H  H26  1  0.47996095  0.65257536  0.76364503  1  0.070205  0  0.100817  0.109553  0  1.031253  0
H  H27  1  0.41108075  0.02842907  0.45421208  1  0.068619  0  0.108363  0.134855  0  0.99499  0
C  C28  1  0.52875181  0.15695054  0.53178365  1  1.602188  0  0.234064  0.613175  0  4.163546  0
C  C29  1  0.49697972  0.52682784  0.12042398  1  -0.062237  0  -0.08417  -0.150055  0  3.958988  0
C  C30  1  0.51347672  0.75313021  0.10654835  1  0.004845  0  -0.089522  -0.159818  0  3.977566  0
C  C31  1  0.48871005  0.82787864  0.50025515  1  1.508278  0  0.219091  0.659382  0  4.165483  0
C  C32  1  0.43430747  0.40306111  0.84538475  1  0.041331  0  -0.019711  -0.093794  0  3.950264  0
C  C33  1  0.47982855  0.96385037  0.49986968  1  0.045022  0  -0.107508  -0.312497  0  3.909534  0
C  C34  1  0.54897553  0.01252131  0.54868897  1  -0.064919  0  0.020131  0.072572  0  3.839108  0
C  C35  1  0.04846928  0.51470712  0.44551549  1  -0.105384  0  -0.080587  -0.189178  0  3.886941  0
C  C36  1  0.97079869  0.45893359  0.51339651  1  0.015564  0  -0.068581  -0.153275  0  3.878793  0
C  C37  1  0.83402101  0.46820162  0.50632111  1  1.544478  0  0.22686  0.645796  0  4.166526  0
C  C38  1  0.18167302  0.51488034  0.46343677  1  1.57451  0  0.224722  0.647167  0  4.168876  0
C  C39  1  0.36861937  0.25843421  0.98862169  1  -0.055447  0  -0.095029  -0.15314  0  4.02813  0
C  C40  1  0.52623486  0.58527930  0.25932336  1  1.561568  0  0.224488  0.60522  0  4.151274  0
C  C41  1  0.45850377  0.42408151  0.74669300  1  1.531556  0  0.227993  0.611213  0  4.152895  0
C  C42  1  0.50728499  0.78780476  0.01332677  1  0.003773  0  -0.006077  0.075435  0  3.933927  0
C  C43  1  0.51318283  0.62202760  0.15983882  1  -0.092539  0  -0.024705  -0.035224  0  4.039619  0
C  C44  1  0.39119302  0.28518636  0.89591508  1  -0.121863  0  -0.084504  -0.083677  0  4.031542  0
C  C45  1  0.64636051  0.94019674  0.61658873  1  0.000432  0  -0.152534  -0.131339  0  3.95027  0
C  C46  1  0.69800462  0.02140182  0.66815419  1  -0.030315  0  -0.247137  -0.364869  0  3.973305  0
C  C47  1  0.52719806  0.92565509  0.95731663  1  -0.025741  0  -0.160365  -0.146938  0  3.991834  0
C  C48  1  0.66219880  0.93928527  0.92250952  1  -0.099985  0  -0.241555  -0.352069  0  3.956704  0
C  C49  1  0.35509649  0.29981733  0.13487360  1  0.004263  0  -0.160575  -0.152141  0  3.978887  0
C  C50  1  0.39252679  0.34352757  0.03530804  1  -0.046516  0  0.004862  0.095018  0  3.88194  0
C  C51  1  0.45081675  0.19932452  0.19449902  1  -0.059112  0  -0.238849  -0.347825  0  3.946277  0
C  C52  1  0.44194798  0.46367306  0.98590173  1  0.057401  0  0.002727  -0.020485  0  3.859681  0
C  C53  1  0.45448167  0.49645934  0.88898640  1  -0.083434  0  0.001731  0.072352  0  3.953796  0
C  C54  1  0.47405913  0.55918280  0.02740477  1  0.034294  0  -0.001851  0.041717  0  3.944461  0
C  C55  1  0.48826104  0.69075804  0.97254266  1  0.000184  0  -0.00286  0.031496  0  3.954822  0
C  C56  1  0.48625688  0.72092851  0.87653667  1  -0.141395  0  -0.093075  -0.13087  0  4.036543  0
C  C57  1  0.47597420  0.62718297  0.83697381  1  0.050814  0  -0.092497  -0.127135  0  4.009806  0
O  O58  1  0.50354980  0.49508181  0.50171259  1  -1.238276  0  -0.576201  -1.034891  0  2.557484  0
O  O59  1  0.56625909  0.46738682  0.30137146  1  -1.171174  0  -0.317367  -0.543613  0  2.300361  0
O  O60  1  0.39115826  0.36761619  0.70840568  1  -1.164216  0  -0.318476  -0.552951  0  2.326502  0
O  O61  1  0.49533123  0.67390443  0.29661457  1  -1.181179  0  -0.323167  -0.559706  0  2.309448  0
O  O62  1  0.54659635  0.49272472  0.70800764  1  -1.167887  0  -0.31385  -0.544947  0  2.366006  0
O  O63  1  0.77404561  0.49397570  0.57266023  1  -1.158874  0  -0.314882  -0.542806  0  2.291251  0
O  O64  1  0.22324985  0.43371264  0.53678127  1  -1.176784  0  -0.318038  -0.554883  0  2.331766  0
O  O65  1  0.60689388  0.22296512  0.47709774  1  -1.159453  0  -0.30668  -0.537005  0  2.309999  0
O  O66  1  0.41042284  0.80207369  0.45097098  1  -1.171304  0  -0.3253  -0.556198  0  2.281828  0
O  O67  1  0.43798556  0.19801888  0.57402151  1  -1.159498  0  -0.309336  -0.540579  0  2.306924  0
O  O68  1  0.57237031  0.74694628  0.54781658  1  -1.170157  0  -0.314724  -0.559659  0  2.34531  0
O  O69  1  0.78871706  0.45050858  0.43783502  1  -1.166403  0  -0.311361  -0.541665  0  2.273933  0
O  O70  1  0.24221208  0.59843113  0.40407544  1  -1.162597  0  -0.316323  -0.546315  0  2.267211  0
