# generated using pymatgen
data_CdH18C18(N2O3)2
_symmetry_space_group_name_H-M   'P 1'
_cell_length_a   8.36164577
_cell_length_b   10.41402688
_cell_length_c   11.51415728
_cell_angle_alpha   83.18491606
_cell_angle_beta   72.94993852
_cell_angle_gamma   79.04154467
_symmetry_Int_Tables_number   1
_chemical_formula_structural   CdH18C18(N2O3)2
_chemical_formula_sum   'Cd2 H36 C36 N8 O12'
_cell_volume   938.97101221
_cell_formula_units_Z   2
loop_
 _symmetry_equiv_pos_site_id
 _symmetry_equiv_pos_as_xyz
  1  'x, y, z'
loop_
 _atom_site_type_symbol
 _atom_site_label
 _atom_site_symmetry_multiplicity
 _atom_site_fract_x
 _atom_site_fract_y
 _atom_site_fract_z
 _atom_site_occupancy
 _atom_site_hle17_bader_spin_density
 _atom_site_hle17_ddec_charge
 _atom_site_hle17_ddec_spin_density
 _atom_site_hle17_ddec_sum_bond_order
 _atom_site_hle17_magmom
 _atom_site_hse06_10hf_bader_spin_density
 _atom_site_hse06_10hf_ddec_charge
 _atom_site_hse06_10hf_ddec_spin_density
 _atom_site_hse06_10hf_ddec_sum_bond_order
 _atom_site_hse06_10hf_magmom
 _atom_site_hse06_bader_spin_density
 _atom_site_hse06_ddec_charge
 _atom_site_hse06_ddec_spin_density
 _atom_site_hse06_ddec_sum_bond_order
 _atom_site_hse06_magmom
 _atom_site_pbe_bader_spin_density
 _atom_site_pbe_cm5_charge
 _atom_site_pbe_ddec_charge
 _atom_site_pbe_ddec_spin_density
 _atom_site_pbe_ddec_sum_bond_order
 _atom_site_pbe_magmom
Cd  Cd0  1  0.47299238  0.80616598  0.61328943  1  0  1.143302  0  1.715491  0  0  0.954167  0  2.170268  0  0  1.009236  0  2.117599  0  0  0.783887  0.912446  0  2.208106  0
Cd  Cd1  1  0.52700589  0.19383275  0.38671012  1  0  1.143347  0  1.715432  0  0  0.954188  0  2.170245  0  0  1.009258  0  2.117574  0  0  0.783903  0.912468  0  2.208081  0
H  H2  1  0.71295451  0.54021549  0.45139715  1  0  0.115087  0  0.9496  0  0  0.122281  0  1.01604  0  0  0.125394  0  1.012381  0  0  0.134627  0.119828  0  1.018828  0
H  H3  1  0.28704462  0.45978520  0.54860285  1  0  0.115091  0  0.949591  0  0  0.122293  0  1.016031  0  0  0.125406  0  1.012371  0  0  0.134619  0.11984  0  1.018818  0
H  H4  1  0.84777903  0.90931189  0.45826537  1  0  0.113793  0  0.975927  0  0  0.121244  0  1.039004  0  0  0.124315  0  1.036965  0  0  0.113922  0.118833  0  1.040775  0
H  H5  1  0.15222136  0.09068880  0.54173522  1  0  0.113748  0  0.975918  0  0  0.121203  0  1.038991  0  0  0.124275  0  1.036953  0  0  0.113916  0.118792  0  1.040762  0
H  H6  1  0.12736379  0.74754753  0.31605847  1  0  0.114522  0  0.979505  0  0  0.122816  0  1.043753  0  0  0.124456  0  1.044463  0  0  0.117579  0.12146  0  1.043538  0
H  H7  1  0.87263538  0.25245316  0.68394413  1  0  0.114499  0  0.979505  0  0  0.122814  0  1.043728  0  0  0.124457  0  1.044435  0  0  0.117566  0.121458  0  1.043514  0
H  H8  1  0.02501796  0.40839012  0.34897033  1  0  0.088346  0  0.913354  0  0  0.105147  0  0.973792  0  0  0.10526  0  0.974862  0  0  0.115863  0.104919  0  0.973303  0
H  H9  1  0.97497954  0.59161254  0.65103156  1  0  0.088351  0  0.913357  0  0  0.10515  0  0.97379  0  0  0.10526  0  0.974861  0  0  0.115876  0.104922  0  0.973301  0
H  H10  1  0.18521261  0.50586945  0.28320288  1  0  0.088131  0  0.953957  0  0  0.101537  0  1.020538  0  0  0.101841  0  1.021106  0  0  0.110679  0.101183  0  1.020248  0
H  H11  1  0.81478803  0.49413026  0.71680037  1  0  0.088118  0  0.954006  0  0  0.101547  0  1.020546  0  0  0.101846  0  1.021117  0  0  0.110683  0.101195  0  1.020248  0
H  H12  1  0.10680016  0.42519951  0.12226220  1  0  0.061526  0  0.929053  0  0  0.076719  0  0.991175  0  0  0.077018  0  0.990726  0  0  0.102484  0.07627  0  0.991861  0
H  H13  1  0.89320171  0.57480020  0.87773991  1  0  0.061529  0  0.929119  0  0  0.076701  0  0.991243  0  0  0.076996  0  0.990801  0  0  0.102486  0.076254  0  0.991927  0
H  H14  1  0.88754696  0.48471184  0.18508398  1  0  0.061374  0  0.923411  0  0  0.076016  0  0.986189  0  0  0.076121  0  0.986355  0  0  0.103989  0.075812  0  0.986209  0
H  H15  1  0.11245612  0.51528786  0.81491527  1  0  0.061431  0  0.923356  0  0  0.076025  0  0.98619  0  0  0.076139  0  0.986342  0  0  0.10398  0.07582  0  0.986216  0
H  H16  1  0.80378764  0.72399648  0.19914602  1  0  0.055301  0  0.951562  0  0  0.068839  0  1.018229  0  0  0.067767  0  1.021174  0  0  0.10021  0.06945  0  1.016362  0
H  H17  1  0.19621172  0.27600324  0.80085578  1  0  0.055211  0  0.951599  0  0  0.068759  0  1.018258  0  0  0.067685  0  1.021204  0  0  0.100191  0.069374  0  1.016392  0
H  H18  1  0.81427684  0.66656849  0.05732363  1  0  0.041084  0  0.967564  0  0  0.054333  0  1.03756  0  0  0.054025  0  1.038224  0  0  0.093389  0.054287  0  1.037319  0
H  H19  1  0.18572520  0.33343023  0.94267595  1  0  0.041066  0  0.967575  0  0  0.054308  0  1.037575  0  0  0.053995  0  1.038243  0  0  0.09339  0.054263  0  1.037333  0
H  H20  1  0.79566949  0.91100173  0.06315947  1  0  0.091528  0  0.91672  0  0  0.10942  0  0.975858  0  0  0.109211  0  0.976575  0  0  0.119026  0.109294  0  0.975719  0
H  H21  1  0.20433404  0.08899601  0.93684163  1  0  0.091517  0  0.916758  0  0  0.109399  0  0.975922  0  0  0.109189  0  0.976642  0  0  0.119033  0.109273  0  0.975784  0
H  H22  1  0.99837392  0.88229772  0.08987156  1  0  0.089453  0  0.914144  0  0  0.104497  0  0.975444  0  0  0.10519  0  0.975783  0  0  0.11821  0.103972  0  0.975282  0
H  H23  1  0.00162649  0.11770297  0.91012990  1  0  0.089466  0  0.914105  0  0  0.104495  0  0.975424  0  0  0.105191  0  0.97576  0  0  0.118198  0.103971  0  0.975262  0
H  H24  1  0.78306333  0.86919104  0.84224617  1  0  0.127699  0  0.976907  0  0  0.133637  0  1.042921  0  0  0.136852  0  1.041133  0  0  0.120256  0.13118  0  1.044488  0
H  H25  1  0.21693476  0.13080867  0.15775504  1  0  0.127694  0  0.9769  0  0  0.133641  0  1.042902  0  0  0.136857  0  1.041112  0  0  0.120257  0.131184  0  1.04447  0
H  H26  1  0.04066982  0.86277699  0.62328938  1  0  0.105747  0  0.954357  0  0  0.115754  0  1.013994  0  0  0.118013  0  1.013271  0  0  0.116986  0.114106  0  1.014594  0
H  H27  1  0.95932967  0.13722173  0.37670816  1  0  0.105749  0  0.954376  0  0  0.115737  0  1.014041  0  0  0.117994  0  1.013322  0  0  0.116993  0.114089  0  1.014641  0
H  H28  1  0.26133681  0.82442026  0.91347185  1  0  0.098933  0  0.973566  0  0  0.105242  0  1.041846  0  0  0.108373  0  1.03779  0  0  0.133633  0.10277  0  1.044995  0
H  H29  1  0.73866352  0.17558042  0.08652442  1  0  0.09893  0  0.9736  0  0  0.105236  0  1.041888  0  0  0.108363  0  1.037838  0  0  0.133624  0.102759  0  1.045047  0
H  H30  1  0.45655944  0.96040561  0.10959898  1  0  0.125175  0  0.962861  0  0  0.129868  0  1.034615  0  0  0.13451  0  1.030674  0  0  0.106601  0.126661  0  1.037206  0
H  H31  1  0.54343841  0.03959507  0.89039957  1  0  0.125165  0  0.962879  0  0  0.129855  0  1.03464  0  0  0.134499  0  1.030696  0  0  0.106592  0.126647  0  1.037232  0
H  H32  1  0.53321988  0.55126721  0.04305338  1  0  0.110442  0  0.982298  0  0  0.119649  0  1.046876  0  0  0.123762  0  1.043198  0  0  0.103075  0.116703  0  1.049413  0
H  H33  1  0.46678071  0.44873249  0.95694642  1  0  0.110457  0  0.982308  0  0  0.119675  0  1.046872  0  0  0.123787  0  1.043196  0  0  0.103085  0.116727  0  1.049411  0
H  H34  1  0.43692478  0.66557532  0.40728885  1  0  0.110732  0  0.968097  0  0  0.117281  0  1.039637  0  0  0.121523  0  1.035839  0  0  0.10401  0.114339  0  1.042341  0
H  H35  1  0.56307414  0.33442635  0.59271109  1  0  0.110689  0  0.968103  0  0  0.117248  0  1.039637  0  0  0.12149  0  1.035839  0  0  0.104007  0.114306  0  1.042341  0
H  H36  1  0.52831673  0.72321520  0.89066901  1  0  0.404663  0  0.879189  0  0  0.377074  0  0.954679  0  0  0.387969  0  0.942  0  0  0.307141  0.369377  0  0.963663  0
H  H37  1  0.47168405  0.27678353  0.10932998  1  0  0.404715  0  0.879172  0  0  0.377122  0  0.95466  0  0  0.388017  0  0.941983  0  0  0.307141  0.369424  0  0.963646  0
C  C38  1  0.78731823  0.61855732  0.43780703  1  0  0.150535  0  3.644991  0  0  0.089059  0  3.912881  0  0  0.102598  0  3.926405  0  0  0.13514  0.080445  0  3.903305  0
C  C39  1  0.21268113  0.38144239  0.56219477  1  0  0.150473  0  3.644961  0  0  0.088962  0  3.912891  0  0  0.102499  0  3.926416  0  0  0.135109  0.080349  0  3.903314  0
C  C40  1  0.86388648  0.80812066  0.43680156  1  0  -0.014418  0  3.763481  0  0  -0.046565  0  4.026655  0  0  -0.04462  0  4.046446  0  0  -0.012001  -0.047856  0  4.013567  0
C  C41  1  0.13611289  0.19187906  0.56320110  1  0  -0.014293  0  3.76346  0  0  -0.046434  0  4.02662  0  0  -0.044492  0  4.046413  0  0  -0.011962  -0.047727  0  4.013534  0
C  C42  1  0.00096574  0.73021518  0.36616021  1  0  -0.066479  0  3.675775  0  0  -0.104723  0  3.929973  0  0  -0.103004  0  3.948823  0  0  -0.003436  -0.106097  0  3.917893  0
C  C43  1  0.99903341  0.26978552  0.63384152  1  0  -0.066554  0  3.675729  0  0  -0.104816  0  3.929935  0  0  -0.1031  0  3.948784  0  0  -0.003461  -0.106189  0  3.917856  0
C  C44  1  0.05136212  0.50110873  0.29685348  1  0  -0.036688  0  3.625684  0  0  -0.106067  0  3.889905  0  0  -0.102066  0  3.899943  0  0  -0.05676  -0.108693  0  3.883322  0
C  C45  1  0.94863829  0.49889196  0.70314798  1  0  -0.036644  0  3.625779  0  0  -0.106014  0  3.889923  0  0  -0.102002  0  3.899954  0  0  -0.056765  -0.10864  0  3.883345  0
C  C46  1  0.01658607  0.50416265  0.17336853  1  0  0.075299  0  3.625346  0  0  0.020134  0  3.896057  0  0  0.026988  0  3.901254  0  0  -0.066431  0.015595  0  3.892629  0
C  C47  1  0.98341601  0.49583608  0.82663365  1  0  0.075153  0  3.625496  0  0  0.020059  0  3.89616  0  0  0.026906  0  3.901363  0  0  -0.066433  0.015512  0  3.892737  0
C  C48  1  0.88482640  0.71024763  0.10537457  1  0  0.060122  0  3.681146  0  0  -0.000232  0  3.958836  0  0  0.006116  0  3.965965  0  0  -0.076108  -0.004419  0  3.953982  0
C  C49  1  0.11516962  0.28975600  0.89462666  1  0  0.060229  0  3.681188  0  0  -7.9e-05  0  3.958847  0  0  0.006273  0  3.965977  0  0  -0.076068  -0.004275  0  3.953996  0
C  C50  1  0.91746177  0.84432461  0.04677075  1  0  -0.028747  0  3.638773  0  0  -0.095935  0  3.902512  0  0  -0.091973  0  3.912822  0  0  -0.05108  -0.098423  0  3.895655  0
C  C51  1  0.08254132  0.15567509  0.95322849  1  0  -0.028729  0  3.638789  0  0  -0.095906  0  3.902512  0  0  -0.091946  0  3.912823  0  0  -0.051065  -0.098395  0  3.895659  0
C  C52  1  0.91963463  0.85929236  0.82367048  1  0  -0.087516  0  3.6691  0  0  -0.125106  0  3.924536  0  0  -0.124974  0  3.944424  0  0  -0.005986  -0.125285  0  3.911698  0
C  C53  1  0.08036450  0.14070833  0.17632952  1  0  -0.087511  0  3.669069  0  0  -0.125103  0  3.924501  0  0  -0.124969  0  3.944387  0  0  -0.005987  -0.125281  0  3.911662  0
C  C54  1  0.04788239  0.85536720  0.71644214  1  0  0.00119  0  3.761703  0  0  -0.028915  0  4.020824  0  0  -0.027197  0  4.042483  0  0  -0.004559  -0.030007  0  4.006364  0
C  C55  1  0.95211421  0.14463350  0.28355668  1  0  0.001127  0  3.761691  0  0  -0.02897  0  4.020849  0  0  -0.027251  0  4.042505  0  0  -0.004598  -0.030062  0  4.006388  0
C  C56  1  0.16815809  0.83503458  0.86291017  1  0  0.156938  0  3.667141  0  0  0.094267  0  3.936775  0  0  0.108395  0  3.949002  0  0  0.135772  0.085034  0  3.928406  0
C  C57  1  0.83184121  0.16496512  0.13708817  1  0  0.156947  0  3.667206  0  0  0.094271  0  3.936849  0  0  0.108403  0  3.949077  0  0  0.135798  0.08504  0  3.928478  0
C  C58  1  0.41056069  0.93208091  0.35078927  1  0  0.661142  0  3.915889  0  0  0.609724  0  4.205832  0  0  0.644899  0  4.197304  0  0  0.207433  0.585776  0  4.210506  0
C  C59  1  0.58944011  0.06791782  0.64921145  1  0  0.66116  0  3.915831  0  0  0.609741  0  4.205762  0  0  0.644912  0  4.19724  0  0  0.20743  0.585792  0  4.210437  0
C  C60  1  0.43942341  0.82415438  0.26701305  1  0  -0.049085  0  3.789438  0  0  -0.021415  0  4.022273  0  0  -0.027125  0  4.043076  0  0  -0.023035  -0.017785  0  4.008448  0
C  C61  1  0.56057715  0.17584532  0.73298501  1  0  -0.049134  0  3.789501  0  0  -0.021429  0  4.022298  0  0  -0.02714  0  4.043107  0  0  -0.023003  -0.017799  0  4.008477  0
C  C62  1  0.46066176  0.85767259  0.14271842  1  0  -0.197662  0  3.694694  0  0  -0.23215  0  3.948708  0  0  -0.23398  0  3.964848  0  0  -0.101825  -0.230009  0  3.93727  0
C  C63  1  0.53933629  0.14232712  0.85728019  1  0  -0.197662  0  3.694643  0  0  -0.232177  0  3.948697  0  0  -0.233994  0  3.964806  0  0  -0.101834  -0.230036  0  3.937259  0
C  C64  1  0.49139387  0.75983620  0.06175148  1  0  0.322712  0  3.857375  0  0  0.315648  0  4.124532  0  0  0.32559  0  4.139726  0  0  0.075468  0.308557  0  4.113785  0
C  C65  1  0.50860524  0.24016449  0.93824766  1  0  0.322771  0  3.85725  0  0  0.315696  0  4.124408  0  0  0.32564  0  4.139605  0  0  0.075488  0.308606  0  4.11366  0
C  C66  1  0.50288454  0.62819804  0.10580264  1  0  -0.206746  0  3.722786  0  0  -0.242143  0  3.977541  0  0  -0.243579  0  3.992635  0  0  -0.104455  -0.24046  0  3.966866  0
C  C67  1  0.49711810  0.37180362  0.89419388  1  0  -0.206819  0  3.7228  0  0  -0.242226  0  3.977552  0  0  -0.243665  0  3.992649  0  0  -0.104503  -0.240544  0  3.966876  0
C  C68  1  0.48571356  0.59449304  0.22950836  1  0  -0.044437  0  3.801008  0  0  -0.020713  0  4.042775  0  0  -0.025957  0  4.063199  0  0  -0.023007  -0.017371  0  4.029146  0
C  C69  1  0.51428409  0.40550863  0.77049012  1  0  -0.044449  0  3.800877  0  0  -0.020691  0  4.042617  0  0  -0.025934  0  4.063038  0  0  -0.02297  -0.017345  0  4.028981  0
C  C70  1  0.45188326  0.69245253  0.31095478  1  0  -0.124415  0  3.739723  0  0  -0.166321  0  3.999064  0  0  -0.165787  0  4.01703  0  0  -0.096421  -0.166809  0  3.987552  0
C  C71  1  0.54812377  0.30754618  0.68904283  1  0  -0.124319  0  3.739632  0  0  -0.166253  0  3.998963  0  0  -0.165721  0  4.016931  0  0  -0.096459  -0.166743  0  3.987451  0
C  C72  1  0.50641031  0.45284519  0.27478079  1  0  0.633659  0  3.932182  0  0  0.583791  0  4.22457  0  0  0.617523  0  4.217657  0  0  0.19539  0.560799  0  4.228403  0
C  C73  1  0.49359092  0.54715745  0.72521853  1  0  0.633748  0  3.932037  0  0  0.583854  0  4.224451  0  0  0.617586  0  4.217541  0  0  0.195441  0.560862  0  4.228287  0
N  N74  1  0.73202813  0.73720921  0.48089844  1  0  -0.396192  0  3.275512  0  0  -0.31756  0  3.558568  0  0  -0.340178  0  3.577429  0  0  -0.359493  -0.302106  0  3.545369  0
N  N75  1  0.26796851  0.26279148  0.51910298  1  0  -0.396184  0  3.275565  0  0  -0.317549  0  3.558647  0  0  -0.340165  0  3.577505  0  0  -0.359516  -0.302096  0  3.545448  0
N  N76  1  0.95076610  0.61056691  0.36807135  1  0  -0.063928  0  3.575506  0  0  0.031517  0  3.794242  0  0  0.017073  0  3.819818  0  0  -0.245413  0.041031  0  3.776929  0
N  N77  1  0.04923304  0.38943378  0.63192952  1  0  -0.063889  0  3.575418  0  0  0.031558  0  3.794168  0  0  0.017109  0  3.819746  0  0  -0.245362  0.041072  0  3.776855  0
N  N78  1  0.99857043  0.84655305  0.91581524  1  0  -0.062127  0  3.576343  0  0  0.031503  0  3.797741  0  0  0.01706  0  3.823862  0  0  -0.246922  0.040879  0  3.780109  0
N  N79  1  0.00142931  0.15344470  0.08418496  1  0  -0.062133  0  3.576382  0  0  0.031498  0  3.797782  0  0  0.017054  0  3.823902  0  0  -0.246935  0.040874  0  3.780148  0
N  N80  1  0.20174744  0.84051249  0.74235397  1  0  -0.382605  0  3.257463  0  0  -0.306329  0  3.536214  0  0  -0.328062  0  3.554432  0  0  -0.356748  -0.291411  0  3.523493  0
N  N81  1  0.79824956  0.15948625  0.25764499  1  0  -0.382558  0  3.257375  0  0  -0.306281  0  3.536118  0  0  -0.328011  0  3.554333  0  0  -0.356742  -0.291364  0  3.523396  0
O  O82  1  0.35034254  0.90890465  0.46480523  1  0  -0.670602  0  2.034574  0  0  -0.606241  0  2.296394  0  0  -0.632685  0  2.28118  0  0  -0.342171  -0.586616  0  2.305393  0
O  O83  1  0.64965723  0.09109897  0.53519431  1  0  -0.67062  0  2.034543  0  0  -0.606257  0  2.296377  0  0  -0.632702  0  2.281168  0  0  -0.342175  -0.586632  0  2.305377  0
O  O84  1  0.44822373  0.04167139  0.29922732  1  0  -0.629439  0  2.020223  0  0  -0.563424  0  2.276457  0  0  -0.591416  0  2.263858  0  0  -0.328615  -0.543168  0  2.285117  0
O  O85  1  0.55177287  0.95832930  0.70077150  1  0  -0.629404  0  2.020127  0  0  -0.563414  0  2.276382  0  0  -0.591405  0  2.263784  0  0  -0.328617  -0.543158  0  2.285043  0
O  O86  1  0.46756616  0.36922598  0.21886394  1  0  -0.671244  0  1.991294  0  0  -0.610052  0  2.227727  0  0  -0.63663  0  2.21706  0  0  -0.33262  -0.590706  0  2.235399  0
O  O87  1  0.53243403  0.63077569  0.78113659  1  0  -0.671291  0  1.991302  0  0  -0.610101  0  2.227754  0  0  -0.636681  0  2.217087  0  0  -0.332658  -0.590756  0  2.235427  0
O  O88  1  0.55834949  0.42236862  0.36930821  1  0  -0.628817  0  1.963188  0  0  -0.569633  0  2.205646  0  0  -0.597102  0  2.196412  0  0  -0.32326  -0.549715  0  2.210907  0
O  O89  1  0.44164944  0.57763305  0.63069173  1  0  -0.62884  0  1.963153  0  0  -0.569659  0  2.205641  0  0  -0.597118  0  2.196386  0  0  -0.323274  -0.549741  0  2.210901  0
O  O90  1  0.51493525  0.79807013  0.94163630  1  0  -0.533251  0  2.146279  0  0  -0.477092  0  2.361124  0  0  -0.495531  0  2.35047  0  0  -0.352459  -0.463817  0  2.368125  0
O  O91  1  0.48506196  0.20192762  0.05836271  1  0  -0.533328  0  2.146293  0  0  -0.477164  0  2.361156  0  0  -0.495601  0  2.350497  0  0  -0.352457  -0.463887  0  2.368157  0
O  O92  1  0.04164884  0.62601194  0.10409479  1  0  -0.314066  0  2.195198  0  0  -0.250532  0  2.447612  0  0  -0.265202  0  2.448083  0  0  -0.241957  -0.240236  0  2.446843  0
O  O93  1  0.95835281  0.37398875  0.89590553  1  0  -0.313992  0  2.195322  0  0  -0.250526  0  2.447746  0  0  -0.265197  0  2.448219  0  0  -0.24197  -0.24022  0  2.446977  0
