# generated using pymatgen
data_AgH6C6NO2
_symmetry_space_group_name_H-M   'P 1'
_cell_length_a   3.80813846
_cell_length_b   12.75495383
_cell_length_c   13.43032935
_cell_angle_alpha   89.99913712
_cell_angle_beta   89.99921939
_cell_angle_gamma   94.48943617
_symmetry_Int_Tables_number   1
_chemical_formula_structural   AgH6C6NO2
_chemical_formula_sum   'Ag4 H24 C24 N4 O8'
_cell_volume   650.34488099
_cell_formula_units_Z   4
loop_
 _symmetry_equiv_pos_site_id
 _symmetry_equiv_pos_as_xyz
  1  'x, y, z'
loop_
 _atom_site_type_symbol
 _atom_site_label
 _atom_site_symmetry_multiplicity
 _atom_site_fract_x
 _atom_site_fract_y
 _atom_site_fract_z
 _atom_site_occupancy
 _atom_site_hle17_bader_spin_density
 _atom_site_hle17_ddec_charge
 _atom_site_hle17_ddec_spin_density
 _atom_site_hle17_ddec_sum_bond_order
 _atom_site_hle17_magmom
 _atom_site_hse06_10hf_bader_spin_density
 _atom_site_hse06_10hf_ddec_charge
 _atom_site_hse06_10hf_ddec_spin_density
 _atom_site_hse06_10hf_ddec_sum_bond_order
 _atom_site_hse06_10hf_magmom
 _atom_site_hse06_bader_spin_density
 _atom_site_hse06_ddec_charge
 _atom_site_hse06_ddec_spin_density
 _atom_site_hse06_ddec_sum_bond_order
 _atom_site_hse06_magmom
 _atom_site_pbe_bader_spin_density
 _atom_site_pbe_cm5_charge
 _atom_site_pbe_ddec_charge
 _atom_site_pbe_ddec_spin_density
 _atom_site_pbe_ddec_sum_bond_order
 _atom_site_pbe_magmom
Ag  Ag0  1  0.88651863  0.06777618  0.37622233  1  0  0.66069  0  1.406611  0  0  0.542705  0  1.858295  0  0  0.569219  0  1.808518  0  0  0.496634  0.524383  0  1.892958  0
Ag  Ag1  1  0.11341530  0.43221647  0.87622768  1  0  0.660756  0  1.406565  0  0  0.542723  0  1.858352  0  0  0.569238  0  1.80857  0  0  0.496698  0.5244  0  1.89302  0
Ag  Ag2  1  0.11346395  0.93222488  0.62377616  1  0  0.660722  0  1.406685  0  0  0.542699  0  1.858439  0  0  0.569213  0  1.808654  0  0  0.496678  0.524379  0  1.893106  0
Ag  Ag3  1  0.88655076  0.56778142  0.12377677  1  0  0.660691  0  1.406378  0  0  0.542715  0  1.858096  0  0  0.569228  0  1.808315  0  0  0.496648  0.524392  0  1.892766  0
H  H4  1  0.66467980  0.10474680  0.15908264  1  0  0.144207  0  0.96467  0  0  0.159666  0  1.028496  0  0  0.163564  0  1.025643  0  0  0.095326  0.156842  0  1.030575  0
H  H5  1  0.33534026  0.39524506  0.65908315  1  0  0.144156  0  0.964746  0  0  0.159663  0  1.028508  0  0  0.163547  0  1.025667  0  0  0.095328  0.156842  0  1.030592  0
H  H6  1  0.33532210  0.89524723  0.84091436  1  0  0.144201  0  0.964714  0  0  0.159677  0  1.028517  0  0  0.163566  0  1.02567  0  0  0.095329  0.15685  0  1.030611  0
H  H7  1  0.66467910  0.60475608  0.34091310  1  0  0.144112  0  0.964797  0  0  0.159628  0  1.028558  0  0  0.163509  0  1.02572  0  0  0.095307  0.156803  0  1.030651  0
H  H8  1  0.26797022  0.13369009  0.09850691  1  0  0.132382  0  0.944771  0  0  0.154123  0  1.003936  0  0  0.155933  0  1.003913  0  0  0.09867  0.152777  0  1.00404  0
H  H9  1  0.73202515  0.36630748  0.59850326  1  0  0.132472  0  0.944955  0  0  0.154215  0  1.004083  0  0  0.156025  0  1.004058  0  0  0.098701  0.15287  0  1.004192  0
H  H10  1  0.73201648  0.86630626  0.90148860  1  0  0.132403  0  0.94488  0  0  0.15417  0  1.004001  0  0  0.155981  0  1.003977  0  0  0.09868  0.152827  0  1.004099  0
H  H11  1  0.26796812  0.63369439  0.40149225  1  0  0.132465  0  0.944873  0  0  0.154224  0  1.003992  0  0  0.156035  0  1.003967  0  0  0.098739  0.15288  0  1.004098  0
H  H12  1  0.65154173  0.21869908  0.07996021  1  0  0.12863  0  0.964097  0  0  0.151462  0  1.019877  0  0  0.15232  0  1.021838  0  0  0.094077  0.150864  0  1.018497  0
H  H13  1  0.34847128  0.28130278  0.57996375  1  0  0.12864  0  0.964175  0  0  0.151472  0  1.01994  0  0  0.152329  0  1.021903  0  0  0.094106  0.150877  0  1.018561  0
H  H14  1  0.34845172  0.78130358  0.92003679  1  0  0.128626  0  0.964144  0  0  0.151458  0  1.01992  0  0  0.152312  0  1.021886  0  0  0.094071  0.15086  0  1.018541  0
H  H15  1  0.65153831  0.71870148  0.42003995  1  0  0.128602  0  0.964193  0  0  0.151439  0  1.019958  0  0  0.152298  0  1.02192  0  0  0.094093  0.150843  0  1.01858  0
H  H16  1  0.06389865  0.43808816  0.43279929  1  0  0.117188  0  0.950905  0  0  0.137355  0  1.010951  0  0  0.139348  0  1.009788  0  0  0.092582  0.135891  0  1.011832  0
H  H17  1  0.93614048  0.06190530  0.93279835  1  0  0.11721  0  0.950821  0  0  0.137339  0  1.01091  0  0  0.139331  0  1.00975  0  0  0.092573  0.135876  0  1.011785  0
H  H18  1  0.93613290  0.56190907  0.56720515  1  0  0.117211  0  0.950817  0  0  0.137355  0  1.010896  0  0  0.139347  0  1.009737  0  0  0.092565  0.135893  0  1.011775  0
H  H19  1  0.06388581  0.93809192  0.06719791  1  0  0.117152  0  0.950778  0  0  0.137277  0  1.010909  0  0  0.139273  0  1.009743  0  0  0.092554  0.135813  0  1.011786  0
H  H20  1  0.01575861  0.29879997  0.40797000  1  0  0.1372  0  0.957795  0  0  0.154689  0  1.024919  0  0  0.157208  0  1.023536  0  0  0.098764  0.152887  0  1.025958  0
H  H21  1  0.98427785  0.20119942  0.90795798  1  0  0.137265  0  0.95778  0  0  0.154802  0  1.024846  0  0  0.157326  0  1.023458  0  0  0.098772  0.152999  0  1.025886  0
H  H22  1  0.98426562  0.70119961  0.59203966  1  0  0.137286  0  0.957803  0  0  0.154794  0  1.024887  0  0  0.157314  0  1.023504  0  0  0.098769  0.152991  0  1.025926  0
H  H23  1  0.01574432  0.79880251  0.09203381  1  0  0.1372  0  0.957793  0  0  0.154732  0  1.024876  0  0  0.157254  0  1.023491  0  0  0.098794  0.152928  0  1.025916  0
H  H24  1  0.43733507  0.36409984  0.40863882  1  0  0.137827  0  0.952385  0  0  0.161973  0  1.006264  0  0  0.163366  0  1.006853  0  0  0.102347  0.160974  0  1.005872  0
H  H25  1  0.56269348  0.13589952  0.90864578  1  0  0.137708  0  0.952439  0  0  0.161809  0  1.006376  0  0  0.163199  0  1.006971  0  0  0.102276  0.16081  0  1.005985  0
H  H26  1  0.56268428  0.63590130  0.59134924  1  0  0.137779  0  0.952395  0  0  0.161953  0  1.00623  0  0  0.163348  0  1.006816  0  0  0.102335  0.160954  0  1.00584  0
H  H27  1  0.43733413  0.86410321  0.09135122  1  0  0.137854  0  0.952325  0  0  0.161979  0  1.006215  0  0  0.163372  0  1.006806  0  0  0.102374  0.160978  0  1.005823  0
C  C28  1  0.40411824  0.23098566  0.22441873  1  0  0.517156  0  3.727895  0  0  0.498576  0  3.993288  0  0  0.523803  0  4.000035  0  0  0.139563  0.481531  0  3.988121  0
C  C29  1  0.59586977  0.26900579  0.72442071  1  0  0.517204  0  3.72761  0  0  0.498608  0  3.993009  0  0  0.523837  0  3.99975  0  0  0.139597  0.48156  0  3.98785  0
C  C30  1  0.59583805  0.76900434  0.77557827  1  0  0.516992  0  3.727739  0  0  0.498503  0  3.993027  0  0  0.523704  0  3.999763  0  0  0.139543  0.481459  0  3.987861  0
C  C31  1  0.40414470  0.73099691  0.27558523  1  0  0.517105  0  3.72781  0  0  0.498599  0  3.993067  0  0  0.523812  0  3.999823  0  0  0.13963  0.481553  0  3.987905  0
C  C32  1  0.24680947  0.32932356  0.20606437  1  0  -0.365309  0  3.796677  0  0  -0.34565  0  4.042175  0  0  -0.371581  0  4.064664  0  0  -0.067323  -0.328229  0  4.026829  0
C  C33  1  0.75320331  0.17066905  0.70605668  1  0  -0.365384  0  3.796845  0  0  -0.345743  0  4.042398  0  0  -0.37168  0  4.064889  0  0  -0.067404  -0.328322  0  4.027064  0
C  C34  1  0.75317535  0.67066493  0.79394231  1  0  -0.365309  0  3.796649  0  0  -0.345808  0  4.042334  0  0  -0.371653  0  4.064722  0  0  -0.067444  -0.328388  0  4.026999  0
C  C35  1  0.24680685  0.82933757  0.29393958  1  0  -0.365261  0  3.796614  0  0  -0.345699  0  4.042284  0  0  -0.371608  0  4.064749  0  0  -0.067425  -0.328279  0  4.026947  0
C  C36  1  0.12459078  0.39839797  0.28084934  1  0  0.526721  0  3.706014  0  0  0.505884  0  3.969678  0  0  0.533721  0  3.973891  0  0  0.146293  0.487064  0  3.966164  0
C  C37  1  0.87541763  0.10160198  0.78084362  1  0  0.526542  0  3.705982  0  0  0.50568  0  3.969659  0  0  0.533522  0  3.973866  0  0  0.146231  0.486858  0  3.96616  0
C  C38  1  0.87539067  0.60159838  0.71915734  1  0  0.526635  0  3.705947  0  0  0.505762  0  3.969689  0  0  0.533571  0  3.97391  0  0  0.14626  0.486939  0  3.96619  0
C  C39  1  0.12459140  0.89839992  0.21915189  1  0  0.52666  0  3.706092  0  0  0.505748  0  3.9698  0  0  0.533589  0  3.974  0  0  0.146243  0.486924  0  3.966292  0
C  C40  1  0.50764914  0.16855798  0.13515160  1  0  -0.435057  0  3.657161  0  0  -0.511933  0  3.886362  0  0  -0.518638  0  3.891436  0  0  -0.25536  -0.50706  0  3.882736  0
C  C41  1  0.49236388  0.33144371  0.63514419  1  0  -0.435125  0  3.657204  0  0  -0.51203  0  3.886344  0  0  -0.518718  0  3.891427  0  0  -0.255447  -0.507153  0  3.882709  0
C  C42  1  0.49233906  0.83144467  0.86485284  1  0  -0.434979  0  3.657026  0  0  -0.511918  0  3.886199  0  0  -0.518615  0  3.891288  0  0  -0.255333  -0.507047  0  3.882573  0
C  C43  1  0.50764816  0.66855977  0.36485654  1  0  -0.434976  0  3.657258  0  0  -0.51191  0  3.886352  0  0  -0.518597  0  3.891447  0  0  -0.255398  -0.50703  0  3.882705  0
C  C44  1  0.16231985  0.37382287  0.38943725  1  0  -0.406606  0  3.665983  0  0  -0.484785  0  3.895329  0  0  -0.490764  0  3.899358  0  0  -0.244786  -0.480427  0  3.89237  0
C  C45  1  0.83770762  0.12617918  0.88944101  1  0  -0.40646  0  3.665755  0  0  -0.484605  0  3.895039  0  0  -0.490588  0  3.899065  0  0  -0.244677  -0.480249  0  3.892081  0
C  C46  1  0.83768731  0.62618218  0.61055678  1  0  -0.40658  0  3.665572  0  0  -0.484804  0  3.894947  0  0  -0.490786  0  3.898981  0  0  -0.244739  -0.480446  0  3.891993  0
C  C47  1  0.16232300  0.87382512  0.11056791  1  0  -0.406533  0  3.665832  0  0  -0.484668  0  3.895138  0  0  -0.490654  0  3.899167  0  0  -0.244773  -0.480308  0  3.892177  0
C  C48  1  0.20764604  0.35814562  0.10633624  1  0  0.338281  0  3.896859  0  0  0.313874  0  4.16954  0  0  0.333393  0  4.187426  0  0  0.186974  0.300337  0  4.157748  0
C  C49  1  0.79235681  0.14185183  0.60633326  1  0  0.338499  0  3.897226  0  0  0.314079  0  4.169875  0  0  0.333602  0  4.187754  0  0  0.187046  0.300535  0  4.158107  0
C  C50  1  0.79233784  0.64184994  0.89366969  1  0  0.33856  0  3.897349  0  0  0.314189  0  4.170005  0  0  0.333685  0  4.187861  0  0  0.187162  0.300651  0  4.158223  0
C  C51  1  0.20764491  0.85815242  0.39366597  1  0  0.338469  0  3.896807  0  0  0.314059  0  4.169469  0  0  0.333577  0  4.18734  0  0  0.187079  0.300517  0  4.157697  0
N  N52  1  0.17595600  0.37917386  0.02198677  1  0  -0.50454  0  3.056526  0  0  -0.448285  0  3.390764  0  0  -0.468009  0  3.389505  0  0  -0.382652  -0.435053  0  3.391874  0
N  N53  1  0.82397308  0.12081703  0.52198917  1  0  -0.50464  0  3.056756  0  0  -0.448395  0  3.39096  0  0  -0.468117  0  3.389696  0  0  -0.382636  -0.435164  0  3.392086  0
N  N54  1  0.82396201  0.62082078  0.97800799  1  0  -0.504743  0  3.056988  0  0  -0.4485  0  3.391185  0  0  -0.468221  0  3.389922  0  0  -0.382739  -0.435268  0  3.392304  0
N  N55  1  0.17601025  0.87918718  0.47801527  1  0  -0.504677  0  3.056493  0  0  -0.448424  0  3.390723  0  0  -0.468149  0  3.389463  0  0  -0.382692  -0.435194  0  3.39185  0
O  O56  1  0.44602627  0.19635678  0.31082630  1  0  -0.567166  0  2.043  0  0  -0.505341  0  2.307296  0  0  -0.529421  0  2.298148  0  0  -0.297133  -0.488689  0  2.313331  0
O  O57  1  0.55397461  0.30363950  0.81082796  1  0  -0.567225  0  2.04321  0  0  -0.505305  0  2.307429  0  0  -0.529387  0  2.298281  0  0  -0.297086  -0.488654  0  2.313466  0
O  O58  1  0.55395987  0.80363722  0.68916996  1  0  -0.567167  0  2.043247  0  0  -0.505249  0  2.307357  0  0  -0.529333  0  2.298218  0  0  -0.297108  -0.4886  0  2.313391  0
O  O59  1  0.44603668  0.69637184  0.18917648  1  0  -0.567206  0  2.043203  0  0  -0.505372  0  2.307442  0  0  -0.529451  0  2.298305  0  0  -0.297174  -0.48872  0  2.313475  0
O  O60  1  0.97838025  0.48183996  0.26023847  1  0  -0.561573  0  2.116256  0  0  -0.484311  0  2.379345  0  0  -0.513457  0  2.37142  0  0  -0.304023  -0.464099  0  2.384273  0
O  O61  1  0.02165379  0.01816433  0.76023658  1  0  -0.561591  0  2.116318  0  0  -0.4843  0  2.379411  0  0  -0.51345  0  2.371484  0  0  -0.304041  -0.464062  0  2.384279  0
O  O62  1  0.02163441  0.51816353  0.73976448  1  0  -0.561652  0  2.116457  0  0  -0.484304  0  2.379521  0  0  -0.513463  0  2.371623  0  0  -0.304002  -0.46408  0  2.384423  0
O  O63  1  0.97835862  0.98184072  0.23976042  1  0  -0.561701  0  2.116252  0  0  -0.484315  0  2.379261  0  0  -0.513479  0  2.371348  0  0  -0.304018  -0.464089  0  2.384151  0
