# generated using pymatgen
data_Zn2P2H16C13(NO3)2
_symmetry_space_group_name_H-M   'P 1'
_cell_length_a   8.56331889
_cell_length_b   9.66458466
_cell_length_c   23.62424034
_cell_angle_alpha   90.00004197
_cell_angle_beta   90.00006722
_cell_angle_gamma   89.99986743
_symmetry_Int_Tables_number   1
_chemical_formula_structural   Zn2P2H16C13(NO3)2
_chemical_formula_sum   'Zn8 P8 H64 C52 N8 O24'
_cell_volume   1955.16387291
_cell_formula_units_Z   4
loop_
 _symmetry_equiv_pos_site_id
 _symmetry_equiv_pos_as_xyz
  1  'x, y, z'
loop_
 _atom_site_type_symbol
 _atom_site_label
 _atom_site_symmetry_multiplicity
 _atom_site_fract_x
 _atom_site_fract_y
 _atom_site_fract_z
 _atom_site_occupancy
 _atom_site_pbe_bader_charge
 _atom_site_pbe_bader_spin_density
 _atom_site_pbe_cm5_charge
 _atom_site_pbe_ddec_charge
 _atom_site_pbe_ddec_spin_density
 _atom_site_pbe_ddec_sum_bond_order
 _atom_site_pbe_magmom
Zn  Zn0  1  0.22474485  0.40085136  0.46711566  1  1.303656  0  0.708829  0.934771  0  2.369274  0
Zn  Zn1  1  0.22474339  0.09914840  0.03288408  1  1.303684  0  0.708811  0.934807  0  2.36922  0
Zn  Zn2  1  0.27525499  0.59914689  0.96711611  1  1.303679  0  0.708813  0.934759  0  2.369243  0
Zn  Zn3  1  0.27525508  0.90085320  0.53288336  1  1.303626  0  0.708854  0.934854  0  2.369251  0
Zn  Zn4  1  0.77525438  0.59914702  0.53288342  1  1.303642  0  0.708826  0.934798  0  2.36925  0
Zn  Zn5  1  0.77525583  0.90085205  0.96711627  1  1.303661  0  0.708841  0.934831  0  2.369179  0
Zn  Zn6  1  0.72474540  0.40085252  0.03288424  1  1.303649  0  0.708846  0.934826  0  2.369225  0
Zn  Zn7  1  0.72474414  0.09914725  0.46711615  1  1.303626  0  0.708833  0.934794  0  2.369254  0
P  P8  1  0.12920467  0.60319755  0.56470399  1  3.362125  0  0.262772  1.206587  0  5.543497  0
P  P9  1  0.12920604  0.89680388  0.93529542  1  3.362102  0  0.262744  1.206537  0  5.543587  0
P  P10  1  0.37079507  0.39680307  0.06470444  1  3.362119  0  0.262729  1.206532  0  5.543566  0
P  P11  1  0.37079370  0.10319535  0.43529494  1  3.362099  0  0.26276  1.20653  0  5.543521  0
P  P12  1  0.87079455  0.39680601  0.43529509  1  3.361843  0  0.262789  1.206677  0  5.543386  0
P  P13  1  0.87079435  0.10319450  0.06470536  1  3.361828  0  0.262755  1.206567  0  5.543523  0
P  P14  1  0.62920532  0.60319530  0.93529464  1  3.361847  0  0.262771  1.206616  0  5.543441  0
P  P15  1  0.62920552  0.89680406  0.56470456  1  3.362099  0  0.262762  1.206591  0  5.543531  0
H  H16  1  0.21473582  0.62073473  0.61554713  1  -0.458052  0  0.069743  -0.137609  0  0.994208  0
H  H17  1  0.21473824  0.87926238  0.88445401  1  -0.458065  0  0.069768  -0.137582  0  0.994217  0
H  H18  1  0.28526291  0.37926288  0.11554669  1  -0.458059  0  0.069746  -0.137608  0  0.994216  0
H  H19  1  0.28526134  0.12073676  0.38445223  1  -0.458095  0  0.069739  -0.137589  0  0.994168  0
H  H20  1  0.78526223  0.37926675  0.38445153  1  -0.457834  0  0.069716  -0.137618  0  0.994191  0
H  H21  1  0.78526215  0.12073600  0.11554761  1  -0.457834  0  0.069742  -0.13761  0  0.994184  0
H  H22  1  0.71473748  0.62073653  0.88445197  1  -0.457836  0  0.069742  -0.137625  0  0.994198  0
H  H23  1  0.71473672  0.87926162  0.61554727  1  -0.458077  0  0.069749  -0.137613  0  0.994216  0
H  H24  1  0.58685616  0.79980445  0.40381006  1  0.137309  0  0.114494  0.132772  0  0.992103  0
H  H25  1  0.58685114  0.70019202  0.09618787  1  0.137237  0  0.114546  0.132927  0  0.992198  0
H  H26  1  0.91314828  0.20019163  0.90381173  1  0.137261  0  0.114506  0.132871  0  0.992114  0
H  H27  1  0.91314299  0.29981074  0.59618957  1  0.137241  0  0.114564  0.132871  0  0.992016  0
H  H28  1  0.41314773  0.20019186  0.59619114  1  0.137283  0  0.11454  0.132864  0  0.992048  0
H  H29  1  0.41314341  0.29980636  0.90381290  1  0.137228  0  0.114564  0.132961  0  0.992131  0
H  H30  1  0.08685445  0.79980571  0.09618820  1  0.137254  0  0.114533  0.132876  0  0.9922  0
H  H31  1  0.08685740  0.70019488  0.40381078  1  0.137295  0  0.114493  0.132771  0  0.992094  0
H  H32  1  0.40086311  0.68091081  0.46803640  1  0.147412  0  0.120978  0.099112  0  1.027503  0
H  H33  1  0.40085758  0.81909121  0.03196272  1  0.14741  0  0.120975  0.099082  0  1.027447  0
H  H34  1  0.09914257  0.31908951  0.96803670  1  0.147423  0  0.120989  0.099113  0  1.027412  0
H  H35  1  0.09913506  0.18091246  0.53196297  1  0.147373  0  0.120986  0.099078  0  1.027599  0
H  H36  1  0.59913728  0.31908757  0.53196480  1  0.1474  0  0.121  0.099134  0  1.02756  0
H  H37  1  0.59913814  0.18091131  0.96803890  1  0.147355  0  0.120989  0.099085  0  1.027483  0
H  H38  1  0.90086133  0.68090990  0.03196196  1  0.147394  0  0.120993  0.099105  0  1.027481  0
H  H39  1  0.90086533  0.81909110  0.46803738  1  0.147397  0  0.120992  0.09912  0  1.02753  0
H  H40  1  0.37152313  0.33972278  0.36208669  1  0.118874  0  0.117431  0.083725  0  1.013236  0
H  H41  1  0.37152885  0.16027254  0.13791396  1  0.119274  0  0.117463  0.083747  0  1.013371  0
H  H42  1  0.12847054  0.66027839  0.86208753  1  0.119221  0  0.117479  0.083783  0  1.013444  0
H  H43  1  0.12847579  0.83972407  0.63791230  1  0.118936  0  0.117422  0.083668  0  1.01324  0
H  H44  1  0.62847726  0.66027353  0.63791366  1  0.118898  0  0.117469  0.083769  0  1.013303  0
H  H45  1  0.62847504  0.83972998  0.86208682  1  0.11893  0  0.117473  0.083808  0  1.013359  0
H  H46  1  0.87153569  0.33972620  0.13791198  1  0.119234  0  0.117416  0.08365  0  1.013398  0
H  H47  1  0.87152226  0.16027638  0.36208678  1  0.1189  0  0.117446  0.083725  0  1.013219  0
H  H48  1  0.55787120  0.44347452  0.29337470  1  0.063013  0  0.108579  0.116984  0  0.984084  0
H  H49  1  0.55787390  0.05652041  0.20662688  1  0.06304  0  0.108595  0.117002  0  0.984033  0
H  H50  1  0.94212005  0.55652239  0.79337522  1  0.06303  0  0.108566  0.116954  0  0.984096  0
H  H51  1  0.94212992  0.94347841  0.70662412  1  0.063081  0  0.108585  0.116976  0  0.984103  0
H  H52  1  0.44212919  0.55652282  0.70662480  1  0.063037  0  0.108567  0.116981  0  0.984116  0
H  H53  1  0.44212649  0.94347900  0.79337432  1  0.063056  0  0.108604  0.117029  0  0.984019  0
H  H54  1  0.05788034  0.44347703  0.20662556  1  0.063046  0  0.10859  0.117005  0  0.983976  0
H  H55  1  0.05786930  0.05652204  0.29337453  1  0.063049  0  0.108575  0.116991  0  0.984123  0
H  H56  1  0.78141980  0.61859718  0.28543928  1  0.050706  0  0.095457  0.095506  0  0.986972  0
H  H57  1  0.78141701  0.88139372  0.21455873  1  0.050813  0  0.09549  0.095547  0  0.987048  0
H  H58  1  0.71857843  0.38139248  0.78544092  1  0.050794  0  0.095474  0.095529  0  0.987033  0
H  H59  1  0.71858100  0.11859788  0.71455987  1  0.050733  0  0.0955  0.095566  0  0.98695  0
H  H60  1  0.21858410  0.38139913  0.71455980  1  0.050766  0  0.095479  0.095542  0  0.98698  0
H  H61  1  0.21858222  0.11860466  0.78544119  1  0.050803  0  0.095474  0.095508  0  0.987063  0
H  H62  1  0.28141962  0.61860694  0.21455901  1  0.050804  0  0.09548  0.095536  0  0.987036  0
H  H63  1  0.28141822  0.88139843  0.28543963  1  0.050765  0  0.095481  0.095544  0  0.986983  0
H  H64  1  0.76343712  0.78123122  0.31960929  1  0.049019  0  0.095729  0.099188  0  1.003709  0
H  H65  1  0.76343348  0.71876178  0.18038999  1  0.048945  0  0.095755  0.099242  0  1.003678  0
H  H66  1  0.73656472  0.21876263  0.81961004  1  0.04896  0  0.095732  0.099198  0  1.003718  0
H  H67  1  0.73656091  0.28123493  0.68039160  1  0.048992  0  0.095709  0.099169  0  1.003708  0
H  H68  1  0.23656327  0.21876819  0.68039106  1  0.04903  0  0.095737  0.09921  0  1.00369  0
H  H69  1  0.23656457  0.28123660  0.81961036  1  0.04895  0  0.095757  0.099233  0  1.003694  0
H  H70  1  0.26343217  0.78123885  0.18038989  1  0.048955  0  0.095754  0.099246  0  1.003659  0
H  H71  1  0.26343480  0.71876656  0.31960832  1  0.049022  0  0.095734  0.099186  0  1.003715  0
H  H72  1  0.52360005  0.83310535  0.26520749  1  0.023664  0  0.090005  0.078627  0  1.007163  0
H  H73  1  0.52359789  0.66688918  0.23479168  1  0.023578  0  0.090035  0.078643  0  1.007073  0
H  H74  1  0.97640045  0.16688737  0.76520834  1  0.023582  0  0.090036  0.078649  0  1.007042  0
H  H75  1  0.97639902  0.33310556  0.73479341  1  0.023687  0  0.090008  0.078642  0  1.00713  0
H  H76  1  0.47639917  0.16689406  0.73479328  1  0.023668  0  0.089998  0.078629  0  1.007147  0
H  H77  1  0.47640017  0.33311127  0.76520867  1  0.023591  0  0.090038  0.078657  0  1.007068  0
H  H78  1  0.02359644  0.83311101  0.23479201  1  0.02358  0  0.090033  0.078648  0  1.007056  0
H  H79  1  0.02359904  0.66689282  0.26520694  1  0.023651  0  0.090004  0.078617  0  1.007214  0
C  C80  1  0.54326337  0.69760454  0.39247845  1  -0.013952  0  -0.070775  -0.14938  0  3.874296  0
C  C81  1  0.54326395  0.80238891  0.10751988  1  -0.013946  0  -0.070867  -0.149837  0  3.874308  0
C  C82  1  0.95673520  0.30239256  0.89247975  1  -0.013811  0  -0.070838  -0.149705  0  3.874088  0
C  C83  1  0.95673722  0.19760766  0.60752157  1  -0.013729  0  -0.070859  -0.149589  0  3.874355  0
C  C84  1  0.45673702  0.30239281  0.60752190  1  -0.013702  0  -0.070869  -0.149619  0  3.874308  0
C  C85  1  0.45673177  0.19760947  0.89248089  1  -0.013821  0  -0.070925  -0.149936  0  3.87413  0
C  C86  1  0.04326519  0.69760789  0.10751849  1  -0.013854  0  -0.070775  -0.149615  0  3.874138  0
C  C87  1  0.04326317  0.80239590  0.39247962  1  -0.013974  0  -0.070736  -0.149374  0  3.874315  0
C  C88  1  0.43924543  0.63212230  0.42896425  1  0.463185  0  0.060226  0.121025  0  3.896879  0
C  C89  1  0.43924106  0.86788275  0.07103658  1  0.463757  0  0.060319  0.121321  0  3.896885  0
C  C90  1  0.06075662  0.36788210  0.92896285  1  0.463247  0  0.060302  0.121254  0  3.896926  0
C  C91  1  0.06074937  0.13212720  0.57103427  1  0.462941  0  0.060228  0.121187  0  3.896872  0
C  C92  1  0.56075613  0.36787505  0.57103526  1  0.462901  0  0.060253  0.121168  0  3.896876  0
C  C93  1  0.56075700  0.13211874  0.92896462  1  0.463262  0  0.06036  0.121421  0  3.89683  0
C  C94  1  0.93924727  0.63211732  0.07103581  1  0.463212  0  0.060229  0.121157  0  3.897081  0
C  C95  1  0.93924752  0.86787739  0.42896481  1  0.463151  0  0.060156  0.120995  0  3.896977  0
C  C96  1  0.42183411  0.44168676  0.36948294  1  0.487708  0  0.044979  0.098498  0  3.972237  0
C  C97  1  0.42183541  0.05831466  0.13051901  1  0.48732  0  0.044994  0.098563  0  3.972067  0
C  C98  1  0.07816659  0.55831856  0.86948160  1  0.487069  0  0.044892  0.098345  0  3.972316  0
C  C99  1  0.07816571  0.94169332  0.63051651  1  0.487965  0  0.045076  0.098694  0  3.972521  0
C  C100  1  0.57816861  0.55831265  0.63051657  1  0.4877  0  0.044912  0.098448  0  3.972349  0
C  C101  1  0.57816732  0.94168682  0.86948219  1  0.487617  0  0.044886  0.098349  0  3.972299  0
C  C102  1  0.92184198  0.44168500  0.13051833  1  0.487092  0  0.045007  0.098614  0  3.972141  0
C  C103  1  0.92183468  0.05831023  0.36948257  1  0.487681  0  0.045022  0.098593  0  3.972406  0
C  C104  1  0.52566521  0.50025924  0.33156641  1  -0.082656  0  -0.089015  -0.201628  0  3.986624  0
C  C105  1  0.52566781  0.99973115  0.16843488  1  -0.082716  0  -0.089103  -0.201772  0  3.986779  0
C  C106  1  0.97433199  0.49973464  0.83156650  1  -0.082728  0  -0.089048  -0.201575  0  3.986932  0
C  C107  1  0.97433473  0.00026036  0.66843229  1  -0.082648  0  -0.089087  -0.201695  0  3.986746  0
C  C108  1  0.47433751  0.49973707  0.66843479  1  -0.082659  0  -0.089011  -0.201669  0  3.986618  0
C  C109  1  0.47433258  0.00026723  0.83156631  1  -0.082724  0  -0.089087  -0.201722  0  3.986768  0
C  C110  1  0.02566840  0.50026788  0.16843258  1  -0.082707  0  -0.089082  -0.201698  0  3.986756  0
C  C111  1  0.02566333  0.99973905  0.33156679  1  -0.082656  0  -0.089112  -0.201805  0  3.986917  0
C  C112  1  0.58963909  0.63110392  0.34278458  1  0.019837  0  0.01739  0.168062  0  3.948096  0
C  C113  1  0.58963849  0.86889668  0.15721632  1  0.019837  0  0.01745  0.168326  0  3.948022  0
C  C114  1  0.91035932  0.36890240  0.84278249  1  0.019818  0  0.017432  0.168155  0  3.948156  0
C  C115  1  0.91036168  0.13110826  0.65721543  1  0.019805  0  0.017425  0.168198  0  3.947899  0
C  C116  1  0.41036597  0.36889550  0.65721577  1  0.0198  0  0.017439  0.168211  0  3.947972  0
C  C117  1  0.41035840  0.13109963  0.84278319  1  0.019839  0  0.017458  0.168295  0  3.947892  0
C  C118  1  0.08964107  0.63110219  0.15721744  1  0.019834  0  0.017415  0.168182  0  3.947892  0
C  C119  1  0.08963754  0.86889323  0.34278493  1  0.019861  0  0.01742  0.168165  0  3.947983  0
C  C120  1  0.69681934  0.69642887  0.30024441  1  -0.049918  0  -0.156145  -0.200782  0  3.94173  0
C  C121  1  0.69681904  0.80356220  0.19975442  1  -0.050054  0  -0.156191  -0.200888  0  3.941776  0
C  C122  1  0.80318010  0.30356599  0.80024648  1  -0.050005  0  -0.156134  -0.200755  0  3.941765  0
C  C123  1  0.80318125  0.19643144  0.69975562  1  -0.049893  0  -0.156151  -0.200865  0  3.941768  0
C  C124  1  0.30318338  0.30356744  0.69975637  1  -0.049984  0  -0.156167  -0.200848  0  3.941738  0
C  C125  1  0.30318018  0.19643618  0.80024593  1  -0.050063  0  -0.156159  -0.200799  0  3.941768  0
C  C126  1  0.19681795  0.69643653  0.19975429  1  -0.050052  0  -0.156175  -0.200852  0  3.94186  0
C  C127  1  0.19681680  0.80356798  0.30024389  1  -0.049966  0  -0.156147  -0.200797  0  3.9418  0
C  C128  1  0.60090194  0.74999667  0.24999897  1  0.017391  0  -0.156874  -0.124926  0  3.922853  0
C  C129  1  0.89909734  0.24999706  0.75000107  1  0.017337  0  -0.156872  -0.124927  0  3.922727  0
C  C130  1  0.39909845  0.25000275  0.75000054  1  0.017418  0  -0.156869  -0.124947  0  3.922876  0
C  C131  1  0.10090071  0.75000235  0.24999970  1  0.017377  0  -0.156887  -0.124942  0  3.922928  0
N  N132  1  0.37923029  0.50623593  0.41773422  1  -1.284415  0  -0.331619  -0.26083  0  3.583235  0
N  N133  1  0.37923263  0.99376097  0.08226488  1  -1.284853  0  -0.331698  -0.261034  0  3.58333  0
N  N134  1  0.12076939  0.49375914  0.91773628  1  -1.284185  0  -0.331631  -0.260913  0  3.58332  0
N  N135  1  0.12076950  0.00623762  0.58226468  1  -1.284653  0  -0.33168  -0.261069  0  3.583381  0
N  N136  1  0.62077010  0.49376142  0.58226570  1  -1.284374  0  -0.33164  -0.26095  0  3.583386  0
N  N137  1  0.62076892  0.00624155  0.91773631  1  -1.284392  0  -0.331664  -0.261006  0  3.583401  0
N  N138  1  0.87923684  0.50623821  0.08226323  1  -1.284154  0  -0.331659  -0.260977  0  3.583294  0
N  N139  1  0.87923089  0.99376387  0.41773525  1  -1.28437  0  -0.331592  -0.260833  0  3.583165  0
O  O140  1  0.17314924  0.45844320  0.54296698  1  -1.443316  0  -0.388733  -0.724082  0  2.376196  0
O  O141  1  0.17314810  0.04156172  0.95703103  1  -1.443358  0  -0.388721  -0.724068  0  2.376228  0
O  O142  1  0.32685044  0.54156152  0.04296873  1  -1.443349  0  -0.388684  -0.724024  0  2.37624  0
O  O143  1  0.32685054  0.95843651  0.45702993  1  -1.443338  0  -0.388736  -0.724094  0  2.376219  0
O  O144  1  0.82685349  0.54156346  0.45703041  1  -1.443334  0  -0.388733  -0.724133  0  2.376315  0
O  O145  1  0.82684996  0.95843873  0.04296975  1  -1.443333  0  -0.38873  -0.724065  0  2.376266  0
O  O146  1  0.67314995  0.45843893  0.95703078  1  -1.443308  0  -0.388724  -0.724085  0  2.37621  0
O  O147  1  0.67315102  0.04156083  0.54296957  1  -1.443325  0  -0.38873  -0.724076  0  2.376224  0
O  O148  1  0.18108038  0.71685573  0.52324321  1  -1.453614  0  -0.387537  -0.74278  0  2.385244  0
O  O149  1  0.18107983  0.78314663  0.97675791  1  -1.453619  0  -0.387536  -0.742784  0  2.38519  0
O  O150  1  0.31892157  0.28314689  0.02324234  1  -1.453623  0  -0.387528  -0.742787  0  2.385207  0
O  O151  1  0.31892120  0.21685165  0.47675660  1  -1.453567  0  -0.387553  -0.742792  0  2.385242  0
O  O152  1  0.81891651  0.28314783  0.47675545  1  -1.453542  0  -0.387562  -0.742891  0  2.385263  0
O  O153  1  0.81892056  0.21685175  0.02324329  1  -1.453548  0  -0.387555  -0.742819  0  2.38519  0
O  O154  1  0.68107882  0.71685253  0.97675632  1  -1.453553  0  -0.387547  -0.742825  0  2.385225  0
O  O155  1  0.68107919  0.78314673  0.52324333  1  -1.45358  0  -0.387547  -0.742817  0  2.385241  0
O  O156  1  0.95752956  0.61442844  0.58328805  1  -1.449183  0  -0.404387  -0.75531  0  2.332437  0
O  O157  1  0.95753089  0.88557129  0.91671214  1  -1.449162  0  -0.404375  -0.755277  0  2.332528  0
O  O158  1  0.54247037  0.38557222  0.08328793  1  -1.449193  0  -0.404377  -0.755292  0  2.332476  0
O  O159  1  0.54246775  0.11442689  0.41671152  1  -1.449159  0  -0.404359  -0.755284  0  2.332557  0
O  O160  1  0.04246966  0.38556994  0.41671145  1  -1.449194  0  -0.404353  -0.755296  0  2.332381  0
O  O161  1  0.04246833  0.11442709  0.08328863  1  -1.449171  0  -0.404347  -0.755293  0  2.332493  0
O  O162  1  0.45753002  0.61442719  0.91671115  1  -1.4492  0  -0.404374  -0.7553  0  2.332445  0
O  O163  1  0.45753147  0.88557356  0.58328840  1  -1.449159  0  -0.404373  -0.755318  0  2.332518  0
