# generated using pymatgen
data_VH8(C2O)5
_symmetry_space_group_name_H-M   'P 1'
_cell_length_a   6.76314286
_cell_length_b   12.18405144
_cell_length_c   17.55095761
_cell_angle_alpha   89.99946784
_cell_angle_beta   90.00010302
_cell_angle_gamma   90.00064139
_symmetry_Int_Tables_number   1
_chemical_formula_structural   VH8(C2O)5
_chemical_formula_sum   'V4 H32 C40 O20'
_cell_volume   1446.24244135
_cell_formula_units_Z   4
loop_
 _symmetry_equiv_pos_site_id
 _symmetry_equiv_pos_as_xyz
  1  'x, y, z'
loop_
 _atom_site_type_symbol
 _atom_site_label
 _atom_site_symmetry_multiplicity
 _atom_site_fract_x
 _atom_site_fract_y
 _atom_site_fract_z
 _atom_site_occupancy
 _atom_site_pbe_bader_charge
 _atom_site_pbe_bader_spin_density
 _atom_site_pbe_cm5_charge
 _atom_site_pbe_ddec_charge
 _atom_site_pbe_ddec_spin_density
 _atom_site_pbe_ddec_sum_bond_order
 _atom_site_pbe_magmom
V  V0  1  0.27375770  0.73362967  0.75000921  1  2.090188  -0.785316  1.414354  1.829528  -0.829609  3.001052  -0.797
V  V1  1  0.22623903  0.23360538  0.25000049  1  2.090393  0.784598  1.414606  1.829722  0.828898  3.001969  0.796
V  V2  1  0.72621099  0.26639354  0.25000340  1  2.089717  -0.784634  1.414712  1.829887  -0.828875  3.001717  -0.796
V  V3  1  0.77377697  0.76637925  0.74999674  1  2.089936  0.785266  1.41457  1.829599  0.829544  3.001385  0.797
H  H4  1  0.75828884  0.01846112  0.90181082  1  0.106176  -9.9e-05  0.108668  0.118916  -0.000208  0.99773  0.0
H  H5  1  0.21132006  0.76687474  0.96470563  1  0.075153  2.9e-05  0.094037  0.135376  7.1e-05  1.012676  0.0
H  H6  1  0.05994746  0.87610816  0.93486754  1  0.079372  -0.000146  0.098606  0.146576  -6.5e-05  0.990747  0.0
H  H7  1  0.08127388  0.84568347  0.03391737  1  0.011982  -0.000123  0.09145  0.125499  -8.5e-05  0.99688  0.0
H  H8  1  0.74170694  0.51845281  0.09819663  1  0.106107  9.9e-05  0.108671  0.118839  0.000208  0.997654  0.0
H  H9  1  0.28869199  0.26688743  0.03529132  1  0.075037  -2.9e-05  0.094119  0.135515  -7.1e-05  1.012752  0.0
H  H10  1  0.44005305  0.37612322  0.06513611  1  0.079435  0.000146  0.098666  0.146755  6.5e-05  0.990673  0.0
H  H11  1  0.41873354  0.34570854  0.96608648  1  0.011765  0.000123  0.091463  0.125584  8.5e-05  0.996878  0.0
H  H12  1  0.24168797  0.98154858  0.40181315  1  0.106197  -9.9e-05  0.108648  0.118792  -0.000208  0.997639  0.0
H  H13  1  0.78866445  0.23311606  0.46471546  1  0.075342  2.9e-05  0.094076  0.135489  7.1e-05  1.012704  0.0
H  H14  1  0.94004874  0.12389946  0.43486906  1  0.079662  -0.000146  0.098616  0.146643  -6.5e-05  0.9908  0.0
H  H15  1  0.91870707  0.15430158  0.53391540  1  0.011952  -0.000123  0.091421  0.125524  -8.5e-05  0.997017  0.0
H  H16  1  0.25828615  0.48155109  0.59818412  1  0.106266  9.9e-05  0.108692  0.118876  0.000208  0.997945  0.0
H  H17  1  0.71129488  0.73311155  0.53528774  1  0.075113  -2.9e-05  0.094101  0.135521  -7.1e-05  1.01268  0.0
H  H18  1  0.55994431  0.62387126  0.56513827  1  0.079356  0.000146  0.098656  0.146752  6.5e-05  0.990599  0.0
H  H19  1  0.58124359  0.65428307  0.46608261  1  0.011662  0.000123  0.091444  0.125552  8.5e-05  0.996872  0.0
H  H20  1  0.24172864  0.98154650  0.09818698  1  0.106455  -9.9e-05  0.108682  0.118892  -0.000208  0.997552  0.0
H  H21  1  0.78868411  0.23312631  0.03528647  1  0.074782  2.9e-05  0.094083  0.135424  7.1e-05  1.012718  0.0
H  H22  1  0.94006558  0.12389946  0.06512627  1  0.079488  -0.000146  0.098598  0.146578  -6.5e-05  0.990848  0.0
H  H23  1  0.91873178  0.15431594  0.96608271  1  0.011707  -0.000123  0.09145  0.125529  -8.5e-05  0.997081  0.0
H  H24  1  0.25824549  0.48156220  0.90182339  1  0.106665  9.9e-05  0.108787  0.118904  0.000208  0.997856  0.0
H  H25  1  0.71130183  0.73312921  0.96472072  1  0.074857  -2.9e-05  0.09406  0.135352  -7.1e-05  1.012745  0.0
H  H26  1  0.55993190  0.62390081  0.93487878  1  0.079608  0.000146  0.098609  0.146521  6.5e-05  0.990869  0.0
H  H27  1  0.58125289  0.65431631  0.03392728  1  0.011559  0.000123  0.091452  0.125485  8.5e-05  0.996841  0.0
H  H28  1  0.75827332  0.01844180  0.59817268  1  0.106421  -9.9e-05  0.108806  0.118996  -0.000208  0.99781  0.0
H  H29  1  0.21130276  0.76686940  0.53528063  1  0.074848  3e-05  0.094074  0.135415  7.1e-05  1.012649  0.0
H  H30  1  0.05990960  0.87608928  0.56511791  1  0.079806  -0.000146  0.098631  0.146545  -6.5e-05  0.990921  0.0
H  H31  1  0.08127049  0.84568142  0.46607100  1  0.01161  -0.000122  0.09145  0.125524  -8.5e-05  0.996846  0.0
H  H32  1  0.74171359  0.51842698  0.40181482  1  0.106262  9.9e-05  0.10868  0.118887  0.000208  0.997688  0.0
H  H33  1  0.28872704  0.26687719  0.46471575  1  0.074984  -2.9e-05  0.094056  0.135444  -7.1e-05  1.012769  0.0
H  H34  1  0.44007465  0.37611830  0.43486808  1  0.079409  0.000146  0.098637  0.146619  6.5e-05  0.990628  0.0
H  H35  1  0.41875763  0.34570813  0.53392088  1  0.01161  0.000123  0.091501  0.125554  8.5e-05  0.996962  0.0
C  C36  1  0.48620689  0.93988822  0.93231946  1  -0.011601  0.000895  -0.011964  -0.088372  0.000834  3.935784  0.001
C  C37  1  0.33503017  0.92722319  0.98745947  1  0.01262  0.000682  0.002237  0.159825  0.000619  3.940787  0.0
C  C38  1  0.64546708  0.01113526  0.94594572  1  -0.065984  0.000352  -0.084842  -0.161887  0.000333  3.951543  0.0
C  C39  1  0.48920334  0.87687273  0.85983588  1  1.510681  -0.000269  0.235298  0.633571  -0.000375  4.096078  0.0
C  C40  1  0.16252245  0.85000034  0.97986577  1  -0.0705  -0.000215  -0.239245  -0.410114  -8.9e-05  3.951737  0.0
C  C41  1  0.01381239  0.43990582  0.06768150  1  -0.01184  -0.00089  -0.011999  -0.088583  -0.000829  3.936061  -0.001
C  C42  1  0.16496821  0.42723773  0.01253531  1  0.008672  -0.000688  0.002324  0.160052  -0.000624  3.940945  0.0
C  C43  1  0.85453006  0.51114314  0.05405380  1  -0.065905  -0.000358  -0.084659  -0.161414  -0.000338  3.951552  0.0
C  C44  1  0.01081345  0.37687785  0.14015923  1  1.509018  0.000255  0.235115  0.633401  0.000357  4.095067  0.0
C  C45  1  0.33749686  0.35001196  0.02013292  1  -0.070069  0.000215  -0.23941  -0.410584  9e-05  3.951747  0.0
C  C46  1  0.51379816  0.06009399  0.43232055  1  -0.011709  0.000883  -0.01193  -0.088369  0.000823  3.936639  0.001
C  C47  1  0.66495445  0.07275828  0.48745829  1  0.008839  0.000694  0.002283  0.159838  0.00063  3.941202  0.0
C  C48  1  0.35453508  0.98886154  0.44594979  1  -0.065987  0.000365  -0.08478  -0.161589  0.000344  3.951684  0.0
C  C49  1  0.51079693  0.12311865  0.35983883  1  1.508896  -0.000244  0.235338  0.633476  -0.000347  4.094591  0.0
C  C50  1  0.83748284  0.14999519  0.47987048  1  -0.07083  -0.000216  -0.239302  -0.410342  -9e-05  3.951647  0.0
C  C51  1  0.98622343  0.56010504  0.56767580  1  -0.01223  -0.000891  -0.012016  -0.088596  -0.00083  3.936492  -0.001
C  C52  1  0.83505256  0.57276238  0.51254595  1  0.008907  -0.000687  0.002248  0.159879  -0.000623  3.941077  0.0
C  C53  1  0.14548056  0.48886134  0.55405313  1  -0.065749  -0.000357  -0.084681  -0.161473  -0.000337  3.952242  0.0
C  C54  1  0.98917245  0.62311892  0.64017250  1  1.510239  0.000264  0.235383  0.633743  0.000376  4.09607  0.0
C  C55  1  0.66250176  0.64997902  0.52013099  1  -0.069966  0.000215  -0.23936  -0.410524  8.9e-05  3.951582  0.0
C  C56  1  0.51381354  0.06011037  0.06767549  1  -0.011917  0.000882  -0.011978  -0.088274  0.000822  3.936456  0.001
C  C57  1  0.66496070  0.07277457  0.01253776  1  0.012966  0.000693  0.002191  0.159901  0.000629  3.94043  0.0
C  C58  1  0.35456814  0.98887482  0.05404753  1  -0.065673  0.000363  -0.084889  -0.161816  0.000343  3.951756  0.0
C  C59  1  0.51078901  0.12314145  0.14015851  1  1.509555  -0.000239  0.235153  0.633116  -0.000343  4.095559  0.0
C  C60  1  0.83751425  0.15000974  0.02012462  1  -0.070032  -0.000216  -0.239339  -0.410224  -9e-05  3.951452  0.0
C  C61  1  0.98619770  0.56011903  0.93233682  1  -0.011986  -0.00089  -0.011951  -0.088293  -0.000829  3.93603  -0.001
C  C62  1  0.83503744  0.57278056  0.98746591  1  0.01267  -0.000689  0.002084  0.159582  -0.000625  3.941183  0.0
C  C63  1  0.14544454  0.48888335  0.94595426  1  -0.061896  -0.000359  -0.085013  -0.161808  -0.000339  3.952485  0.0
C  C64  1  0.98918333  0.62314700  0.85984313  1  1.510986  0.000253  0.23535  0.633832  0.00036  4.095765  0.0
C  C65  1  0.66249992  0.65000469  0.97988026  1  -0.070032  0.000215  -0.239289  -0.410009  8.9e-05  3.951569  0.0
C  C66  1  0.48618827  0.93988819  0.56766757  1  -0.011919  0.000897  -0.011932  -0.08844  0.000836  3.935843  0.001
C  C67  1  0.33501719  0.92721979  0.51253837  1  0.012885  0.000684  0.002188  0.159903  0.000621  3.940743  0.0
C  C68  1  0.64546022  0.01112473  0.55404516  1  -0.06205  0.000354  -0.085038  -0.161844  0.000335  3.952105  0.0
C  C69  1  0.48917915  0.87686927  0.64015840  1  1.510957  -0.000254  0.235245  0.633653  -0.00036  4.095792  0.0
C  C70  1  0.16249472  0.84999273  0.52012391  1  -0.07039  -0.000215  -0.239313  -0.410177  -8.9e-05  3.951606  0.0
C  C71  1  0.01383545  0.43989519  0.43232143  1  -0.012  -0.000887  -0.011886  -0.088231  -0.000826  3.935646  -0.001
C  C72  1  0.16497971  0.42722554  0.48746780  1  0.013143  -0.000687  0.002012  0.15967  -0.000624  3.940745  0.0
C  C73  1  0.85455318  0.51111838  0.44595207  1  -0.061681  -0.000359  -0.084945  -0.161839  -0.000339  3.951683  0.0
C  C74  1  0.01081546  0.37685669  0.35983499  1  1.509197  0.000246  0.23518  0.633289  0.000348  4.094895  0.0
C  C75  1  0.33752755  0.35000069  0.47987308  1  -0.070075  0.000215  -0.239386  -0.410309  8.9e-05  3.951461  0.0
O  O76  1  0.32594900  0.84155975  0.83271149  1  -1.126026  0.001621  -0.339836  -0.572894  0.003052  2.372805  0.016
O  O77  1  0.65879145  0.86102498  0.82934705  1  -1.140788  0.000204  -0.353632  -0.609903  -0.001515  2.388217  -0.014
O  O78  1  0.17409531  0.34154520  0.16729638  1  -1.124858  -0.001664  -0.339876  -0.5729  -0.003097  2.372185  -0.016
O  O79  1  0.84118178  0.36102969  0.17066615  1  -1.140275  -0.00018  -0.353633  -0.610063  0.001535  2.387634  0.014
O  O80  1  0.67408958  0.15844759  0.33269666  1  -1.12476  0.001695  -0.339943  -0.572926  0.003105  2.371856  0.016
O  O81  1  0.34115396  0.13897255  0.32933668  1  -1.140118  0.000185  -0.353827  -0.610132  -0.001536  2.38769  -0.014
O  O82  1  0.82593065  0.65844135  0.66728766  1  -1.126015  -0.001616  -0.339847  -0.572841  -0.003048  2.37293  -0.016
O  O83  1  0.15879392  0.63896996  0.67064515  1  -1.140185  -0.000202  -0.353711  -0.610116  0.001514  2.388019  0.014
O  O84  1  0.67409066  0.15846264  0.16728688  1  -1.125179  0.00166  -0.339792  -0.572779  0.003098  2.372225  0.016
O  O85  1  0.34117428  0.13897361  0.17065873  1  -1.140598  0.000198  -0.353645  -0.609837  -0.001527  2.388124  -0.014
O  O86  1  0.82595027  0.65845338  0.83271396  1  -1.126086  -0.00165  -0.339873  -0.572967  -0.003069  2.372864  -0.016
O  O87  1  0.15877360  0.63900255  0.82935216  1  -1.140675  -0.000221  -0.353649  -0.610145  0.001503  2.388413  0.014
O  O88  1  0.32595156  0.84155674  0.66728690  1  -1.126057  0.001657  -0.339759  -0.572804  0.003077  2.372771  0.016
O  O89  1  0.65879550  0.86100798  0.67064574  1  -1.140695  0.000223  -0.353677  -0.610141  -0.0015  2.388015  -0.014
O  O90  1  0.17410754  0.34154246  0.33271185  1  -1.125051  -0.001666  -0.339799  -0.572801  -0.003102  2.372171  -0.016
O  O91  1  0.84117477  0.36100976  0.32934524  1  -1.140439  -0.000204  -0.353592  -0.60991  0.001519  2.387763  0.014
O  O92  1  0.50274406  0.68708360  0.75000032  1  -0.853043  0.062931  -0.615806  -0.782753  0.058368  1.813118  0.058
O  O93  1  0.99728107  0.18706872  0.24999406  1  -0.852911  -0.06288  -0.615845  -0.782788  -0.058323  1.813448  -0.058
O  O94  1  0.49727343  0.31293140  0.24999805  1  -0.852439  0.062865  -0.615953  -0.782776  0.058298  1.813754  0.058
O  O95  1  0.00273346  0.81292166  0.74999291  1  -0.852889  -0.062887  -0.615917  -0.782756  -0.05833  1.813655  -0.058
