# generated using pymatgen
data_CdH12C14NO5
_symmetry_space_group_name_H-M   'P 1'
_cell_length_a   9.35778661
_cell_length_b   10.11915329
_cell_length_c   9.97309679
_cell_angle_alpha   91.43983274
_cell_angle_beta   90.39871370
_cell_angle_gamma   122.78377839
_symmetry_Int_Tables_number   1
_chemical_formula_structural   CdH12C14NO5
_chemical_formula_sum   'Cd2 H24 C28 N2 O10'
_cell_volume   793.47181617
_cell_formula_units_Z   2
loop_
 _symmetry_equiv_pos_site_id
 _symmetry_equiv_pos_as_xyz
  1  'x, y, z'
loop_
 _atom_site_type_symbol
 _atom_site_label
 _atom_site_symmetry_multiplicity
 _atom_site_fract_x
 _atom_site_fract_y
 _atom_site_fract_z
 _atom_site_occupancy
 _atom_site_hle17_bader_spin_density
 _atom_site_hle17_ddec_charge
 _atom_site_hle17_ddec_spin_density
 _atom_site_hle17_ddec_sum_bond_order
 _atom_site_hle17_magmom
 _atom_site_hse06_10hf_bader_spin_density
 _atom_site_hse06_10hf_ddec_charge
 _atom_site_hse06_10hf_ddec_spin_density
 _atom_site_hse06_10hf_ddec_sum_bond_order
 _atom_site_hse06_10hf_magmom
 _atom_site_hse06_bader_spin_density
 _atom_site_hse06_ddec_charge
 _atom_site_hse06_ddec_spin_density
 _atom_site_hse06_ddec_sum_bond_order
 _atom_site_hse06_magmom
 _atom_site_pbe_bader_spin_density
 _atom_site_pbe_cm5_charge
 _atom_site_pbe_ddec_charge
 _atom_site_pbe_ddec_spin_density
 _atom_site_pbe_ddec_sum_bond_order
 _atom_site_pbe_magmom
Cd  Cd0  1  0.40586622  0.24360977  0.98332195  1  0  1.206882  0  1.573842  0  0  1.016492  0  2.02061  0  0  1.076086  0  1.963132  0  0  0.779883  0.973498  0  2.060493  0
Cd  Cd1  1  0.59412563  0.75637110  0.01667441  1  0  1.206943  0  1.573758  0  0  1.016535  0  2.020524  0  0  1.076125  0  1.963047  0  0  0.779888  0.973538  0  2.060409  0
H  H2  1  0.29711027  0.94022089  0.09100475  1  0  0.43018  0  0.873717  0  0  0.397325  0  0.941628  0  0  0.408565  0  0.925106  0  0  0.287143  0.389237  0  0.953527  0
H  H3  1  0.70287868  0.05977108  0.90899974  1  0  0.430114  0  0.873801  0  0  0.397263  0  0.94171  0  0  0.408503  0  0.92519  0  0  0.287122  0.389176  0  0.953608  0
H  H4  1  0.11455127  0.92108998  0.05709267  1  0  0.438915  0  0.857273  0  0  0.405453  0  0.923496  0  0  0.417237  0  0.906364  0  0  0.285857  0.397142  0  0.935595  0
H  H5  1  0.88543288  0.07889939  0.94292168  1  0  0.439051  0  0.857064  0  0  0.405542  0  0.923344  0  0  0.417325  0  0.906216  0  0  0.285922  0.397233  0  0.93544  0
H  H6  1  0.33285943  0.12259157  0.53231295  1  0  0.104097  0  0.937991  0  0  0.114282  0  0.994965  0  0  0.118132  0  0.992578  0  0  0.104673  0.111399  0  0.99687  0
H  H7  1  0.66714472  0.87741843  0.46767414  1  0  0.104032  0  0.937887  0  0  0.114235  0  0.994847  0  0  0.118082  0  0.992462  0  0  0.104687  0.111347  0  0.996754  0
H  H8  1  0.67874152  0.00589936  0.68882773  1  0  0.096198  0  0.959186  0  0  0.106217  0  1.020937  0  0  0.109894  0  1.01812  0  0  0.102931  0.103312  0  1.023382  0
H  H9  1  0.32126742  0.99411775  0.31116060  1  0  0.096163  0  0.959282  0  0  0.106162  0  1.021057  0  0  0.109841  0  1.018235  0  0  0.102905  0.103258  0  1.023499  0
H  H10  1  0.78756737  0.44454937  0.82032084  1  0  0.093681  0  0.962344  0  0  0.102125  0  1.027949  0  0  0.105428  0  1.025572  0  0  0.100652  0.099587  0  1.030131  0
H  H11  1  0.21243758  0.55543921  0.17970306  1  0  0.093799  0  0.96233  0  0  0.102253  0  1.027925  0  0  0.105522  0  1.025587  0  0  0.100657  0.099717  0  1.030108  0
H  H12  1  0.94004771  0.30294310  0.81788876  1  0  0.093109  0  0.948541  0  0  0.103865  0  1.00945  0  0  0.106918  0  1.00791  0  0  0.104312  0.101707  0  1.010781  0
H  H13  1  0.05996607  0.69705401  0.18213248  1  0  0.092993  0  0.948534  0  0  0.103711  0  1.00948  0  0  0.106763  0  1.007936  0  0  0.104236  0.101553  0  1.010813  0
H  H14  1  0.51487426  0.46324062  0.24235269  1  0  0.092942  0  0.940151  0  0  0.101437  0  1.002633  0  0  0.104338  0  0.999779  0  0  0.118787  0.099278  0  1.004823  0
H  H15  1  0.48512182  0.53675638  0.75764203  1  0  0.092939  0  0.940042  0  0  0.101464  0  1.002514  0  0  0.104369  0  0.999654  0  0  0.118794  0.099306  0  1.004705  0
H  H16  1  0.69646506  0.53699977  0.45066487  1  0  0.108791  0  0.932079  0  0  0.123247  0  0.982166  0  0  0.126324  0  0.981774  0  0  0.111039  0.121035  0  0.982554  0
H  H17  1  0.30354707  0.46301305  0.54931947  1  0  0.108704  0  0.931981  0  0  0.1232  0  0.982032  0  0  0.126277  0  0.981641  0  0  0.11103  0.120988  0  0.982427  0
H  H18  1  0.85910380  0.23512815  0.30221587  1  0  0.111151  0  0.923486  0  0  0.1274  0  0.970406  0  0  0.130107  0  0.970623  0  0  0.113487  0.125339  0  0.970812  0
H  H19  1  0.14089415  0.76487237  0.69777794  1  0  0.111252  0  0.923538  0  0  0.127508  0  0.970443  0  0  0.130228  0  0.970645  0  0  0.11355  0.125444  0  0.970848  0
H  H20  1  0.67107991  0.17316914  0.10151323  1  0  0.089951  0  0.954629  0  0  0.097092  0  1.021617  0  0  0.099666  0  1.019165  0  0  0.117706  0.095322  0  1.022934  0
H  H21  1  0.32890735  0.82681932  0.89848413  1  0  0.089935  0  0.954714  0  0  0.097114  0  1.021653  0  0  0.099691  0  1.0192  0  0  0.117724  0.095342  0  1.022974  0
H  H22  1  0.90547423  0.33059379  0.54897182  1  0  0.084549  0  0.925608  0  0  0.102095  0  0.983928  0  0  0.102879  0  0.984546  0  0  0.097558  0.1015  0  0.983534  0
H  H23  1  0.09454015  0.66942144  0.45101662  1  0  0.084446  0  0.925625  0  0  0.102107  0  0.983844  0  0  0.102884  0  0.984483  0  0  0.097558  0.101507  0  0.983451  0
H  H24  1  0.86257350  0.47473202  0.59877804  1  0  0.08283  0  0.931713  0  0  0.101062  0  0.989555  0  0  0.102004  0  0.989466  0  0  0.09775  0.100146  0  0.990125  0
H  H25  1  0.13743875  0.52528532  0.40121139  1  0  0.082955  0  0.931657  0  0  0.101118  0  0.989591  0  0  0.102068  0  0.989502  0  0  0.097775  0.100199  0  0.990162  0
C  C26  1  0.50531029  0.14335901  0.75718023  1  0  0.628445  0  3.928725  0  0  0.578617  0  4.21768  0  0  0.612849  0  4.212287  0  0  0.197118  0.555629  0  4.220106  0
C  C27  1  0.49467687  0.85663509  0.24281020  1  0  0.628374  0  3.928952  0  0  0.578476  0  4.217997  0  0  0.612705  0  4.212608  0  0  0.197105  0.555484  0  4.220432  0
C  C28  1  0.50747281  0.07365548  0.62334374  1  0  -0.056232  0  3.752896  0  0  -0.033082  0  3.986601  0  0  -0.039755  0  4.009598  0  0  -0.016314  -0.028926  0  3.971032  0
C  C29  1  0.49252838  0.92635092  0.37664323  1  0  -0.056296  0  3.752821  0  0  -0.033129  0  3.986543  0  0  -0.039801  0  4.00954  0  0  -0.016279  -0.028981  0  3.97098  0
C  C30  1  0.40561214  0.06852529  0.51681445  1  0  -0.075962  0  3.738623  0  0  -0.099688  0  3.98985  0  0  -0.100661  0  4.010282  0  0  -0.085221  -0.098682  0  3.975878  0
C  C31  1  0.59438529  0.93148423  0.48317447  1  0  -0.075761  0  3.738527  0  0  -0.0995  0  3.989752  0  0  -0.100472  0  4.010183  0  0  -0.085223  -0.098485  0  3.975776  0
C  C32  1  0.60206876  0.00467240  0.60543472  1  0  -0.079136  0  3.747427  0  0  -0.101573  0  3.998265  0  0  -0.10271  0  4.01918  0  0  -0.086041  -0.100531  0  3.983929  0
C  C33  1  0.39792810  0.99533369  0.39454712  1  0  -0.078766  0  3.747167  0  0  -0.101188  0  3.997979  0  0  -0.102325  0  4.018891  0  0  -0.085877  -0.100142  0  3.983642  0
C  C34  1  0.82545156  0.66307084  0.00183528  1  0  0.6327  0  3.937371  0  0  0.582731  0  4.224939  0  0  0.617084  0  4.219591  0  0  0.195641  0.559521  0  4.227543  0
C  C35  1  0.17455317  0.33691885  0.99817659  1  0  0.632646  0  3.937209  0  0  0.582681  0  4.224798  0  0  0.617034  0  4.219457  0  0  0.195619  0.559477  0  4.227403  0
C  C36  1  0.91759921  0.58068695  0.99973092  1  0  -0.060317  0  3.770774  0  0  -0.036214  0  4.001272  0  0  -0.043008  0  4.023755  0  0  -0.018068  -0.031945  0  3.986078  0
C  C37  1  0.08241074  0.41931103  0.00029024  1  0  -0.059903  0  3.770825  0  0  -0.035808  0  4.001327  0  0  -0.042597  0  4.023805  0  0  -0.017962  -0.031549  0  3.986147  0
C  C38  1  0.88170368  0.46835265  0.89792876  1  0  -0.074803  0  3.748677  0  0  -0.100139  0  4.005299  0  0  -0.100865  0  4.02524  0  0  -0.086227  -0.099466  0  3.992295  0
C  C39  1  0.11831120  0.53164228  0.10208746  1  0  -0.075107  0  3.748836  0  0  -0.100488  0  4.005503  0  0  -0.101193  0  4.025458  0  0  -0.086317  -0.099815  0  3.992507  0
C  C40  1  0.96419536  0.38839393  0.89787173  1  0  -0.072232  0  3.747707  0  0  -0.096583  0  4.000719  0  0  -0.097474  0  4.021934  0  0  -0.08573  -0.09568  0  3.986445  0
C  C41  1  0.03581554  0.61160411  0.10215647  1  0  -0.07189  0  3.747036  0  0  -0.096175  0  4.0  0  0  -0.097051  0  4.02119  0  0  -0.085644  -0.095271  0  3.985721  0
C  C42  1  0.59280935  0.41505537  0.26062526  1  0  0.131188  0  3.714619  0  0  0.099902  0  3.965127  0  0  0.107372  0  3.984838  0  0  0.046983  0.094889  0  3.951583  0
C  C43  1  0.40718368  0.58494593  0.73936744  1  0  0.131171  0  3.714718  0  0  0.09983  0  3.965268  0  0  0.1073  0  3.98498  0  0  0.046868  0.094814  0  3.95172  0
C  C44  1  0.69469059  0.45566188  0.37569290  1  0  -0.172796  0  3.714177  0  0  -0.18968  0  3.959066  0  0  -0.19827  0  3.981035  0  0  -0.083701  -0.18369  0  3.944009  0
C  C45  1  0.30531544  0.54434599  0.62430425  1  0  -0.172652  0  3.714129  0  0  -0.18952  0  3.959049  0  0  -0.198112  0  3.981022  0  0  -0.083601  -0.183523  0  3.943995  0
C  C46  1  0.79277879  0.39097719  0.39455001  1  0  0.154058  0  3.730645  0  0  0.168902  0  3.972476  0  0  0.173945  0  3.995665  0  0  0.013652  0.165388  0  3.957114  0
C  C47  1  0.20722903  0.60902967  0.60543914  1  0  0.154059  0  3.730501  0  0  0.168797  0  3.972515  0  0  0.17385  0  3.995713  0  0  0.013677  0.16527  0  3.957157  0
C  C48  1  0.78525620  0.28884057  0.29361006  1  0  -0.164107  0  3.701577  0  0  -0.181919  0  3.950696  0  0  -0.191085  0  3.973976  0  0  -0.080713  -0.176556  0  3.936196  0
C  C49  1  0.21474078  0.71116214  0.70638275  1  0  -0.164205  0  3.701649  0  0  -0.182019  0  3.95085  0  0  -0.191194  0  3.974121  0  0  -0.08079  -0.17665  0  3.936342  0
C  C50  1  0.68059309  0.25325110  0.18119536  1  0  0.146174  0  3.701645  0  0  0.111512  0  3.958821  0  0  0.119436  0  3.978518  0  0  0.0505  0.106474  0  3.945163  0
C  C51  1  0.31940012  0.74674682  0.81880632  1  0  0.146147  0  3.701655  0  0  0.111449  0  3.95882  0  0  0.119374  0  3.978517  0  0  0.050436  0.106413  0  3.945157  0
C  C52  1  0.90769162  0.43445277  0.51554527  1  0  -0.151982  0  3.688387  0  0  -0.195887  0  3.941474  0  0  -0.197371  0  3.953271  0  0  -0.152099  -0.194561  0  3.933333  0
C  C53  1  0.09232119  0.56556349  0.48444114  1  0  -0.15195  0  3.688127  0  0  -0.195872  0  3.941239  0  0  -0.197397  0  3.953078  0  0  -0.152119  -0.194538  0  3.933093  0
N  N54  1  0.58522553  0.31452591  0.16531886  1  0  -0.358821  0  3.294594  0  0  -0.275146  0  3.562953  0  0  -0.298494  0  3.583993  0  0  -0.33547  -0.258812  0  3.54797  0
N  N55  1  0.41476518  0.68546506  0.83467863  1  0  -0.35883  0  3.294641  0  0  -0.275122  0  3.562984  0  0  -0.298471  0  3.584027  0  0  -0.33541  -0.258789  0  3.547998  0
O  O56  1  0.24065899  0.98910362  0.04971052  1  0  -0.878486  0  1.868137  0  0  -0.814107  0  2.073967  0  0  -0.836342  0  2.035414  0  0  -0.600346  -0.798175  0  2.101228  0
O  O57  1  0.75932590  0.01089146  0.95030895  1  0  -0.878554  0  1.868041  0  0  -0.814141  0  2.073964  0  0  -0.836351  0  2.035355  0  0  -0.600346  -0.798203  0  2.101204  0
O  O58  1  0.42992782  0.21830392  0.76262432  1  0  -0.64169  0  1.955541  0  0  -0.574004  0  2.195382  0  0  -0.603671  0  2.183212  0  0  -0.335383  -0.552833  0  2.202962  0
O  O59  1  0.57004069  0.78167531  0.23737142  1  0  -0.641622  0  1.955645  0  0  -0.573935  0  2.19554  0  0  -0.603596  0  2.183361  0  0  -0.335347  -0.55276  0  2.203121  0
O  O60  1  0.57085481  0.12287989  0.86001031  1  0  -0.646735  0  2.008154  0  0  -0.583072  0  2.243388  0  0  -0.611446  0  2.236166  0  0  -0.312474  -0.563032  0  2.247049  0
O  O61  1  0.42914307  0.87712627  0.13997557  1  0  -0.646854  0  2.008251  0  0  -0.583109  0  2.243449  0  0  -0.611477  0  2.236211  0  0  -0.31251  -0.563063  0  2.247109  0
O  O62  1  0.67559834  0.58971534  0.94754228  1  0  -0.666771  0  2.009395  0  0  -0.599582  0  2.26649  0  0  -0.630961  0  2.255456  0  0  -0.330907  -0.577256  0  2.273233  0
O  O63  1  0.32442127  0.41028783  0.05245614  1  0  -0.666884  0  2.00923  0  0  -0.599699  0  2.266339  0  0  -0.631066  0  2.255276  0  0  -0.33095  -0.577372  0  2.273081  0
O  O64  1  0.89345686  0.79838583  0.05876980  1  0  -0.62616  0  1.928879  0  0  -0.559471  0  2.137634  0  0  -0.586556  0  2.127039  0  0  -0.31713  -0.540651  0  2.144526  0
O  O65  1  0.10654785  0.20160612  0.94124813  1  0  -0.62606  0  1.929044  0  0  -0.55935  0  2.137794  0  0  -0.586434  0  2.127203  0  0  -0.317029  -0.540531  0  2.144683  0
