# generated using pymatgen
data_ZnH14C32(NO4)2
_symmetry_space_group_name_H-M   'P 1'
_cell_length_a   14.25481165
_cell_length_b   15.20912476
_cell_length_c   23.79736221
_cell_angle_alpha   92.38638409
_cell_angle_beta   90.48118952
_cell_angle_gamma   90.42731730
_symmetry_Int_Tables_number   1
_chemical_formula_structural   ZnH14C32(NO4)2
_chemical_formula_sum   'Zn2 H28 C64 N4 O16'
_cell_volume   5154.53087181
_cell_formula_units_Z   2
loop_
 _symmetry_equiv_pos_site_id
 _symmetry_equiv_pos_as_xyz
  1  'x, y, z'
loop_
 _atom_site_type_symbol
 _atom_site_label
 _atom_site_symmetry_multiplicity
 _atom_site_fract_x
 _atom_site_fract_y
 _atom_site_fract_z
 _atom_site_occupancy
 _atom_site_pbe_bader_charge
 _atom_site_pbe_bader_spin_density
 _atom_site_pbe_cm5_charge
 _atom_site_pbe_ddec_charge
 _atom_site_pbe_ddec_spin_density
 _atom_site_pbe_ddec_sum_bond_order
 _atom_site_pbe_magmom
Zn  Zn0  1  0.60140378  0.50140038  0.50139532  1  1.290473  0  0.665736  0.826033  0  2.375054  0
Zn  Zn1  1  0.39859665  0.49859990  0.49860408  1  1.281961  0  0.665711  0.825975  0  2.375077  0
H  H2  1  0.91848685  0.67799237  0.59156685  1  0.137928  0  0.118839  0.130961  0  1.00834  0
H  H3  1  0.08151357  0.32200725  0.40843254  1  0.137801  0  0.118823  0.131001  0  1.008309  0
H  H4  1  0.90963521  0.32269514  0.40906243  1  0.148738  0  0.120058  0.132636  0  1.005258  0
H  H5  1  0.09036451  0.67730643  0.59093447  1  0.148705  0  0.120016  0.132534  0  1.005356  0
H  H6  1  0.42562525  0.70939236  0.05871809  1  0.123047  0  0.120237  0.126042  0  0.974055  0
H  H7  1  0.57437307  0.29060857  0.94128006  1  0.123041  0  0.120228  0.126023  0  0.974027  0
H  H8  1  0.65103628  0.50133630  0.32076452  1  0.089576  0  0.106358  0.108024  0  0.997071  0
H  H9  1  0.65010153  0.50491765  0.68110774  1  0.095053  0  0.105844  0.107896  0  0.99947  0
H  H10  1  0.61894990  0.22620950  0.55818646  1  0.068367  0  0.104255  0.111076  0  0.997167  0
H  H11  1  0.38105264  0.77379079  0.44181421  1  0.06839  0  0.104238  0.11101  0  0.997154  0
H  H12  1  0.42574516  0.70980061  0.95237774  1  0.124455  0  0.120364  0.126162  0  0.974196  0
H  H13  1  0.57425457  0.29020099  0.04762085  1  0.124481  0  0.120334  0.126079  0  0.97424  0
H  H14  1  0.67710225  0.92397895  0.59633731  1  0.086882  0  0.104985  0.109404  0  0.989316  0
H  H15  1  0.32290029  0.07602199  0.40366295  1  0.086802  0  0.105011  0.109414  0  0.989288  0
H  H16  1  0.67169333  0.39309749  0.42372622  1  0.156925  0  0.114609  0.073781  0  1.029856  0
H  H17  1  0.32830783  0.60690606  0.57627158  1  0.157  0  0.114638  0.0738  0  1.029904  0
H  H18  1  0.67732562  0.60725867  0.57842648  1  0.152652  0  0.11555  0.074242  0  1.03712  0
H  H19  1  0.32267408  0.39273898  0.42157286  1  0.152688  0  0.11556  0.074262  0  1.037107  0
H  H20  1  0.65146042  0.50216281  0.21542953  1  0.071515  0  0.111031  0.118269  0  0.976955  0
H  H21  1  0.65036890  0.50389920  0.78640098  1  0.075727  0  0.110987  0.118048  0  0.977366  0
H  H22  1  0.34989683  0.49508658  0.31889132  1  0.09503  0  0.105882  0.107899  0  0.999478  0
H  H23  1  0.34896133  0.49866202  0.67923483  1  0.089564  0  0.106364  0.10804  0  0.997011  0
H  H24  1  0.34962943  0.49610240  0.21359803  1  0.075673  0  0.111014  0.118088  0  0.977408  0
H  H25  1  0.34853789  0.49783550  0.78456982  1  0.0715  0  0.111054  0.118311  0  0.976948  0
H  H26  1  0.38466447  0.21871330  0.44256908  1  0.093244  0  0.10191  0.112565  0  1.026776  0
H  H27  1  0.61533877  0.78128763  0.55743034  1  0.093202  0  0.101888  0.112544  0  1.026755  0
H  H28  1  0.67949500  0.08687537  0.59624752  1  0.045186  0  0.102931  0.104571  0  0.992473  0
H  H29  1  0.32050615  0.91312558  0.40375273  1  0.045234  0  0.102927  0.104584  0  0.992458  0
C  C30  1  0.49860117  0.67061450  0.49842549  1  1.487724  0  0.224043  0.612883  0  4.128265  0
C  C31  1  0.50140349  0.32938710  0.50157521  1  1.487759  0  0.22409  0.612916  0  4.128397  0
C  C32  1  0.58573243  0.50068236  0.23846412  1  -0.011014  0  -0.081175  -0.149812  0  3.970712  0
C  C33  1  0.58465132  0.50305670  0.76261702  1  -0.05021  0  -0.08196  -0.150238  0  3.975995  0
C  C34  1  0.58544397  0.49988852  0.29694006  1  -0.069461  0  -0.076505  -0.07039  0  3.965119  0
C  C35  1  0.58450340  0.50367756  0.70419484  1  0.047313  0  -0.077622  -0.071694  0  3.968598  0
C  C36  1  0.50042990  0.49757887  0.32597925  1  0.015907  0  -0.015369  -0.036861  0  3.962859  0
C  C37  1  0.49956702  0.50242206  0.67401932  1  0.015911  0  -0.015456  -0.03691  0  3.962707  0
C  C38  1  0.41549425  0.49632601  0.29580421  1  0.047319  0  -0.077763  -0.071742  0  3.968621  0
C  C39  1  0.41455366  0.50011177  0.70305975  1  -0.069539  0  -0.076544  -0.07046  0  3.965102  0
C  C40  1  0.41534703  0.49694621  0.23738118  1  -0.04921  0  -0.081924  -0.150178  0  3.975801  0
C  C41  1  0.41426587  0.49931595  0.76153481  1  -0.011039  0  -0.081163  -0.149802  0  3.970739  0
C  C42  1  0.50059769  0.49909707  0.20910963  1  0.350764  0  0.093533  0.199274  0  4.011095  0
C  C43  1  0.49940134  0.50090387  0.79088936  1  0.351853  0  0.093534  0.199329  0  4.011117  0
C  C44  1  0.43596323  0.18392956  0.46740316  1  0.005255  0  -0.083826  -0.149686  0  3.925509  0
C  C45  1  0.56404002  0.81607138  0.53259711  1  0.005249  0  -0.083866  -0.149775  0  3.925359  0
C  C46  1  0.50191141  0.23136438  0.50056617  1  0.065664  0  -0.020648  -0.029334  0  4.023178  0
C  C47  1  0.49809113  0.76863655  0.49943325  1  0.065665  0  -0.020554  -0.029142  0  4.023176  0
C  C48  1  0.56779571  0.18782564  0.53300856  1  0.008878  0  -0.081867  -0.145277  0  3.935106  0
C  C49  1  0.43220612  0.81217399  0.46699209  1  0.008912  0  -0.081863  -0.145222  0  3.935121  0
C  C50  1  0.56695722  0.09574766  0.53442601  1  -0.014102  0  -0.006887  0.077476  0  4.043515  0
C  C51  1  0.43304392  0.90425264  0.46557508  1  -0.014091  0  -0.006957  0.077331  0  4.043564  0
C  C52  1  0.49936822  0.49637924  0.38886425  1  1.568961  0  0.219226  0.598909  0  4.154577  0
C  C53  1  0.50063081  0.50362170  0.61113474  1  1.568998  0  0.219247  0.598981  0  4.154576  0
C  C54  1  0.50067936  0.04670954  0.49995117  1  0.042424  0  0.00555  0.00488  0  3.903184  0
C  C55  1  0.49932248  0.95329074  0.50004866  1  -0.061995  0  0.005595  0.00497  0  3.903194  0
C  C56  1  0.43560900  0.09168912  0.46547603  1  -0.052656  0  -0.006292  0.08015  0  4.039271  0
C  C57  1  0.56439494  0.90831181  0.53452339  1  -0.052281  0  -0.006345  0.080134  0  4.039156  0
C  C58  1  0.63014635  0.04890728  0.56941503  1  -0.100793  0  -0.090539  -0.134887  0  4.020519  0
C  C59  1  0.36985550  0.95109367  0.43058565  1  -0.100779  0  -0.090506  -0.134859  0  4.020475  0
C  C60  1  0.62885914  0.95911393  0.56954018  1  -0.02606  0  -0.08875  -0.130453  0  4.008767  0
C  C61  1  0.37114411  0.04088701  0.43045966  1  -0.025662  0  -0.088783  -0.130442  0  4.008747  0
C  C62  1  0.79889432  0.43695035  0.47127868  1  0.483634  0  0.129745  0.133523  0  3.867599  0
C  C63  1  0.20110612  0.56305124  0.52871907  1  0.484097  0  0.129752  0.133598  0  3.867541  0
C  C64  1  0.80198180  0.56451893  0.53047438  1  0.441337  0  0.128027  0.13385  0  3.869589  0
C  C65  1  0.19801793  0.43548135  0.46952460  1  0.441323  0  0.128016  0.133783  0  3.86966  0
C  C66  1  0.90156253  0.56642851  0.53212317  1  0.038334  0  0.018748  0.032671  0  3.962885  0
C  C67  1  0.09843788  0.43356980  0.46787703  1  0.040356  0  0.018767  0.03276  0  3.962909  0
C  C68  1  0.89836311  0.43440154  0.46869384  1  -0.009112  0  0.018757  0.032777  0  3.960815  0
C  C69  1  0.10163731  0.56559938  0.53130305  1  -0.009137  0  0.018816  0.032877  0  3.96081  0
C  C70  1  0.95003557  0.50022816  0.50018096  1  -0.038245  0  0.016208  0.021051  0  3.931355  0
C  C71  1  0.04996556  0.49977211  0.49981719  1  0.112888  0  0.016206  0.020963  0  3.931321  0
C  C72  1  0.95527435  0.62911410  0.56570692  1  0.024638  0  -0.066666  -0.094832  0  3.933284  0
C  C73  1  0.04472609  0.37088749  0.43429125  1  0.022667  0  -0.066709  -0.094984  0  3.933309  0
C  C74  1  0.94880683  0.37127881  0.43466700  1  -0.056556  0  -0.066527  -0.093938  0  3.931437  0
C  C75  1  0.05119429  0.62872145  0.56533031  1  -0.056458  0  -0.066529  -0.093916  0  3.931482  0
C  C76  1  0.52758053  0.42213167  0.87649519  1  1.282938  0  0.244164  0.434553  0  4.09985  0
C  C77  1  0.47241851  0.57786993  0.12350424  1  1.282537  0  0.24419  0.434609  0  4.099682  0
C  C78  1  0.47226594  0.57888984  0.88068099  1  1.344717  0  0.243472  0.433664  0  4.104025  0
C  C79  1  0.52773448  0.42111043  0.11931715  1  1.344635  0  0.243479  0.433581  0  4.104003  0
C  C80  1  0.47268904  0.57707548  0.94292904  1  -0.0637  0  -0.002986  -0.058133  0  3.984222  0
C  C81  1  0.52730929  0.42292676  0.05706830  1  -0.063615  0  -0.002953  -0.05808  0  3.984238  0
C  C82  1  0.49999665  0.50012275  0.97007077  1  0.083672  0  0.00452  0.03064  0  4.001802  0
C  C83  1  0.50000167  0.49987883  0.02992613  1  -0.028785  0  0.004444  0.030679  0  4.001822  0
C  C84  1  0.52731277  0.42341926  0.93884141  1  -0.02174  0  -0.003066  -0.058976  0  3.984487  0
C  C85  1  0.47268697  0.57658234  0.06115717  1  -0.021653  0  -0.00302  -0.058935  0  3.984233  0
C  C86  1  0.44628058  0.65157299  0.97453102  1  -0.000886  0  -0.060535  -0.06805  0  3.927317  0
C  C87  1  0.55371916  0.34842860  0.02546715  1  -0.000907  0  -0.060476  -0.067947  0  3.927358  0
C  C88  1  0.44621786  0.65132813  0.03352851  1  0.054222  0  -0.060136  -0.066878  0  3.926704  0
C  C89  1  0.55377906  0.34867281  0.96647005  1  0.054337  0  -0.060106  -0.066815  0  3.926759  0
C  C90  1  0.73972606  0.36906986  0.43935019  1  0.953852  0  0.104867  0.243089  0  3.907516  0
C  C91  1  0.26027227  0.63093238  0.56064715  1  0.953448  0  0.104629  0.24286  0  3.907873  0
C  C92  1  0.74557874  0.63146172  0.56341887  1  0.935182  0  0.106786  0.243703  0  3.898379  0
C  C93  1  0.25442097  0.36853660  0.43658133  1  0.935178  0  0.106841  0.243765  0  3.898339  0
N  N94  1  0.49946815  0.50049720  0.85154388  1  -1.225172  0  -0.230166  -0.21396  0  3.56597  0
N  N95  1  0.50052946  0.49950242  0.14845550  1  -1.225137  0  -0.230157  -0.213969  0  3.565881  0
N  N96  1  0.75327227  0.50093931  0.50100382  1  -1.222646  0  -0.283664  -0.248789  0  3.427378  0
N  N97  1  0.24672675  0.49906031  0.49899556  1  -1.222674  0  -0.283648  -0.248782  0  3.427297  0
O  O98  1  0.57823250  0.63330933  0.50191376  1  -1.162336  0  -0.313799  -0.549466  0  2.357057  0
O  O99  1  0.42177004  0.36669226  0.49808568  1  -1.162266  0  -0.313807  -0.549443  0  2.357078  0
O  O100  1  0.58038693  0.36931200  0.50590708  1  -1.159036  0  -0.312139  -0.548864  0  2.358397  0
O  O101  1  0.41961559  0.63068760  0.49409063  1  -1.158901  0  -0.312122  -0.548851  0  2.35818  0
O  O102  1  0.57829743  0.49753497  0.41466334  1  -1.179432  0  -0.316741  -0.557459  0  2.346423  0
O  O103  1  0.42169813  0.50246862  0.58533696  1  -1.179458  0  -0.316762  -0.557486  0  2.346428  0
O  O104  1  0.58080496  0.50602666  0.58797207  1  -1.176824  0  -0.316354  -0.552609  0  2.366019  0
O  O105  1  0.41919336  0.49397361  0.41202649  1  -1.176827  0  -0.316379  -0.552593  0  2.366011  0
O  O106  1  0.55040534  0.35733468  0.84741136  1  -1.099883  0  -0.274267  -0.43058  0  2.064871  0
O  O107  1  0.44959440  0.64266625  0.15258764  1  -1.099458  0  -0.27431  -0.430654  0  2.06495  0
O  O108  1  0.45005766  0.64413884  0.85508321  1  -1.088309  0  -0.273752  -0.430209  0  2.065927  0
O  O109  1  0.54994484  0.35586010  0.14491407  1  -1.08812  0  -0.273789  -0.430173  0  2.065925  0
O  O110  1  0.76608696  0.29364179  0.42967127  1  -1.059275  0  -0.244772  -0.32212  0  2.117839  0
O  O111  1  0.23391276  0.70636108  0.57032314  1  -1.059357  0  -0.244614  -0.321968  0  2.118095  0
O  O112  1  0.77342850  0.70666958  0.57447318  1  -1.072269  0  -0.244238  -0.329422  0  2.134083  0
O  O113  1  0.22657122  0.29333005  0.42552704  1  -1.072321  0  -0.244279  -0.329463  0  2.134101  0
