# generated using pymatgen
data_ZnH17C20N2O5
_symmetry_space_group_name_H-M   'P 1'
_cell_length_a   9.56013166
_cell_length_b   10.54985597
_cell_length_c   10.94586140
_cell_angle_alpha   108.29996212
_cell_angle_beta   110.54970263
_cell_angle_gamma   103.29255235
_symmetry_Int_Tables_number   1
_chemical_formula_structural   ZnH17C20N2O5
_chemical_formula_sum   'Zn2 H34 C40 N4 O10'
_cell_volume   906.77279256
_cell_formula_units_Z   2
loop_
 _symmetry_equiv_pos_site_id
 _symmetry_equiv_pos_as_xyz
  1  'x, y, z'
loop_
 _atom_site_type_symbol
 _atom_site_label
 _atom_site_symmetry_multiplicity
 _atom_site_fract_x
 _atom_site_fract_y
 _atom_site_fract_z
 _atom_site_occupancy
 _atom_site_hle17_bader_spin_density
 _atom_site_hle17_ddec_charge
 _atom_site_hle17_ddec_spin_density
 _atom_site_hle17_ddec_sum_bond_order
 _atom_site_hle17_magmom
 _atom_site_hse06_10hf_bader_spin_density
 _atom_site_hse06_10hf_ddec_charge
 _atom_site_hse06_10hf_ddec_spin_density
 _atom_site_hse06_10hf_ddec_sum_bond_order
 _atom_site_hse06_10hf_magmom
 _atom_site_hse06_bader_spin_density
 _atom_site_hse06_ddec_charge
 _atom_site_hse06_ddec_spin_density
 _atom_site_hse06_ddec_sum_bond_order
 _atom_site_hse06_magmom
 _atom_site_pbe_bader_spin_density
 _atom_site_pbe_cm5_charge
 _atom_site_pbe_ddec_charge
 _atom_site_pbe_ddec_spin_density
 _atom_site_pbe_ddec_sum_bond_order
 _atom_site_pbe_magmom
Zn  Zn0  1  0.40888513  0.18010442  0.94756114  1  0  1.130799  0  1.781108  0  0  0.95459  0  2.263019  0  0  1.001731  0  2.200318  0  0  0.701468  0.920817  0  2.307355  0
Zn  Zn1  1  0.59111357  0.81989552  0.05243900  1  0  1.130785  0  1.781088  0  0  0.954586  0  2.26299  0  0  1.001727  0  2.200291  0  0  0.701481  0.920816  0  2.307325  0
H  H2  1  0.39707554  0.91327089  0.82105298  1  0  0.431694  0  0.877128  0  0  0.397925  0  0.945255  0  0  0.410349  0  0.927167  0  0  0.286921  0.388964  0  0.958323  0
H  H3  1  0.60292381  0.08672797  0.17894702  1  0  0.431672  0  0.877157  0  0  0.397906  0  0.945282  0  0  0.410331  0  0.927192  0  0  0.286922  0.388945  0  0.958349  0
H  H4  1  0.27238860  0.41323695  0.25618397  1  0  0.094883  0  0.976124  0  0  0.103968  0  1.041078  0  0  0.10644  0  1.040468  0  0  0.100531  0.101811  0  1.042321  0
H  H5  1  0.72761056  0.58676408  0.74381572  1  0  0.094885  0  0.976125  0  0  0.103972  0  1.041074  0  0  0.106445  0  1.040461  0  0  0.100534  0.101813  0  1.042317  0
H  H6  1  0.07317643  0.44766003  0.71519855  1  0  0.08902  0  0.972744  0  0  0.097221  0  1.037862  0  0  0.099324  0  1.038471  0  0  0.096779  0.095623  0  1.037489  0
H  H7  1  0.92682718  0.55234099  0.28479884  1  0  0.089024  0  0.972702  0  0  0.097206  0  1.037843  0  0  0.099308  0  1.038454  0  0  0.096763  0.095609  0  1.037469  0
H  H8  1  0.73641517  0.52685991  0.95202961  1  0  0.105294  0  0.947409  0  0  0.1137  0  1.01128  0  0  0.117408  0  1.008753  0  0  0.104131  0.110925  0  1.01343  0
H  H9  1  0.26358577  0.47314003  0.04797304  1  0  0.105307  0  0.947425  0  0  0.113708  0  1.011299  0  0  0.117419  0  1.008768  0  0  0.104141  0.110934  0  1.013449  0
H  H10  1  0.03722148  0.28724822  0.03659105  1  0  0.098288  0  0.964745  0  0  0.106199  0  1.030794  0  0  0.109525  0  1.028765  0  0  0.102801  0.103601  0  1.032715  0
H  H11  1  0.96277769  0.71275280  0.96341048  1  0  0.098266  0  0.964771  0  0  0.106181  0  1.03081  0  0  0.109503  0  1.02879  0  0  0.102796  0.103583  0  1.03273  0
H  H12  1  0.31050347  0.91693446  0.92539515  1  0  0.427175  0  0.884419  0  0  0.393182  0  0.953858  0  0  0.405186  0  0.936341  0  0  0.287946  0.38458  0  0.966418  0
H  H13  1  0.68949635  0.08306548  0.07460533  1  0  0.427071  0  0.884535  0  0  0.393066  0  0.953998  0  0  0.405071  0  0.936481  0  0  0.287912  0.384467  0  0.966556  0
H  H14  1  0.70416849  0.38745609  0.53099364  1  0  0.098632  0  0.960479  0  0  0.105391  0  1.02599  0  0  0.108576  0  1.025025  0  0  0.101174  0.103344  0  1.02624  0
H  H15  1  0.29583179  0.61254493  0.46900639  1  0  0.098624  0  0.960472  0  0  0.105384  0  1.025985  0  0  0.108569  0  1.025018  0  0  0.101159  0.103337  0  1.026235  0
H  H16  1  0.93731654  0.31437251  0.26159540  1  0  0.098259  0  0.970638  0  0  0.110983  0  1.027963  0  0  0.113581  0  1.027483  0  0  0.100577  0.108824  0  1.029045  0
H  H17  1  0.06269023  0.68563066  0.73840360  1  0  0.098279  0  0.970606  0  0  0.110982  0  1.027944  0  0  0.113579  0  1.027467  0  0  0.100613  0.108822  0  1.029025  0
H  H18  1  0.88855438  0.13383948  0.38541272  1  0  0.097776  0  0.928666  0  0  0.112197  0  0.992003  0  0  0.113239  0  0.991044  0  0  0.117253  0.111389  0  0.992762  0
H  H19  1  0.11144571  0.86616371  0.61458701  1  0  0.097822  0  0.928594  0  0  0.112208  0  0.991991  0  0  0.113247  0  0.991032  0  0  0.117254  0.111399  0  0.99275  0
H  H20  1  0.08943935  0.19649616  0.41540017  1  0  0.079033  0  0.95147  0  0  0.094728  0  1.015396  0  0  0.094213  0  1.017787  0  0  0.112887  0.094879  0  1.01421  0
H  H21  1  0.91056130  0.80350054  0.58459957  1  0  0.079016  0  0.951457  0  0  0.094735  0  1.015363  0  0  0.094233  0  1.017739  0  0  0.112879  0.094887  0  1.014173  0
H  H22  1  0.07621941  0.03982972  0.92633848  1  0  0.112215  0  0.943086  0  0  0.127073  0  0.996164  0  0  0.129527  0  0.995363  0  0  0.109851  0.125168  0  0.997072  0
H  H23  1  0.92378105  0.96016914  0.07366094  1  0  0.112201  0  0.94311  0  0  0.127044  0  0.996203  0  0  0.129511  0  0.995386  0  0  0.109841  0.12514  0  0.99711  0
H  H24  1  0.71179977  0.07079337  0.48178882  1  0  0.114209  0  0.942446  0  0  0.1274  0  0.997548  0  0  0.130779  0  0.99543  0  0  0.108658  0.124796  0  0.999384  0
H  H25  1  0.28820005  0.92920657  0.51821166  1  0  0.114231  0  0.942452  0  0  0.127429  0  0.997539  0  0  0.130807  0  0.995422  0  0  0.108674  0.124826  0  0.999375  0
H  H26  1  0.38433406  0.43606307  0.74113471  1  0  0.145612  0  0.92519  0  0  0.166322  0  0.982542  0  0  0.168507  0  0.982152  0  0  0.106335  0.164875  0  0.982456  0
H  H27  1  0.61566528  0.56393579  0.25886438  1  0  0.145597  0  0.925192  0  0  0.166302  0  0.982543  0  0  0.168487  0  0.982155  0  0  0.106326  0.164855  0  0.982459  0
H  H28  1  0.33784804  0.29422482  0.57568141  1  0  0.130015  0  0.961983  0  0  0.147226  0  1.027301  0  0  0.148559  0  1.029065  0  0  0.099736  0.146463  0  1.025822  0
H  H29  1  0.66215177  0.70577513  0.42431815  1  0  0.130022  0  0.961971  0  0  0.147223  0  1.027298  0  0  0.148556  0  1.029064  0  0  0.099736  0.146461  0  1.025818  0
H  H30  1  0.46587373  0.30207244  0.74506777  1  0  0.147877  0  0.955163  0  0  0.168234  0  1.010124  0  0  0.170707  0  1.009143  0  0  0.105107  0.166615  0  1.010593  0
H  H31  1  0.53412514  0.69792534  0.25493085  1  0  0.147896  0  0.955141  0  0  0.168252  0  1.010093  0  0  0.170725  0  1.009112  0  0  0.105106  0.166633  0  1.010563  0
H  H32  1  0.77637753  0.93260399  0.82351839  1  0  0.090933  0  0.976233  0  0  0.101305  0  1.039501  0  0  0.103327  0  1.039201  0  0  0.098338  0.099937  0  1.03956  0
H  H33  1  0.22362118  0.06739595  0.17648267  1  0  0.090944  0  0.976265  0  0  0.101307  0  1.039541  0  0  0.103326  0  1.039249  0  0  0.098328  0.09995  0  1.039588  0
H  H34  1  0.59770546  0.94487135  0.60631856  1  0  0.095009  0  0.953029  0  0  0.106421  0  1.011175  0  0  0.109133  0  1.010404  0  0  0.100122  0.104538  0  1.011623  0
H  H35  1  0.40229436  0.05512859  0.39368283  1  0  0.094986  0  0.953021  0  0  0.106399  0  1.011168  0  0  0.109111  0  1.010397  0  0  0.100119  0.104517  0  1.011614  0
C  C36  1  0.37179544  0.45147423  0.36317749  1  0  -0.073363  0  3.730541  0  0  -0.09326  0  3.974261  0  0  -0.094077  0  3.994893  0  0  -0.085001  -0.092942  0  3.96142  0
C  C37  1  0.62820373  0.54852680  0.63682312  1  0  -0.073392  0  3.730584  0  0  -0.093288  0  3.974318  0  0  -0.094106  0  3.99495  0  0  -0.085013  -0.092969  0  3.961474  0
C  C38  1  0.04159530  0.47004654  0.62042118  1  0  -0.120963  0  3.764756  0  0  -0.140045  0  4.013799  0  0  -0.142651  0  4.035793  0  0  -0.097311  -0.138088  0  3.998072  0
C  C39  1  0.95841101  0.52995555  0.37957735  1  0  -0.120986  0  3.764573  0  0  -0.140025  0  4.013636  0  0  -0.142631  0  4.035631  0  0  -0.097288  -0.13807  0  3.997911  0
C  C40  1  0.85172057  0.51510584  0.97267613  1  0  -0.070563  0  3.715578  0  0  -0.094472  0  3.965639  0  0  -0.095082  0  3.985247  0  0  -0.084253  -0.093882  0  3.952392  0
C  C41  1  0.14827860  0.48489519  0.02732631  1  0  -0.070528  0  3.71557  0  0  -0.094419  0  3.965621  0  0  -0.095033  0  3.985229  0  0  -0.084233  -0.093831  0  3.952374  0
C  C42  1  0.02257494  0.38127628  0.02114813  1  0  -0.07355  0  3.735843  0  0  -0.097105  0  3.986052  0  0  -0.098232  0  4.007353  0  0  -0.083966  -0.096214  0  3.971717  0
C  C43  1  0.97742423  0.61872474  0.97885248  1  0  -0.07348  0  3.735811  0  0  -0.09702  0  3.986011  0  0  -0.098148  0  4.00731  0  0  -0.083942  -0.096132  0  3.971675  0
C  C44  1  0.87337599  0.39495809  0.99349294  1  0  -0.063755  0  3.743003  0  0  -0.039595  0  3.972983  0  0  -0.046724  0  3.996018  0  0  -0.015731  -0.034799  0  3.957218  0
C  C45  1  0.12662495  0.60504185  0.00650970  1  0  -0.063866  0  3.743013  0  0  -0.039721  0  3.973008  0  0  -0.04685  0  3.996044  0  0  -0.015761  -0.034922  0  3.957239  0
C  C46  1  0.74043593  0.28157476  0.98821849  1  0  0.661704  0  3.894979  0  0  0.609146  0  4.188758  0  0  0.643879  0  4.180488  0  0  0.218213  0.585489  0  4.193464  0
C  C47  1  0.25956501  0.71842518  0.01178324  1  0  0.661809  0  3.894832  0  0  0.609263  0  4.188597  0  0  0.643997  0  4.180325  0  0  0.218257  0.585605  0  4.193306  0
C  C48  1  0.21690221  0.23392844  0.69261983  1  0  0.424383  0  3.676856  0  0  0.394834  0  3.95352  0  0  0.415212  0  3.964227  0  0  0.241001  0.381585  0  3.945565  0
C  C49  1  0.78309761  0.76607150  0.30738065  1  0  0.424409  0  3.676869  0  0  0.394822  0  3.953529  0  0  0.415199  0  3.964238  0  0  0.24104  0.381562  0  3.945587  0
C  C50  1  0.47965667  0.27256291  0.25378662  1  0  0.659692  0  3.905253  0  0  0.606483  0  4.204465  0  0  0.641234  0  4.195521  0  0  0.21631  0.582919  0  4.209492  0
C  C51  1  0.52034203  0.72743703  0.74621261  1  0  0.659673  0  3.905258  0  0  0.606448  0  4.204509  0  0  0.641199  0  4.195565  0  0  0.216319  0.582885  0  4.209532  0
C  C52  1  0.48667762  0.38772108  0.38080646  1  0  -0.068178  0  3.760292  0  0  -0.046808  0  3.994298  0  0  -0.053758  0  4.016831  0  0  -0.017178  -0.042055  0  3.978382  0
C  C53  1  0.51332266  0.61227994  0.61919357  1  0  -0.068133  0  3.760271  0  0  -0.046769  0  3.99429  0  0  -0.053721  0  4.016825  0  0  -0.01716  -0.042015  0  3.978371  0
C  C54  1  0.61474176  0.43674978  0.51867478  1  0  -0.074542  0  3.734731  0  0  -0.095433  0  3.980073  0  0  -0.09637  0  4.000431  0  0  -0.084037  -0.094971  0  3.966323  0
C  C55  1  0.38525741  0.56325125  0.48132583  1  0  -0.074586  0  3.734708  0  0  -0.095475  0  3.980057  0  0  -0.096414  0  4.000415  0  0  -0.08405  -0.095013  0  3.966309  0
C  C56  1  0.06181663  0.11727834  0.76199327  1  0  0.150884  0  3.854699  0  0  0.144626  0  4.106799  0  0  0.14824  0  4.130961  0  0  0.083744  0.141915  0  4.090434  0
C  C57  1  0.93818318  0.88272160  0.23800629  1  0  0.150878  0  3.854787  0  0  0.144617  0  4.106947  0  0  0.14823  0  4.131114  0  0  0.08371  0.141906  0  4.090581  0
C  C58  1  0.96470270  0.39593071  0.36632763  1  0  -0.108455  0  3.745819  0  0  -0.126817  0  3.990182  0  0  -0.129861  0  4.012674  0  0  -0.093365  -0.124497  0  3.974586  0
C  C59  1  0.03530360  0.60407138  0.63366998  1  0  -0.108463  0  3.745668  0  0  -0.126775  0  3.990058  0  0  -0.12982  0  4.012551  0  0  -0.093392  -0.124456  0  3.974459  0
C  C60  1  0.00600829  0.36498340  0.48636073  1  0  0.068189  0  3.755421  0  0  0.087075  0  3.994717  0  0  0.086451  0  4.01856  0  0  -0.014695  0.087603  0  3.978257  0
C  C61  1  0.99399802  0.63501869  0.51363780  1  0  0.068294  0  3.755113  0  0  0.087123  0  3.994505  0  0  0.086495  0  4.018349  0  0  -0.014719  0.087651  0  3.978045  0
C  C62  1  0.95865530  0.12284325  0.63625352  1  0  0.10065  0  3.78973  0  0  0.087438  0  4.041784  0  0  0.091358  0  4.064099  0  0  0.089883  0.084893  0  4.026244  0
C  C63  1  0.04134340  0.87715669  0.36374662  1  0  0.100708  0  3.78982  0  0  0.087407  0  4.041951  0  0  0.091326  0  4.064266  0  0  0.089928  0.084862  0  4.02641  0
C  C64  1  0.00925763  0.21746816  0.46389959  1  0  -0.03218  0  3.667261  0  0  -0.096299  0  3.91087  0  0  -0.091608  0  3.921519  0  0  -0.044899  -0.099648  0  3.904146  0
C  C65  1  0.99074441  0.78253178  0.53609973  1  0  -0.032146  0  3.667041  0  0  -0.096306  0  3.910721  0  0  -0.091617  0  3.921356  0  0  -0.044841  -0.099655  0  3.903996  0
C  C66  1  0.99787743  0.04661033  0.83045770  1  0  -0.143117  0  3.737257  0  0  -0.159795  0  3.987787  0  0  -0.162256  0  4.006718  0  0  -0.089733  -0.157969  0  3.975178  0
C  C67  1  0.00212127  0.95338962  0.16954152  1  0  -0.143096  0  3.737353  0  0  -0.159754  0  3.987884  0  0  -0.162225  0  4.006809  0  0  -0.089722  -0.157927  0  3.975278  0
C  C68  1  0.79032282  0.06266094  0.57679391  1  0  -0.150764  0  3.753724  0  0  -0.169323  0  4.006305  0  0  -0.172096  0  4.026142  0  0  -0.096351  -0.166748  0  3.992191  0
C  C69  1  0.20967541  0.93733793  0.42320576  1  0  -0.150861  0  3.753804  0  0  -0.169411  0  4.006419  0  0  -0.172182  0  4.026254  0  0  -0.096398  -0.166834  0  3.992306  0
C  C70  1  0.35861029  0.32010706  0.68727194  1  0  -0.407049  0  3.695438  0  0  -0.486326  0  3.930332  0  0  -0.491946  0  3.936349  0  0  -0.232826  -0.482408  0  3.925526  0
C  C71  1  0.64138906  0.67989180  0.31272806  1  0  -0.407033  0  3.695433  0  0  -0.48629  0  3.930312  0  0  -0.491911  0  3.936328  0  0  -0.232812  -0.482369  0  3.92551  0
C  C72  1  0.83024071  0.98544248  0.77110387  1  0  -0.065168  0  3.776444  0  0  -0.088065  0  4.040516  0  0  -0.089487  0  4.062622  0  0  -0.096818  -0.08674  0  4.02501  0
C  C73  1  0.16975957  0.01455855  0.22889708  1  0  -0.065209  0  3.776527  0  0  -0.088098  0  4.040592  0  0  -0.08952  0  4.062699  0  0  -0.096811  -0.086782  0  4.025085  0
C  C74  1  0.72810769  0.99364943  0.64702820  1  0  -0.073  0  3.771854  0  0  -0.088554  0  4.028626  0  0  -0.090886  0  4.051383  0  0  -0.09742  -0.087135  0  4.012516  0
C  C75  1  0.27189167  0.00634943  0.35297272  1  0  -0.072894  0  3.771823  0  0  -0.088439  0  4.028576  0  0  -0.090771  0  4.051332  0  0  -0.097394  -0.087022  0  4.012472  0
N  N76  1  0.06058941  0.19512426  0.59439159  1  0  -0.166078  0  3.495582  0  0  -0.08338  0  3.717557  0  0  -0.100594  0  3.739961  0  0  -0.238627  -0.071747  0  3.70208  0
N  N77  1  0.93940929  0.80487569  0.40560763  1  0  -0.166218  0  3.495732  0  0  -0.083359  0  3.717595  0  0  -0.100577  0  3.740003  0  0  -0.238673  -0.071726  0  3.702123  0
N  N78  1  0.22135372  0.18793330  0.79438518  1  0  -0.50931  0  3.183837  0  0  -0.439316  0  3.479734  0  0  -0.462806  0  3.488334  0  0  -0.358728  -0.423506  0  3.473814  0
N  N79  1  0.77864497  0.81206665  0.20561313  1  0  -0.50935  0  3.18376  0  0  -0.439379  0  3.479715  0  0  -0.462868  0  3.488317  0  0  -0.358761  -0.423565  0  3.473799  0
O  O80  1  0.76659995  0.17748055  0.01057330  1  0  -0.614744  0  2.013035  0  0  -0.558588  0  2.237694  0  0  -0.583209  0  2.227975  0  0  -0.304382  -0.54116  0  2.243975  0
O  O81  1  0.23340052  0.82251830  0.98942795  1  0  -0.614814  0  2.013011  0  0  -0.558665  0  2.23766  0  0  -0.583284  0  2.227939  0  0  -0.304404  -0.541237  0  2.243944  0
O  O82  1  0.60648142  0.30190146  0.96136627  1  0  -0.671574  0  2.082131  0  0  -0.593761  0  2.358127  0  0  -0.62245  0  2.339729  0  0  -0.32977  -0.573697  0  2.370211  0
O  O83  1  0.39351746  0.69809632  0.03863326  1  0  -0.671596  0  2.082041  0  0  -0.593789  0  2.358038  0  0  -0.622479  0  2.339641  0  0  -0.329806  -0.573728  0  2.370123  0
O  O84  1  0.34146001  0.96790003  0.86873958  1  0  -0.879771  0  1.9503  0  0  -0.808598  0  2.19138  0  0  -0.83172  0  2.148877  0  0  -0.584313  -0.792084  0  2.22143  0
O  O85  1  0.65853980  0.03209991  0.13126089  1  0  -0.879645  0  1.950352  0  0  -0.808464  0  2.191422  0  0  -0.83159  0  2.148927  0  0  -0.584283  -0.791952  0  2.221469  0
O  O86  1  0.39748585  0.26827608  0.12905804  1  0  -0.674822  0  2.051121  0  0  -0.601889  0  2.335837  0  0  -0.630294  0  2.317434  0  0  -0.333175  -0.581733  0  2.348006  0
O  O87  1  0.60251350  0.73172278  0.87094196  1  0  -0.674797  0  2.051102  0  0  -0.601868  0  2.335839  0  0  -0.630271  0  2.317436  0  0  -0.333205  -0.581712  0  2.348004  0
O  O88  1  0.55284606  0.19088539  0.27657506  1  0  -0.611286  0  1.975286  0  0  -0.556252  0  2.197075  0  0  -0.580383  0  2.18645  0  0  -0.307179  -0.539541  0  2.203996  0
O  O89  1  0.44715153  0.80911456  0.72342566  1  0  -0.611299  0  1.975293  0  0  -0.556245  0  2.19708  0  0  -0.580377  0  2.186454  0  0  -0.307173  -0.539535  0  2.204  0
