# generated using pymatgen
data_ZnH14C10(N2Cl)2
_symmetry_space_group_name_H-M   'P 1'
_cell_length_a   7.79184522
_cell_length_b   11.47792983
_cell_length_c   15.67388338
_cell_angle_alpha   89.99994205
_cell_angle_beta   91.80856285
_cell_angle_gamma   90.00014317
_symmetry_Int_Tables_number   1
_chemical_formula_structural   ZnH14C10(N2Cl)2
_chemical_formula_sum   'Zn4 H56 C40 N16 Cl8'
_cell_volume   1401.08375600
_cell_formula_units_Z   4
loop_
 _symmetry_equiv_pos_site_id
 _symmetry_equiv_pos_as_xyz
  1  'x, y, z'
loop_
 _atom_site_type_symbol
 _atom_site_label
 _atom_site_symmetry_multiplicity
 _atom_site_fract_x
 _atom_site_fract_y
 _atom_site_fract_z
 _atom_site_occupancy
 _atom_site_hle17_bader_spin_density
 _atom_site_hle17_ddec_charge
 _atom_site_hle17_ddec_spin_density
 _atom_site_hle17_ddec_sum_bond_order
 _atom_site_hle17_magmom
 _atom_site_hse06_10hf_bader_spin_density
 _atom_site_hse06_10hf_ddec_charge
 _atom_site_hse06_10hf_ddec_spin_density
 _atom_site_hse06_10hf_ddec_sum_bond_order
 _atom_site_hse06_10hf_magmom
 _atom_site_hse06_bader_spin_density
 _atom_site_hse06_ddec_charge
 _atom_site_hse06_ddec_spin_density
 _atom_site_hse06_ddec_sum_bond_order
 _atom_site_hse06_magmom
 _atom_site_pbe_bader_spin_density
 _atom_site_pbe_cm5_charge
 _atom_site_pbe_ddec_charge
 _atom_site_pbe_ddec_spin_density
 _atom_site_pbe_ddec_sum_bond_order
 _atom_site_pbe_magmom
Zn  Zn0  1  0.03435532  0.89179484  0.22333608  1  0  0.84532  0  2.168304  0  0  0.670213  0  2.66641  0  0  0.707458  0  2.621562  0  0  0.563156  0.644538  0  2.696964  0
Zn  Zn1  1  0.96564458  0.39179253  0.27666437  1  0  0.845382  0  2.16824  0  0  0.670278  0  2.666329  0  0  0.707527  0  2.621484  0  0  0.563187  0.644608  0  2.69689  0
Zn  Zn2  1  0.96564293  0.10820708  0.77666465  1  0  0.845366  0  2.1683  0  0  0.67025  0  2.666399  0  0  0.707497  0  2.621554  0  0  0.563167  0.644578  0  2.696958  0
Zn  Zn3  1  0.03435755  0.60820590  0.72333581  1  0  0.845339  0  2.168289  0  0  0.670246  0  2.666383  0  0  0.707492  0  2.621537  0  0  0.563165  0.644574  0  2.696945  0
H  H4  1  0.82627951  0.64419164  0.19570400  1  0  0.089638  0  0.976687  0  0  0.093929  0  1.052915  0  0  0.096745  0  1.049193  0  0  0.12094  0.091799  0  1.055634  0
H  H5  1  0.17371821  0.14419057  0.30429659  1  0  0.089663  0  0.976614  0  0  0.093916  0  1.052904  0  0  0.096728  0  1.049187  0  0  0.120944  0.09179  0  1.055619  0
H  H6  1  0.17371875  0.35580853  0.80429674  1  0  0.08968  0  0.976616  0  0  0.093948  0  1.052876  0  0  0.096762  0  1.049158  0  0  0.120948  0.091822  0  1.055593  0
H  H7  1  0.82628385  0.85580611  0.69570551  1  0  0.089629  0  0.976634  0  0  0.093922  0  1.052864  0  0  0.096737  0  1.049142  0  0  0.120955  0.091782  0  1.055591  0
H  H8  1  0.02830587  0.88268880  0.01959847  1  0  0.099086  0  0.973889  0  0  0.105157  0  1.042605  0  0  0.107696  0  1.041354  0  0  0.106971  0.103303  0  1.043592  0
H  H9  1  0.97169785  0.38268971  0.48040208  1  0  0.099108  0  0.973889  0  0  0.105169  0  1.042627  0  0  0.107707  0  1.041378  0  0  0.10697  0.103317  0  1.043603  0
H  H10  1  0.97169621  0.11731050  0.98040299  1  0  0.099085  0  0.973894  0  0  0.105156  0  1.04261  0  0  0.107696  0  1.041357  0  0  0.106963  0.103299  0  1.043603  0
H  H11  1  0.02830561  0.61731133  0.51959687  1  0  0.099094  0  0.973861  0  0  0.105167  0  1.042578  0  0  0.107706  0  1.041326  0  0  0.106985  0.103311  0  1.043569  0
H  H12  1  0.88198132  0.69316604  0.93034070  1  0  0.114236  0  0.998659  0  0  0.119125  0  1.070617  0  0  0.122162  0  1.068827  0  0  0.106462  0.1169  0  1.072001  0
H  H13  1  0.11802080  0.19316694  0.56965847  1  0  0.114225  0  0.998701  0  0  0.11914  0  1.070623  0  0  0.122175  0  1.068839  0  0  0.106444  0.116915  0  1.072007  0
H  H14  1  0.11802083  0.30683239  0.06965885  1  0  0.114224  0  0.998691  0  0  0.119143  0  1.070608  0  0  0.122176  0  1.068828  0  0  0.106449  0.116918  0  1.07199  0
H  H15  1  0.88198007  0.80683410  0.43034105  1  0  0.114249  0  0.998637  0  0  0.119138  0  1.070592  0  0  0.122174  0  1.068805  0  0  0.106472  0.116914  0  1.071968  0
H  H16  1  0.74446133  0.47571178  0.09612291  1  0  0.076802  0  0.937745  0  0  0.091776  0  1.002249  0  0  0.091968  0  1.003036  0  0  0.10854  0.09152  0  1.001826  0
H  H17  1  0.25553751  0.97571160  0.40388001  1  0  0.076707  0  0.937853  0  0  0.091744  0  1.002311  0  0  0.091935  0  1.003097  0  0  0.108547  0.091488  0  1.001886  0
H  H18  1  0.25553814  0.52428752  0.90387977  1  0  0.076744  0  0.937836  0  0  0.091796  0  1.002286  0  0  0.091987  0  1.003071  0  0  0.108554  0.09154  0  1.001861  0
H  H19  1  0.74446063  0.02428683  0.59612391  1  0  0.076792  0  0.937694  0  0  0.091796  0  1.002199  0  0  0.091986  0  1.002985  0  0  0.108539  0.091534  0  1.001777  0
H  H20  1  0.79953584  0.48679684  0.98724552  1  0  0.083506  0  0.92201  0  0  0.098522  0  0.983707  0  0  0.099505  0  0.983241  0  0  0.106922  0.097706  0  0.984161  0
H  H21  1  0.20046331  0.98679710  0.51275846  1  0  0.083466  0  0.922041  0  0  0.0985  0  0.983746  0  0  0.099483  0  0.98328  0  0  0.106962  0.097688  0  0.984203  0
H  H22  1  0.20046489  0.51320159  0.01275783  1  0  0.083486  0  0.922047  0  0  0.098519  0  0.983761  0  0  0.099502  0  0.983295  0  0  0.106955  0.097703  0  0.984217  0
H  H23  1  0.79953607  0.01320220  0.48724677  1  0  0.08356  0  0.921983  0  0  0.098543  0  0.983729  0  0  0.099526  0  0.983263  0  0  0.106942  0.097728  0  0.984182  0
H  H24  1  0.54358214  0.61798929  0.95977999  1  0  0.069317  0  0.951796  0  0  0.084688  0  1.017238  0  0  0.08486  0  1.019107  0  0  0.087995  0.084473  0  1.016047  0
H  H25  1  0.45641970  0.11798906  0.54021923  1  0  0.069303  0  0.951826  0  0  0.084672  0  1.017273  0  0  0.084844  0  1.019144  0  0  0.087996  0.084457  0  1.016082  0
H  H26  1  0.45642131  0.38201001  0.04021895  1  0  0.069323  0  0.951805  0  0  0.084666  0  1.017277  0  0  0.084838  0  1.019146  0  0  0.087985  0.08445  0  1.016087  0
H  H27  1  0.54358245  0.88201024  0.45978032  1  0  0.06933  0  0.95183  0  0  0.084688  0  1.017276  0  0  0.08486  0  1.019144  0  0  0.088005  0.084473  0  1.016084  0
H  H28  1  0.48263595  0.59726399  0.06691927  1  0  0.07413  0  0.919771  0  0  0.092847  0  0.974629  0  0  0.093776  0  0.974931  0  0  0.092839  0.092112  0  0.974509  0
H  H29  1  0.51736549  0.09726419  0.43308017  1  0  0.074119  0  0.919724  0  0  0.09284  0  0.974585  0  0  0.09377  0  0.974888  0  0  0.092831  0.092107  0  0.974463  0
H  H30  1  0.51736492  0.40273618  0.93308025  1  0  0.07412  0  0.91975  0  0  0.092833  0  0.974607  0  0  0.093762  0  0.974909  0  0  0.092827  0.092099  0  0.974484  0
H  H31  1  0.48263537  0.90273423  0.56691935  1  0  0.074105  0  0.919775  0  0  0.09282  0  0.974627  0  0  0.093748  0  0.974928  0  0  0.092826  0.092085  0  0.974508  0
H  H32  1  0.08042146  0.65969894  0.33933550  1  0  0.087899  0  1.007107  0  0  0.09366  0  1.080663  0  0  0.096189  0  1.077803  0  0  0.113983  0.091719  0  1.082787  0
H  H33  1  0.91957892  0.15969933  0.16066387  1  0  0.087912  0  1.007101  0  0  0.093672  0  1.080654  0  0  0.096201  0  1.077795  0  0  0.113979  0.091732  0  1.082779  0
H  H34  1  0.91957938  0.34029949  0.66066466  1  0  0.087915  0  1.007113  0  0  0.093674  0  1.080671  0  0  0.096203  0  1.077809  0  0  0.113983  0.091736  0  1.082795  0
H  H35  1  0.08042068  0.84030084  0.83933498  1  0  0.087907  0  1.007118  0  0  0.09367  0  1.080671  0  0  0.096199  0  1.077809  0  0  0.113989  0.091729  0  1.082798  0
H  H36  1  0.44999379  0.89878162  0.25264937  1  0  0.100289  0  0.98244  0  0  0.10607  0  1.050384  0  0  0.108943  0  1.048642  0  0  0.10677  0.103948  0  1.051758  0
H  H37  1  0.55000746  0.39878127  0.24734984  1  0  0.100259  0  0.98249  0  0  0.106066  0  1.05042  0  0  0.108979  0  1.048633  0  0  0.106775  0.103942  0  1.051794  0
H  H38  1  0.55000450  0.10122029  0.74735009  1  0  0.100268  0  0.982501  0  0  0.106073  0  1.050422  0  0  0.108969  0  1.048652  0  0  0.106775  0.103948  0  1.051795  0
H  H39  1  0.44999340  0.60121890  0.75264968  1  0  0.100242  0  0.982474  0  0  0.106045  0  1.050407  0  0  0.108958  0  1.048619  0  0  0.106773  0.10392  0  1.05178  0
H  H40  1  0.61747698  0.71379016  0.33335840  1  0  0.115161  0  0.990708  0  0  0.120791  0  1.06055  0  0  0.123541  0  1.058922  0  0  0.108585  0.11878  0  1.061833  0
H  H41  1  0.38252365  0.21379050  0.16663965  1  0  0.11513  0  0.990679  0  0  0.120757  0  1.060531  0  0  0.123509  0  1.058902  0  0  0.108577  0.118748  0  1.061812  0
H  H42  1  0.38252267  0.28621088  0.66663918  1  0  0.115196  0  0.990795  0  0  0.120817  0  1.060638  0  0  0.123569  0  1.05901  0  0  0.108599  0.118807  0  1.061919  0
H  H43  1  0.61747724  0.78621054  0.83335923  1  0  0.115132  0  0.990682  0  0  0.120767  0  1.060521  0  0  0.123517  0  1.058893  0  0  0.108567  0.118757  0  1.061801  0
H  H44  1  0.45532246  0.48911622  0.35341272  1  0  0.072163  0  0.941165  0  0  0.085968  0  1.008314  0  0  0.08658  0  1.007794  0  0  0.102435  0.08541  0  1.008879  0
H  H45  1  0.54467653  0.98911601  0.14658699  1  0  0.072151  0  0.941186  0  0  0.085908  0  1.008371  0  0  0.08652  0  1.007845  0  0  0.102425  0.085353  0  1.008932  0
H  H46  1  0.54467840  0.51088482  0.64658680  1  0  0.072183  0  0.941175  0  0  0.085934  0  1.008351  0  0  0.086546  0  1.007831  0  0  0.102429  0.08538  0  1.00891  0
H  H47  1  0.45532048  0.01088242  0.85341243  1  0  0.07213  0  0.941237  0  0  0.085892  0  1.008413  0  0  0.086503  0  1.007892  0  0  0.102429  0.085339  0  1.008971  0
H  H48  1  0.25612218  0.50723165  0.40279114  1  0  0.075036  0  0.927975  0  0  0.091448  0  0.992086  0  0  0.091687  0  0.992482  0  0  0.108961  0.091183  0  0.99194  0
H  H49  1  0.74387513  0.00723357  0.09720699  1  0  0.07503  0  0.928026  0  0  0.09143  0  0.992121  0  0  0.091668  0  0.992513  0  0  0.108937  0.091165  0  0.991974  0
H  H50  1  0.74387621  0.49276765  0.59720577  1  0  0.075064  0  0.928022  0  0  0.091458  0  0.99211  0  0  0.091697  0  0.992504  0  0  0.108947  0.091191  0  0.991965  0
H  H51  1  0.25611934  0.99276834  0.90279173  1  0  0.075027  0  0.927934  0  0  0.091437  0  0.992024  0  0  0.091675  0  0.992418  0  0  0.108954  0.091173  0  0.991878  0
H  H52  1  0.59795088  0.60898979  0.47241359  1  0  0.07185  0  0.952402  0  0  0.08735  0  1.01803  0  0  0.087776  0  1.019548  0  0  0.084923  0.086982  0  1.017062  0
H  H53  1  0.40204808  0.10899036  0.02758450  1  0  0.071852  0  0.952419  0  0  0.08735  0  1.018049  0  0  0.087777  0  1.019569  0  0  0.084913  0.086981  0  1.017082  0
H  H54  1  0.40204741  0.39100951  0.52758586  1  0  0.071833  0  0.95245  0  0  0.087325  0  1.018068  0  0  0.087752  0  1.019588  0  0  0.084912  0.086956  0  1.017101  0
H  H55  1  0.59795155  0.89101155  0.97241371  1  0  0.07183  0  0.952454  0  0  0.087335  0  1.018067  0  0  0.087761  0  1.019588  0  0  0.08492  0.086966  0  1.017099  0
H  H56  1  0.39934340  0.60957767  0.52519028  1  0  0.071124  0  0.929403  0  0  0.089041  0  0.988419  0  0  0.09011  0  0.988428  0  0  0.088695  0.088227  0  0.988461  0
H  H57  1  0.60065458  0.10957883  0.97480821  1  0  0.071141  0  0.929396  0  0  0.089068  0  0.988396  0  0  0.090142  0  0.988404  0  0  0.088689  0.088255  0  0.988437  0
H  H58  1  0.60065363  0.39042163  0.47480850  1  0  0.071173  0  0.929419  0  0  0.089063  0  0.988436  0  0  0.090136  0  0.988444  0  0  0.088692  0.08825  0  0.988477  0
H  H59  1  0.39934631  0.89042308  0.02519067  1  0  0.07117  0  0.92941  0  0  0.089054  0  0.988443  0  0  0.090125  0  0.988453  0  0  0.088696  0.088241  0  0.988484  0
C  C60  1  0.86060766  0.68575409  0.13630891  1  0  0.168886  0  3.644203  0  0  0.108541  0  3.902365  0  0  0.122314  0  3.914979  0  0  0.141072  0.099686  0  3.893604  0
C  C61  1  0.13939276  0.18575375  0.36369235  1  0  0.16885  0  3.644195  0  0  0.10852  0  3.902397  0  0  0.122293  0  3.915013  0  0  0.141055  0.099662  0  3.893634  0
C  C62  1  0.13939314  0.31424696  0.86369252  1  0  0.168798  0  3.644243  0  0  0.108453  0  3.902418  0  0  0.122225  0  3.915034  0  0  0.141049  0.099596  0  3.893657  0
C  C63  1  0.86061189  0.81424555  0.63630917  1  0  0.169077  0  3.644254  0  0  0.108735  0  3.902406  0  0  0.122509  0  3.915019  0  0  0.141156  0.099887  0  3.893656  0
C  C64  1  0.96448619  0.80548837  0.04258907  1  0  -0.012713  0  3.771141  0  0  -0.046439  0  4.036353  0  0  -0.045025  0  4.056454  0  0  -0.012798  -0.047406  0  4.022888  0
C  C65  1  0.03551601  0.30548947  0.45741022  1  0  -0.012714  0  3.771118  0  0  -0.046442  0  4.036328  0  0  -0.045029  0  4.056428  0  0  -0.012788  -0.047404  0  4.022869  0
C  C66  1  0.03551465  0.19451093  0.95741108  1  0  -0.012671  0  3.771076  0  0  -0.046411  0  4.036295  0  0  -0.044997  0  4.056395  0  0  -0.012771  -0.047373  0  4.022827  0
C  C67  1  0.96448490  0.69451244  0.54258802  1  0  -0.012723  0  3.771131  0  0  -0.046452  0  4.036354  0  0  -0.045038  0  4.056453  0  0  -0.012849  -0.047405  0  4.022889  0
C  C68  1  0.89310478  0.71383524  0.99785627  1  0  -0.064185  0  3.676376  0  0  -0.105483  0  3.935376  0  0  -0.104138  0  3.954207  0  0  -0.003714  -0.106318  0  3.92282  0
C  C69  1  0.10689994  0.21383534  0.50214422  1  0  -0.064231  0  3.676434  0  0  -0.105548  0  3.935425  0  0  -0.104204  0  3.954254  0  0  -0.00371  -0.106389  0  3.922867  0
C  C70  1  0.10689992  0.28616406  0.00214398  1  0  -0.064241  0  3.676398  0  0  -0.105558  0  3.935393  0  0  -0.104215  0  3.954223  0  0  -0.003727  -0.106399  0  3.922835  0
C  C71  1  0.89310215  0.78616396  0.49785725  1  0  -0.064175  0  3.676448  0  0  -0.105458  0  3.935432  0  0  -0.104113  0  3.954262  0  0  -0.003718  -0.106309  0  3.922872  0
C  C72  1  0.73451087  0.53132289  0.03921874  1  0  0.004461  0  3.613118  0  0  -0.058112  0  3.871367  0  0  -0.053765  0  3.882342  0  0  -0.051127  -0.060858  0  3.863797  0
C  C73  1  0.26548763  0.03132263  0.46078451  1  0  0.004662  0  3.613  0  0  -0.058011  0  3.871344  0  0  -0.05366  0  3.882317  0  0  -0.051127  -0.060773  0  3.863797  0
C  C74  1  0.26548989  0.46867728  0.96078397  1  0  0.004539  0  3.613076  0  0  -0.058182  0  3.871466  0  0  -0.053826  0  3.882434  0  0  -0.051153  -0.060929  0  3.863898  0
C  C75  1  0.73450666  0.96867754  0.53921931  1  0  0.004481  0  3.613047  0  0  -0.058147  0  3.871361  0  0  -0.053795  0  3.882329  0  0  -0.051151  -0.06089  0  3.863783  0
C  C76  1  0.54720011  0.55572785  0.01323579  1  0  -0.123022  0  3.680552  0  0  -0.160394  0  3.937425  0  0  -0.162138  0  3.951592  0  0  -0.162831  -0.159045  0  3.927582  0
C  C77  1  0.45280113  0.05572612  0.48676495  1  0  -0.123039  0  3.68058  0  0  -0.160415  0  3.937488  0  0  -0.162166  0  3.951659  0  0  -0.162864  -0.159064  0  3.927653  0
C  C78  1  0.45280201  0.44427233  0.98676439  1  0  -0.123004  0  3.680476  0  0  -0.160323  0  3.937363  0  0  -0.162073  0  3.951534  0  0  -0.162815  -0.158975  0  3.927521  0
C  C79  1  0.54719714  0.94427143  0.51323514  1  0  -0.122993  0  3.680651  0  0  -0.160306  0  3.937499  0  0  -0.162044  0  3.951658  0  0  -0.162812  -0.158957  0  3.927654  0
C  C80  1  0.20173626  0.70274427  0.32754706  1  0  0.165176  0  3.653003  0  0  0.104444  0  3.911503  0  0  0.11781  0  3.92489  0  0  0.13739  0.09589  0  3.90219  0
C  C81  1  0.79826432  0.20274531  0.17245100  1  0  0.165059  0  3.652945  0  0  0.104334  0  3.91144  0  0  0.117698  0  3.924829  0  0  0.137355  0.09578  0  3.902124  0
C  C82  1  0.79826336  0.29725591  0.67245115  1  0  0.16508  0  3.652927  0  0  0.104347  0  3.911437  0  0  0.117713  0  3.924825  0  0  0.137365  0.095792  0  3.902128  0
C  C83  1  0.20173530  0.79725487  0.82754721  1  0  0.165094  0  3.653047  0  0  0.104362  0  3.911556  0  0  0.117727  0  3.924943  0  0  0.137342  0.095809  0  3.902246  0
C  C84  1  0.39733149  0.82214404  0.28241868  1  0  -0.008885  0  3.762409  0  0  -0.042315  0  4.026768  0  0  -0.040702  0  4.045952  0  0  -0.009859  -0.043363  0  4.013956  0
C  C85  1  0.60267069  0.32214295  0.21758316  1  0  -0.008851  0  3.762503  0  0  -0.042314  0  4.026854  0  0  -0.040734  0  4.046007  0  0  -0.009852  -0.04336  0  4.014035  0
C  C86  1  0.60266807  0.17785700  0.71758144  1  0  -0.00884  0  3.762516  0  0  -0.042298  0  4.026873  0  0  -0.040701  0  4.046036  0  0  -0.009867  -0.043342  0  4.014053  0
C  C87  1  0.39733268  0.67785635  0.78241834  1  0  -0.008675  0  3.762257  0  0  -0.04212  0  4.026598  0  0  -0.040539  0  4.04575  0  0  -0.00977  -0.043167  0  4.013781  0
C  C88  1  0.48204983  0.73212698  0.32309783  1  0  -0.060641  0  3.674259  0  0  -0.101059  0  3.930662  0  0  -0.099271  0  3.949055  0  0  -0.002408  -0.102239  0  3.918395  0
C  C89  1  0.51795085  0.23212754  0.17690085  1  0  -0.060578  0  3.674127  0  0  -0.10099  0  3.930537  0  0  -0.099202  0  3.948936  0  0  -0.002378  -0.10217  0  3.918262  0
C  C90  1  0.51794588  0.26787232  0.67690220  1  0  -0.060759  0  3.674273  0  0  -0.101175  0  3.930706  0  0  -0.099388  0  3.949098  0  0  -0.002466  -0.102355  0  3.918436  0
C  C91  1  0.48205006  0.76787437  0.82309739  1  0  -0.060712  0  3.674139  0  0  -0.101132  0  3.930562  0  0  -0.099347  0  3.948964  0  0  -0.002428  -0.102311  0  3.918287  0
C  C92  1  0.38310078  0.54662127  0.39522690  1  0  0.009802  0  3.628561  0  0  -0.053763  0  3.887606  0  0  -0.049265  0  3.899398  0  0  -0.05224  -0.056706  0  3.879674  0
C  C93  1  0.61689665  0.04662210  0.10477185  1  0  0.009812  0  3.628595  0  0  -0.053679  0  3.887577  0  0  -0.049168  0  3.899354  0  0  -0.052188  -0.056624  0  3.879642  0
C  C94  1  0.61689756  0.45337890  0.60477128  1  0  0.009708  0  3.628676  0  0  -0.053754  0  3.887592  0  0  -0.049252  0  3.899383  0  0  -0.052183  -0.056703  0  3.879665  0
C  C95  1  0.38309908  0.95337894  0.89522755  1  0  0.009841  0  3.628614  0  0  -0.053651  0  3.887585  0  0  -0.049144  0  3.899367  0  0  -0.052201  -0.056608  0  3.879668  0
C  C96  1  0.47854474  0.55974822  0.48103117  1  0  -0.127164  0  3.689549  0  0  -0.166531  0  3.947782  0  0  -0.168326  0  3.961818  0  0  -0.166665  -0.165135  0  3.93813  0
C  C97  1  0.52145404  0.05974901  0.01896696  1  0  -0.127294  0  3.689595  0  0  -0.16666  0  3.947795  0  0  -0.168467  0  3.961841  0  0  -0.166688  -0.165263  0  3.938143  0
C  C98  1  0.52145360  0.44025108  0.51896701  1  0  -0.127298  0  3.689701  0  0  -0.166608  0  3.947848  0  0  -0.168412  0  3.961892  0  0  -0.166682  -0.165202  0  3.938181  0
C  C99  1  0.47854559  0.94025203  0.98103126  1  0  -0.127222  0  3.68966  0  0  -0.166552  0  3.947842  0  0  -0.168354  0  3.961886  0  0  -0.166656  -0.165148  0  3.938181  0
N  N100  1  0.94321722  0.78702416  0.12883028  1  0  -0.374517  0  3.347046  0  0  -0.291181  0  3.637164  0  0  -0.310885  0  3.651573  0  0  -0.365973  -0.277879  0  3.627091  0
N  N101  1  0.05678487  0.28702280  0.37117031  1  0  -0.374507  0  3.347117  0  0  -0.291153  0  3.63721  0  0  -0.310857  0  3.651622  0  0  -0.365955  -0.277854  0  3.627147  0
N  N102  1  0.05678362  0.21297688  0.87116988  1  0  -0.374509  0  3.34713  0  0  -0.291131  0  3.637213  0  0  -0.310836  0  3.651625  0  0  -0.365946  -0.277831  0  3.627147  0
N  N103  1  0.94321726  0.71297562  0.62882988  1  0  -0.37456  0  3.347037  0  0  -0.291242  0  3.637173  0  0  -0.310946  0  3.65158  0  0  -0.365965  -0.277943  0  3.62711  0
N  N104  1  0.82902357  0.63886151  0.05813377  1  0  -0.054179  0  3.565547  0  0  0.041376  0  3.78139  0  0  0.027001  0  3.807441  0  0  -0.238609  0.050856  0  3.763613  0
N  N105  1  0.17097671  0.13886025  0.44186625  1  0  -0.054211  0  3.565598  0  0  0.041359  0  3.781479  0  0  0.026985  0  3.807527  0  0  -0.238648  0.050846  0  3.763701  0
N  N106  1  0.17097729  0.36113866  0.94186575  1  0  -0.054152  0  3.565608  0  0  0.041427  0  3.781487  0  0  0.027053  0  3.807535  0  0  -0.238631  0.050907  0  3.763711  0
N  N107  1  0.82902282  0.86113818  0.55813451  1  0  -0.054402  0  3.565888  0  0  0.041164  0  3.781751  0  0  0.026787  0  3.807799  0  0  -0.238689  0.05065  0  3.763965  0
N  N108  1  0.22233859  0.80286777  0.28569756  1  0  -0.38055  0  3.354651  0  0  -0.297749  0  3.64863  0  0  -0.317375  0  3.662279  0  0  -0.369869  -0.284501  0  3.639075  0
N  N109  1  0.77766230  0.30286784  0.21430234  1  0  -0.380604  0  3.354696  0  0  -0.2978  0  3.648677  0  0  -0.317429  0  3.662338  0  0  -0.369896  -0.284553  0  3.639119  0
N  N110  1  0.77765966  0.19713327  0.71430317  1  0  -0.380594  0  3.354706  0  0  -0.297787  0  3.648684  0  0  -0.317416  0  3.66234  0  0  -0.369865  -0.284538  0  3.639127  0
N  N111  1  0.22233983  0.69713146  0.78569785  1  0  -0.380633  0  3.354628  0  0  -0.297845  0  3.648634  0  0  -0.317474  0  3.662294  0  0  -0.369908  -0.284598  0  3.639082  0
N  N112  1  0.35615201  0.65762562  0.35116502  1  0  -0.053724  0  3.567057  0  0  0.042671  0  3.780694  0  0  0.027971  0  3.807257  0  0  -0.239578  0.052391  0  3.762624  0
N  N113  1  0.64384841  0.15762730  0.14883307  1  0  -0.053586  0  3.566929  0  0  0.042801  0  3.780534  0  0  0.028098  0  3.807095  0  0  -0.239549  0.052523  0  3.762461  0
N  N114  1  0.64384761  0.34237455  0.64883319  1  0  -0.053524  0  3.56679  0  0  0.042849  0  3.780396  0  0  0.02815  0  3.806959  0  0  -0.239553  0.052569  0  3.762327  0
N  N115  1  0.35615124  0.84237461  0.85116450  1  0  -0.053621  0  3.567028  0  0  0.042753  0  3.780652  0  0  0.028053  0  3.807211  0  0  -0.239581  0.052476  0  3.762583  0
Cl  Cl116  1  0.16976141  0.03833273  0.15472214  1  0  -0.560649  0  0.964212  0  0  -0.494109  0  1.245492  0  0  -0.508214  0  1.222315  0  0  -0.286154  -0.483917  0  1.261419  0
Cl  Cl117  1  0.83023980  0.53833273  0.34527798  1  0  -0.560673  0  0.964185  0  0  -0.494136  0  1.24547  0  0  -0.508243  0  1.222296  0  0  -0.286166  -0.483944  0  1.261396  0
Cl  Cl118  1  0.83024072  0.96166744  0.84527805  1  0  -0.560631  0  0.96418  0  0  -0.494097  0  1.245469  0  0  -0.508205  0  1.222295  0  0  -0.286151  -0.483905  0  1.261395  0
Cl  Cl119  1  0.16976103  0.46166657  0.65472281  1  0  -0.560661  0  0.964219  0  0  -0.494115  0  1.245489  0  0  -0.508221  0  1.222314  0  0  -0.286156  -0.483925  0  1.261418  0
Cl  Cl120  1  0.82474186  0.95083658  0.30805127  1  0  -0.573598  0  0.895624  0  0  -0.510435  0  1.16166  0  0  -0.524941  0  1.140494  0  0  -0.324797  -0.500015  0  1.176117  0
Cl  Cl121  1  0.17525707  0.45083218  0.19194656  1  0  -0.573599  0  0.895614  0  0  -0.510443  0  1.161648  0  0  -0.524949  0  1.140484  0  0  -0.324805  -0.50002  0  1.176102  0
Cl  Cl122  1  0.17525649  0.04916794  0.69194691  1  0  -0.573623  0  0.895626  0  0  -0.510462  0  1.161662  0  0  -0.524968  0  1.140495  0  0  -0.324814  -0.500039  0  1.176116  0
Cl  Cl123  1  0.82474128  0.54916711  0.80805162  1  0  -0.573596  0  0.895595  0  0  -0.510441  0  1.161633  0  0  -0.524948  0  1.14047  0  0  -0.324794  -0.500017  0  1.176088  0
