# generated using pymatgen
data_CoH17C23NO10
_symmetry_space_group_name_H-M   'P 1'
_cell_length_a   4.81229360
_cell_length_b   15.79412045
_cell_length_c   16.07343711
_cell_angle_alpha   57.38290168
_cell_angle_beta   84.28279839
_cell_angle_gamma   79.15779007
_symmetry_Int_Tables_number   1
_chemical_formula_structural   CoH17C23NO10
_chemical_formula_sum   'Co2 H34 C46 N2 O20'
_cell_volume   1010.63684903
_cell_formula_units_Z   2
loop_
 _symmetry_equiv_pos_site_id
 _symmetry_equiv_pos_as_xyz
  1  'x, y, z'
loop_
 _atom_site_type_symbol
 _atom_site_label
 _atom_site_symmetry_multiplicity
 _atom_site_fract_x
 _atom_site_fract_y
 _atom_site_fract_z
 _atom_site_occupancy
 _atom_site_pbe_bader_charge
 _atom_site_pbe_bader_spin_density
 _atom_site_pbe_cm5_charge
 _atom_site_pbe_ddec_charge
 _atom_site_pbe_ddec_spin_density
 _atom_site_pbe_ddec_sum_bond_order
 _atom_site_pbe_magmom
Co  Co0  1  0.75920256  0.69452926  0.66734488  1  1.290403  -2.607129  0.65749  1.013374  -2.806168  2.305279  -2.569
Co  Co1  1  0.24079888  0.30547116  0.33265540  1  1.290375  -2.60713  0.657488  1.013404  -2.80617  2.30523  -2.569
H  H2  1  0.41471991  0.39076163  0.93807111  1  0.668296  5e-06  0.299043  0.373462  -2e-06  0.96681  0.0
H  H3  1  0.58530842  0.60923377  0.06193716  1  0.668068  5e-06  0.299043  0.373482  -2e-06  0.966714  0.0
H  H4  1  0.83896270  0.67349672  0.83803040  1  0.657552  -0.000372  0.299969  0.389505  -2e-05  0.945823  0.0
H  H5  1  0.16102858  0.32650310  0.16196860  1  0.657575  -0.000372  0.299966  0.389516  -2e-05  0.945807  0.0
H  H6  1  0.67563269  0.58199827  0.85795723  1  0.641455  -0.000379  0.302259  0.397061  -0.000371  0.921641  0.0
H  H7  1  0.32435828  0.41800231  0.14204140  1  0.64143  -0.000379  0.302242  0.39706  -0.000371  0.921626  0.0
H  H8  1  0.83114512  0.81240411  0.86506334  1  0.64638  5.4e-05  0.295097  0.354041  6.6e-05  0.999392  0.0
H  H9  1  0.16886229  0.18759697  0.13493770  1  0.646305  5.4e-05  0.295068  0.35395  6.6e-05  0.999431  0.0
H  H10  1  0.56698123  0.07159800  0.99524189  1  0.070565  -4e-06  0.101111  0.100188  -1e-06  1.023914  0.0
H  H11  1  0.43302408  0.92839776  0.00476249  1  0.066936  -4e-06  0.101098  0.100178  -1e-06  1.023977  0.0
H  H12  1  0.91550560  0.03773447  0.88753462  1  0.103717  -0.0  0.103966  0.118409  3e-06  1.010877  0.0
H  H13  1  0.08449316  0.96226757  0.11246307  1  0.103724  -0.0  0.103942  0.118363  3e-06  1.010849  0.0
H  H14  1  0.80269084  0.36761164  0.87512637  1  0.082479  -8e-05  0.107752  0.111972  4.5e-05  1.010565  0.0
H  H15  1  0.19731357  0.63238628  0.12487943  1  0.082554  -8e-05  0.107761  0.111991  4.5e-05  1.010535  0.0
H  H16  1  0.20240591  0.47591275  0.74343200  1  0.053192  -4.6e-05  0.102776  0.103936  0.000175  1.033065  0.0
H  H17  1  0.79759374  0.52409223  0.25656606  1  0.053195  -4.6e-05  0.102761  0.103932  0.000175  1.033107  0.0
H  H18  1  0.82608017  0.43121623  0.55266546  1  0.166438  -3.3e-05  0.110018  0.121312  1.2e-05  1.004237  0.0
H  H19  1  0.17392876  0.56878124  0.44733298  1  0.166457  -3.3e-05  0.110011  0.12133  1.2e-05  1.004202  0.0
H  H20  1  0.67216595  0.26941876  0.60234371  1  0.077158  -8.5e-05  0.100692  0.107525  7e-06  1.048034  0.0
H  H21  1  0.32782412  0.73057868  0.39765900  1  0.077171  -8.5e-05  0.100694  0.107553  7e-06  1.048031  0.0
H  H22  1  0.41829848  0.03235205  0.81604711  1  0.080314  -8.2e-05  0.108848  0.092414  -3.4e-05  1.003479  0.0
H  H23  1  0.58169758  0.96765153  0.18394988  1  0.080225  -8.2e-05  0.108852  0.092362  -3.4e-05  1.003423  0.0
H  H24  1  0.57187932  0.11658054  0.70331616  1  0.109854  -3.3e-05  0.112387  0.094619  -4e-06  1.030936  0.0
H  H25  1  0.42810388  0.88342385  0.29668140  1  0.109803  -3.3e-05  0.112418  0.094638  -4e-06  1.030847  0.0
H  H26  1  0.12694859  0.23248808  0.55667038  1  0.153015  -8e-06  0.116171  0.132876  6e-05  1.015964  0.0
H  H27  1  0.87303939  0.76751480  0.44332719  1  0.153029  -8e-06  0.116163  0.132833  6e-05  1.015923  0.0
H  H28  1  0.70557429  0.01861187  0.54992760  1  0.104706  -0.000239  0.116516  0.131348  -3.7e-05  0.981405  0.0
H  H29  1  0.29442447  0.98139014  0.45007072  1  0.104701  -0.000239  0.116525  0.131368  -3.7e-05  0.981388  0.0
H  H30  1  0.19982381  0.92167366  0.80486666  1  0.112998  1.6e-05  0.103652  0.107496  3.3e-05  1.02399  0.0
H  H31  1  0.80016837  0.07832922  0.19513016  1  0.112923  1.6e-05  0.103647  0.107555  3.3e-05  1.023932  0.0
H  H32  1  0.48369456  0.52551799  0.79552140  1  0.647508  -0.000407  0.287806  0.375407  -0.000311  0.984393  0.0
H  H33  1  0.51629641  0.47448256  0.20447786  1  0.647384  -0.000407  0.28782  0.375423  -0.000311  0.984366  0.0
H  H34  1  0.20940909  0.54400540  0.85381254  1  0.654279  -0.000282  0.298145  0.39347  -5.4e-05  0.924509  0.0
H  H35  1  0.79058935  0.45599201  0.14618933  1  0.654276  -0.000282  0.298116  0.393432  -5.4e-05  0.924571  0.0
C  C36  1  0.44650836  0.23532606  0.00634181  1  1.431352  -6.4e-05  0.234464  0.585144  -2.2e-05  4.085772  0.0
C  C37  1  0.55351099  0.76467092  0.99366593  1  1.431768  -6.4e-05  0.234413  0.585003  -2.2e-05  4.086152  0.0
C  C38  1  0.65915680  0.22134439  0.94138195  1  0.044201  -0.000212  -0.041376  -0.114093  -0.000107  4.081999  0.0
C  C39  1  0.34085719  0.77865583  0.05862058  1  0.043947  -0.000212  -0.041382  -0.11414  -0.000107  4.082225  0.0
C  C40  1  0.69734149  0.12841260  0.94450954  1  -0.081636  2.8e-05  -0.086799  -0.080878  4.1e-05  3.993896  0.0
C  C41  1  0.30266114  0.87158472  0.05549351  1  -0.077978  2.8e-05  -0.08674  -0.080802  4.1e-05  3.994111  0.0
C  C42  1  0.89097141  0.10946248  0.88426845  1  0.004449  -0.000116  -0.099975  -0.178561  -5.8e-05  3.997772  0.0
C  C43  1  0.10902584  0.89053797  0.11573194  1  0.004432  -0.000116  -0.09994  -0.178418  -5.8e-05  3.997722  0.0
C  C44  1  0.05040261  0.18580078  0.81925888  1  0.360392  1e-06  0.108216  0.14442  3e-06  4.003869  0.0
C  C45  1  0.94959495  0.81419902  0.18073934  1  0.360361  1e-06  0.108272  0.144356  3e-06  4.003958  0.0
C  C46  1  0.02028736  0.27929960  0.81637942  1  0.010763  -0.000195  -0.013861  -0.0145  -8.1e-05  4.029723  0.0
C  C47  1  0.97971887  0.72069927  0.18362150  1  0.010648  -0.000195  -0.013904  -0.014576  -8.1e-05  4.029913  0.0
C  C48  1  0.82431857  0.29660144  0.87724543  1  -0.021042  4.9e-05  -0.076219  -0.105361  8.9e-05  3.951996  0.0
C  C49  1  0.17569362  0.70339798  0.12275880  1  -0.020926  4.8e-05  -0.076279  -0.105373  8.9e-05  3.952229  0.0
C  C50  1  0.22305835  0.33744735  0.74497712  1  -0.055738  0.000131  -0.019507  -0.026545  0.000225  4.051762  0.0
C  C51  1  0.77694071  0.66255395  0.25502030  1  -0.055646  0.000131  -0.019459  -0.02645  0.000225  4.051731  0.0
C  C52  1  0.30880946  0.42936828  0.71514447  1  0.053731  -0.001815  -0.08395  -0.116154  -0.000823  3.948623  -0.001
C  C53  1  0.69119138  0.57063366  0.28485507  1  0.053763  -0.001816  -0.083945  -0.116171  -0.000823  3.948636  -0.001
C  C54  1  0.53228121  0.46097359  0.64827863  1  0.014072  -0.002693  -0.022109  -0.050821  -0.001321  3.980506  -0.002
C  C55  1  0.46771933  0.53902386  0.35172192  1  0.014225  -0.002693  -0.022121  -0.050873  -0.001321  3.9805  -0.002
C  C56  1  0.65703254  0.40396571  0.60658388  1  -0.035671  -0.001667  -0.07272  -0.065669  -0.00082  3.934971  -0.001
C  C57  1  0.34296771  0.59603250  0.39341630  1  -0.035869  -0.001668  -0.072705  -0.065565  -0.00082  3.93484  -0.001
C  C58  1  0.57406944  0.31229820  0.63525057  1  0.015377  -0.000218  -0.093494  -0.151659  -5e-05  3.986003  0.0
C  C59  1  0.42592991  0.68770229  0.36474849  1  0.015319  -0.000218  -0.093486  -0.15175  -5e-05  3.986013  0.0
C  C60  1  0.36282956  0.27824542  0.70640632  1  0.286653  -0.0013  0.102178  0.138212  -0.000664  3.990013  -0.001
C  C61  1  0.63717278  0.72175272  0.29359508  1  0.286324  -0.001301  0.102135  0.138162  -0.000664  3.989983  -0.001
C  C62  1  0.65675016  0.55098380  0.62477048  1  1.526493  -0.000205  0.212351  0.588829  0.000417  4.162004  0.001
C  C63  1  0.34326477  0.44901447  0.37522552  1  1.52687  -0.000204  0.212336  0.588814  0.000417  4.162125  0.001
C  C64  1  0.36934811  0.10076916  0.74217671  1  0.2887  -0.000217  -0.046505  -0.099359  -0.000119  3.896694  0.0
C  C65  1  0.63064438  0.89922778  0.25781995  1  0.288745  -0.000217  -0.046584  -0.099296  -0.000119  3.896796  0.0
C  C66  1  0.18015121  0.07944452  0.68778488  1  -0.058575  -0.000928  -0.010565  0.086081  -0.000448  3.955404  -0.001
C  C67  1  0.81983201  0.92055478  0.31221024  1  -0.05851  -0.000928  -0.010502  0.086066  -0.000447  3.955583  -0.001
C  C68  1  0.07574240  0.15557594  0.59304850  1  -0.016033  0.000241  -0.064282  -0.118626  0.000814  3.870522  0.0
C  C69  1  0.92424080  0.84442857  0.40694651  1  -0.016468  0.000239  -0.064274  -0.118558  0.000812  3.870487  0.0
C  C70  1  0.89813333  0.13420273  0.54474893  1  -0.002739  -0.006865  -0.009334  -0.031145  -0.003272  3.957921  -0.005
C  C71  1  0.10185285  0.86579935  0.45525033  1  -0.002354  -0.006865  -0.009487  -0.031367  -0.003272  3.957964  -0.005
C  C72  1  0.83924560  0.03563672  0.58813236  1  0.000909  7.2e-05  -0.064879  -0.085063  0.000452  3.903351  0.0
C  C73  1  0.16076813  0.96436456  0.41186280  1  0.000887  7e-05  -0.0649  -0.08506  0.000451  3.903178  0.0
C  C74  1  0.95054366  0.95865316  0.68103140  1  -0.027989  -0.002731  -0.021411  -0.055247  -0.001364  4.02181  -0.002
C  C75  1  0.04944702  0.04134820  0.31896623  1  -0.027893  -0.002732  -0.021371  -0.055253  -0.001365  4.021594  -0.002
C  C76  1  0.11550363  0.98128716  0.73172675  1  -0.072716  0.000242  -0.080658  -0.143145  0.000443  3.927082  0.0
C  C77  1  0.88447447  0.01871421  0.26827309  1  -0.072567  0.000241  -0.080644  -0.143177  0.000442  3.926991  0.0
C  C78  1  0.75810742  0.21615462  0.44866428  1  1.561195  -0.00699  0.2284  0.606462  -0.005808  4.140557  -0.005
C  C79  1  0.24187876  0.78384745  0.55133498  1  1.561076  -0.006991  0.228356  0.606493  -0.005808  4.140477  -0.005
C  C80  1  0.89525288  0.85432685  0.72019408  1  1.51294  0.003239  0.237547  0.598023  0.004703  4.080207  0.002
C  C81  1  0.10474766  0.14567580  0.27980636  1  1.513031  0.003238  0.237596  0.59806  0.004701  4.080127  0.002
N  N82  1  0.25431396  0.18695382  0.75222221  1  -1.217203  -0.000539  -0.244619  -0.057416  -0.000241  3.678663  0.0
N  N83  1  0.74569287  0.81304360  0.24777756  1  -1.21689  -0.000539  -0.244557  -0.057342  -0.000242  3.678732  0.0
O  O84  1  0.33422953  0.16103545  0.07467130  1  -1.168762  -1.5e-05  -0.294231  -0.499961  -8e-06  2.236934  0.0
O  O85  1  0.66578803  0.83896078  0.92533685  1  -1.169185  -1.5e-05  -0.294248  -0.499899  -8e-06  2.236938  0.0
O  O86  1  0.36575763  0.32403596  0.99895550  1  -1.195442  -0.000435  -0.336221  -0.487785  -0.000177  2.326338  0.0
O  O87  1  0.63428894  0.67596069  0.00105476  1  -1.19525  -0.000435  -0.336207  -0.487791  -0.000178  2.326504  0.0
O  O88  1  0.83361046  0.62050817  0.82249826  1  -1.258443  -0.053942  -0.552874  -0.761958  -0.028038  2.177309  -0.039
O  O89  1  0.16638051  0.37949238  0.17750101  1  -1.258462  -0.053944  -0.552854  -0.761971  -0.028037  2.177235  -0.039
O  O90  1  0.65494767  0.56541128  0.69900785  1  -1.158755  -0.082255  -0.342364  -0.625526  -0.042873  2.455837  -0.066
O  O91  1  0.34503882  0.43459014  0.30098923  1  -1.158918  -0.082249  -0.342357  -0.62551  -0.04287  2.455922  -0.066
O  O92  1  0.76560006  0.60563369  0.54398509  1  -1.159749  -0.012005  -0.292028  -0.509202  -0.005639  2.157171  -0.01
O  O93  1  0.23441516  0.39436373  0.45601319  1  -1.159976  -0.012011  -0.292036  -0.509235  -0.005642  2.157183  -0.01
O  O94  1  0.86576332  0.29649636  0.39087171  1  -1.153225  -0.088946  -0.314721  -0.565246  -0.04475  2.438573  -0.069
O  O95  1  0.13423245  0.70350278  0.60912501  1  -1.153243  -0.088952  -0.314696  -0.565208  -0.044753  2.438515  -0.069
O  O96  1  0.52449056  0.20127739  0.43157688  1  -1.126582  -0.100822  -0.299372  -0.544486  -0.051439  2.417193  -0.081
O  O97  1  0.47549742  0.79872549  0.56842068  1  -1.126479  -0.100823  -0.299356  -0.544495  -0.051439  2.41714  -0.081
O  O98  1  0.83180565  0.83150984  0.66260512  1  -1.137501  -0.029335  -0.266887  -0.506377  -0.013739  2.373679  -0.027
O  O99  1  0.16819758  0.16849127  0.33739601  1  -1.137581  -0.029336  -0.266946  -0.506427  -0.01374  2.373695  -0.027
O  O100  1  0.92283692  0.78545544  0.81677129  1  -1.189727  0.001339  -0.331519  -0.51536  0.001789  2.345164  0.001
O  O101  1  0.07715135  0.21454654  0.18322983  1  -1.189727  0.001339  -0.331494  -0.515262  0.001789  2.345147  0.001
O  O102  1  0.40714902  0.50841432  0.86413997  1  -1.293918  -0.001715  -0.56432  -0.755406  -0.00051  2.04629  -0.001
O  O103  1  0.59284883  0.49158463  0.13586052  1  -1.293698  -0.001716  -0.564305  -0.755392  -0.00051  2.046348  -0.001
