# generated using pymatgen
data_Cu3H25WC30S3BrN10O
_symmetry_space_group_name_H-M   'P 1'
_cell_length_a   10.78638821
_cell_length_b   12.47673292
_cell_length_c   14.42550000
_cell_angle_alpha   66.83729161
_cell_angle_beta   75.83349616
_cell_angle_gamma   79.17858997
_symmetry_Int_Tables_number   1
_chemical_formula_structural   Cu3H25WC30S3BrN10O
_chemical_formula_sum   'Cu6 H50 W2 C60 S6 Br2 N20 O2'
_cell_volume   1721.45947923
_cell_formula_units_Z   2
loop_
 _symmetry_equiv_pos_site_id
 _symmetry_equiv_pos_as_xyz
  1  'x, y, z'
loop_
 _atom_site_type_symbol
 _atom_site_label
 _atom_site_symmetry_multiplicity
 _atom_site_fract_x
 _atom_site_fract_y
 _atom_site_fract_z
 _atom_site_occupancy
 _atom_site_hle17_bader_spin_density
 _atom_site_hle17_ddec_charge
 _atom_site_hle17_ddec_spin_density
 _atom_site_hle17_ddec_sum_bond_order
 _atom_site_hle17_magmom
 _atom_site_hse06_10hf_bader_spin_density
 _atom_site_hse06_10hf_ddec_charge
 _atom_site_hse06_10hf_ddec_spin_density
 _atom_site_hse06_10hf_ddec_sum_bond_order
 _atom_site_hse06_10hf_magmom
 _atom_site_hse06_bader_spin_density
 _atom_site_hse06_ddec_charge
 _atom_site_hse06_ddec_spin_density
 _atom_site_hse06_ddec_sum_bond_order
 _atom_site_hse06_magmom
 _atom_site_pbe_bader_charge
 _atom_site_pbe_bader_spin_density
 _atom_site_pbe_cm5_charge
 _atom_site_pbe_ddec_charge
 _atom_site_pbe_ddec_spin_density
 _atom_site_pbe_ddec_sum_bond_order
 _atom_site_pbe_magmom
Cu  Cu0  1  0.07793055  0.76124235  0.02432762  1  0  0.39337  0  2.29718  0  0  0.31343  0  2.798702  0  0  0.304379  0  2.765623  0  0.591438  0  0.443993  0.322076  0  2.819229  0
Cu  Cu1  1  0.92206996  0.23875679  0.97567328  1  0  0.393374  0  2.297132  0  0  0.313464  0  2.798671  0  0  0.304399  0  2.765569  0  0.591404  0  0.444017  0.3221  0  2.819214  0
Cu  Cu2  1  0.09432253  0.45979209  0.22458810  1  0  0.39433  0  2.355535  0  0  0.317435  0  2.858451  0  0  0.307116  0  2.827405  0  0.587424  0  0.456038  0.326603  0  2.877798  0
Cu  Cu3  1  0.90567703  0.54020705  0.77541297  1  0  0.39429  0  2.355587  0  0  0.317432  0  2.858521  0  0  0.307081  0  2.827456  0  0.587472  0  0.456023  0.326589  0  2.877841  0
Cu  Cu4  1  0.06841257  0.71128634  0.30604558  1  0  0.404025  0  2.269219  0  0  0.335421  0  2.766221  0  0  0.3295  0  2.731117  0  0.542632  0  0.365525  0.340717  0  2.789072  0
Cu  Cu5  1  0.93158699  0.28871280  0.69395549  1  0  0.404026  0  2.269221  0  0  0.335432  0  2.766221  0  0  0.329512  0  2.731115  0  0.542786  0  0.365537  0.340723  0  2.789067  0
H  H6  1  0.84672951  0.75433990  0.49134490  1  0  0.096211  0  0.959061  0  0  0.102623  0  1.028329  0  0  0.105448  0  1.024933  0  0.15892  0  0.125588  0.100443  0  1.030946  0
H  H7  1  0.15327081  0.24566100  0.50865613  1  0  0.096192  0  0.959104  0  0  0.102609  0  1.028373  0  0  0.105434  0  1.024979  0  0.158942  0  0.125597  0.100431  0  1.030992  0
H  H8  1  0.57392949  0.76224056  0.31944736  1  0  0.108359  0  0.984727  0  0  0.119732  0  1.046161  0  0  0.12191  0  1.04555  0  0.130358  0  0.118243  0.118006  0  1.046835  0
H  H9  1  0.42607093  0.23775946  0.68055325  1  0  0.108325  0  0.984743  0  0  0.119694  0  1.046182  0  0  0.121873  0  1.045572  0  0.130324  0  0.118224  0.117969  0  1.046852  0
H  H10  1  0.43840739  0.85993004  0.39760654  1  0  0.1051  0  0.96157  0  0  0.114888  0  1.024609  0  0  0.117539  0  1.023652  0  0.096041  0  0.105107  0.112946  0  1.025422  0
H  H11  1  0.56159263  0.14007348  0.60239226  1  0  0.105114  0  0.961536  0  0  0.114904  0  1.024565  0  0  0.117557  0  1.023605  0  0.09602  0  0.105112  0.112962  0  1.025378  0
H  H12  1  0.02759673  0.19792401  0.37868066  1  0  0.108048  0  0.972259  0  0  0.111371  0  1.041877  0  0  0.114802  0  1.040061  0  0.138096  0  0.104606  0.108962  0  1.043038  0
H  H13  1  0.97240504  0.80207250  0.62131881  1  0  0.108071  0  0.972184  0  0  0.111393  0  1.041816  0  0  0.114824  0  1.04  0  0.137997  0  0.104624  0.108983  0  1.042978  0
H  H14  1  0.32141263  0.31213521  0.11970575  1  0  0.092125  0  0.946763  0  0  0.103447  0  1.006858  0  0  0.105395  0  1.004874  0  0.138864  0  0.132826  0.10188  0  1.008508  0
H  H15  1  0.67858780  0.68786481  0.88029417  1  0  0.092129  0  0.946781  0  0  0.103433  0  1.006893  0  0  0.105383  0  1.004908  0  0.138855  0  0.132831  0.101867  0  1.008541  0
H  H16  1  0.84465025  0.62362627  0.03018894  1  0  0.106088  0  0.958564  0  0  0.118195  0  1.015878  0  0  0.119819  0  1.01598  0  0.106268  0  0.113244  0.116906  0  1.015957  0
H  H17  1  0.15535027  0.37637287  0.96981195  1  0  0.106113  0  0.958532  0  0  0.118223  0  1.015842  0  0  0.119846  0  1.015945  0  0.106053  0  0.113253  0.116934  0  1.015923  0
H  H18  1  0.85768723  0.41037594  0.14349251  1  0  0.104696  0  0.961915  0  0  0.117359  0  1.019706  0  0  0.119297  0  1.0189  0  0.140305  0  0.108121  0.11588  0  1.02042  0
H  H19  1  0.14231224  0.58962407  0.85650689  1  0  0.104705  0  0.961909  0  0  0.117363  0  1.019709  0  0  0.1193  0  1.018902  0  0.140311  0  0.108115  0.115883  0  1.020423  0
H  H20  1  0.67611472  0.08506684  0.02886690  1  0  0.105747  0  0.983597  0  0  0.11348  0  1.053609  0  0  0.115213  0  1.053756  0  0.088749  0  0.098016  0.112042  0  1.053967  0
H  H21  1  0.32388857  0.91493318  0.97113388  1  0  0.105731  0  0.983693  0  0  0.113463  0  1.053706  0  0  0.115197  0  1.053851  0  0.088789  0  0.098008  0.112025  0  1.054063  0
H  H22  1  0.31923185  0.73253355  0.85623564  1  0  0.08871  0  0.944431  0  0  0.101134  0  1.004424  0  0  0.102889  0  1.002657  0  0.138854  0  0.130726  0.099806  0  1.005739  0
H  H23  1  0.68076665  0.26746647  0.14376255  1  0  0.088679  0  0.944442  0  0  0.1011  0  1.004443  0  0  0.102854  0  1.002676  0  0.138838  0  0.130709  0.099773  0  1.005759  0
H  H24  1  0.59104690  0.70704111  0.08616890  1  0  0.132917  0  0.982678  0  0  0.142792  0  1.042794  0  0  0.146833  0  1.03952  0  0.185247  0  0.119443  0.140247  0  1.044559  0
H  H25  1  0.40895352  0.29295891  0.91383102  1  0  0.132893  0  0.982718  0  0  0.142783  0  1.042819  0  0  0.146825  0  1.039544  0  0.185235  0  0.119438  0.140239  0  1.044583  0
H  H26  1  0.46384746  0.54585801  0.32359351  1  0  0.107948  0  0.962274  0  0  0.116675  0  1.027938  0  0  0.119103  0  1.027281  0  0.115103  0  0.102356  0.114911  0  1.028338  0
H  H27  1  0.53615286  0.45414288  0.67640613  1  0  0.107893  0  0.962312  0  0  0.116616  0  1.027982  0  0  0.119042  0  1.027328  0  0.115102  0  0.102337  0.11485  0  1.028384  0
H  H28  1  0.82090446  0.71061503  0.22245444  1  0  0.102238  0  0.986318  0  0  0.109558  0  1.051052  0  0  0.11144  0  1.051274  0  0.1112  0  0.115352  0.108076  0  1.051136  0
H  H29  1  0.17909435  0.28938236  0.77754805  1  0  0.102214  0  0.986325  0  0  0.109519  0  1.051084  0  0  0.111424  0  1.051279  0  0.111159  0  0.115334  0.108035  0  1.051168  0
H  H30  1  0.84108103  0.95387822  0.04698722  1  0  0.10004  0  0.944643  0  0  0.110554  0  1.008316  0  0  0.11306  0  1.00495  0  0.161512  0  0.129793  0.108609  0  1.010817  0
H  H31  1  0.15892140  0.04612092  0.95301262  1  0  0.100034  0  0.944633  0  0  0.110544  0  1.008309  0  0  0.11305  0  1.004943  0  0.161588  0  0.129788  0.108598  0  1.010812  0
H  H32  1  0.50938038  0.78813088  0.74504374  1  0  0.088693  0  0.990056  0  0  0.096867  0  1.05949  0  0  0.098977  0  1.058726  0  0.04953  0  0.100437  0.09524  0  1.060285  0
H  H33  1  0.49061592  0.21187176  0.25495603  1  0  0.088666  0  0.99011  0  0  0.096843  0  1.05954  0  0  0.098953  0  1.05878  0  0.049252  0  0.100445  0.095217  0  1.060335  0
H  H34  1  0.50152934  0.20624271  0.09575707  1  0  0.096393  0  0.960249  0  0  0.109349  0  1.020989  0  0  0.111913  0  1.019184  0  0.031196  0  0.106789  0.107334  0  1.022585  0
H  H35  1  0.49847319  0.79375556  0.90424444  1  0  0.096362  0  0.960229  0  0  0.109323  0  1.020965  0  0  0.111888  0  1.01916  0  0.031149  0  0.106792  0.107307  0  1.022561  0
H  H36  1  0.71218638  0.40927169  0.54781209  1  0  0.107577  0  0.997992  0  0  0.116333  0  1.063667  0  0  0.118742  0  1.062788  0  0.122481  0  0.090092  0.11446  0  1.064601  0
H  H37  1  0.28781374  0.59073096  0.45218699  1  0  0.107598  0  0.997948  0  0  0.116363  0  1.063601  0  0  0.118773  0  1.062722  0  0.122456  0  0.090096  0.114488  0  1.064536  0
H  H38  1  0.60677609  0.42992997  0.24947274  1  0  0.115879  0  0.955054  0  0  0.129472  0  1.0103  0  0  0.131975  0  1.009205  0  0.099487  0  0.12244  0.127689  0  1.011  0
H  H39  1  0.39322337  0.57007005  0.75052804  1  0  0.115886  0  0.955048  0  0  0.129479  0  1.010293  0  0  0.131984  0  1.009197  0  0.09949  0  0.122449  0.127698  0  1.010991  0
H  H40  1  0.00105587  0.98911875  0.81743239  1  0  0.111249  0  0.964896  0  0  0.122481  0  1.023866  0  0  0.124396  0  1.023383  0  0.118246  0  0.107412  0.121027  0  1.024445  0
H  H41  1  0.99894264  0.01088126  0.18256857  1  0  0.111209  0  0.964963  0  0  0.122454  0  1.02392  0  0  0.124369  0  1.023435  0  0.118296  0  0.107402  0.121  0  1.0245  0
H  H42  1  0.86505102  0.47422887  0.40805410  1  0  0.103434  0  0.934859  0  0  0.11398  0  0.995093  0  0  0.115936  0  0.992824  0  0.153319  0  0.132531  0.11242  0  0.996918  0
H  H43  1  0.13494844  0.52577115  0.59194461  1  0  0.10347  0  0.934777  0  0  0.11396  0  0.995092  0  0  0.115917  0  0.992821  0  0.153299  0  0.132524  0.112404  0  0.996913  0
H  H44  1  0.15254466  0.01655063  0.62680308  1  0  0.115484  0  0.961099  0  0  0.123041  0  1.02653  0  0  0.126147  0  1.024455  0  0.105799  0  0.121026  0.120849  0  1.027906  0
H  H45  1  0.84745365  0.98345114  0.37319732  1  0  0.115472  0  0.96112  0  0  0.123037  0  1.026532  0  0  0.12616  0  1.024439  0  0.105807  0  0.121027  0.120845  0  1.02791  0
H  H46  1  0.45134502  0.78895031  0.17941026  1  0  0.114833  0  0.966384  0  0  0.124058  0  1.02912  0  0  0.126976  0  1.027806  0  0.114438  0  0.107188  0.122006  0  1.029838  0
H  H47  1  0.54865626  0.21105059  0.82058782  1  0  0.11484  0  0.966346  0  0  0.124055  0  1.029099  0  0  0.126974  0  1.027783  0  0.114426  0  0.107177  0.122001  0  1.02982  0
H  H48  1  0.27545563  0.91039611  0.24629196  1  0  0.110141  0  0.990862  0  0  0.118043  0  1.057224  0  0  0.121055  0  1.055801  0  0.126064  0  0.093512  0.115748  0  1.058482  0
H  H49  1  0.72454479  0.08960391  0.75370657  1  0  0.110116  0  0.990887  0  0  0.118018  0  1.05725  0  0  0.121033  0  1.055822  0  0.12604  0  0.093492  0.115724  0  1.058506  0
H  H50  1  0.17066959  0.00152580  0.34596007  1  0  0.113302  0  1.022306  0  0  0.11972  0  1.089447  0  0  0.123357  0  1.08696  0  0.157556  0  0.100431  0.117103  0  1.091181  0
H  H51  1  0.82933399  0.99847159  0.65403947  1  0  0.113344  0  1.022225  0  0  0.119711  0  1.089422  0  0  0.123347  0  1.086935  0  0.157613  0  0.100418  0.117093  0  1.091156  0
H  H52  1  0.25905783  0.89963666  0.52487444  1  0  0.110103  0  0.953768  0  0  0.119471  0  1.01602  0  0  0.122594  0  1.014187  0  0.11258  0  0.104321  0.117283  0  1.017219  0
H  H53  1  0.74094048  0.10036511  0.47512388  1  0  0.11011  0  0.953808  0  0  0.119457  0  1.016079  0  0  0.122599  0  1.014227  0  0.11246  0  0.104332  0.117269  0  1.017276  0
H  H54  1  0.68576292  0.73340556  0.62245984  1  0  0.109439  0  0.969807  0  0  0.118563  0  1.034087  0  0  0.120222  0  1.034818  0  0.105949  0  0.10478  0.117226  0  1.033855  0
H  H55  1  0.31423529  0.26659709  0.37753959  1  0  0.109435  0  0.969812  0  0  0.118556  0  1.034102  0  0  0.120217  0  1.034831  0  0.105891  0  0.10476  0.117219  0  1.03387  0
W  W56  1  0.23360983  0.64039512  0.16186201  1  0  1.143402  0  4.942304  0  0  1.144688  0  5.604208  0  0  1.218784  0  5.562748  0  1.8532  0  0.992015  1.095169  0  5.631964  0
W  W57  1  0.76639059  0.35960489  0.83813790  1  0  1.143446  0  4.942354  0  0  1.144715  0  5.604284  0  0  1.218821  0  5.562801  0  1.853216  0  0.992007  1.095206  0  5.632032  0
C  C58  1  0.80638381  0.74858026  0.43182831  1  0  0.16335  0  3.63113  0  0  0.108822  0  3.890998  0  0  0.121247  0  3.902649  0  0.950116  0  0.137317  0.100393  0  3.883449  0
C  C59  1  0.19361546  0.25142151  0.56817122  1  0  0.163364  0  3.631158  0  0  0.108819  0  3.89102  0  0  0.121241  0  3.902674  0  0.950104  0  0.137327  0.100384  0  3.883477  0
C  C60  1  0.66634730  0.75472376  0.33922408  1  0  -0.058569  0  3.667617  0  0  -0.10208  0  3.92804  0  0  -0.100217  0  3.947307  0  0.298408  0  -0.003586  -0.102836  0  3.914743  0
C  C61  1  0.33365322  0.24527538  0.66077612  1  0  -0.058519  0  3.667578  0  0  -0.102028  0  3.927997  0  0  -0.100168  0  3.947271  0  0.298404  0  -0.00356  -0.102783  0  3.914698  0
C  C62  1  0.57549254  0.79519459  0.50045718  1  0  0.178547  0  3.776632  0  0  0.170516  0  4.021788  0  0  0.176023  0  4.043704  0  0.391977  0  0.096554  0.166609  0  4.007042  0
C  C63  1  0.42450663  0.20480806  0.49954346  1  0  0.178607  0  3.776616  0  0  0.170592  0  4.021736  0  0  0.17609  0  4.043652  0  0.391896  0  0.09659  0.166684  0  4.006989  0
C  C64  1  0.45533370  0.84356784  0.47360645  1  0  -0.118987  0  3.717227  0  0  -0.139766  0  3.9697  0  0  -0.141987  0  3.988653  0  -0.039461  0  -0.086043  -0.138326  0  3.957055  0
C  C65  1  0.54466366  0.15643394  0.52639343  1  0  -0.119048  0  3.717249  0  0  -0.139828  0  3.96971  0  0  -0.142047  0  3.988668  0  -0.039434  0  -0.086059  -0.138389  0  3.957066  0
C  C66  1  0.11084165  0.19193914  0.31995799  1  0  -0.003904  0  3.726182  0  0  -0.031181  0  3.988521  0  0  -0.031532  0  4.006709  0  0.336851  0  -0.007019  -0.031002  0  3.976489  0
C  C67  1  0.88915906  0.80805825  0.68004207  1  0  -0.003855  0  3.72619  0  0  -0.03114  0  3.988524  0  0  -0.031494  0  4.006707  0  0.336916  0  -0.007036  -0.030961  0  3.976492  0
C  C68  1  0.26262937  0.25525922  0.18692955  1  0  0.140562  0  3.670642  0  0  0.085979  0  3.934119  0  0  0.097294  0  3.946746  0  1.000362  0  0.131541  0.078364  0  3.925851  0
C  C69  1  0.73737210  0.74473992  0.81307047  1  0  0.140524  0  3.670762  0  0  0.085946  0  3.934242  0  0  0.097254  0  3.946865  0  1.000375  0  0.131519  0.07833  0  3.92597  0
C  C70  1  0.37751132  0.06607370  0.17855632  1  0  0.176955  0  3.777607  0  0  0.166318  0  4.027472  0  0  0.172369  0  4.048788  0  0.268712  0  0.092394  0.161931  0  4.013314  0
C  C71  1  0.62249015  0.93392544  0.82144301  1  0  0.176927  0  3.777536  0  0  0.166326  0  4.027351  0  0  0.172371  0  4.048669  0  0.268708  0  0.092392  0.161937  0  4.013194  0
C  C72  1  0.80624043  0.70526467  0.04139651  1  0  0.000861  0  3.736595  0  0  -0.02949  0  4.002427  0  0  -0.028832  0  4.021481  0  0.434892  0  -0.003406  -0.029902  0  3.989726  0
C  C73  1  0.19376009  0.29473448  0.95860438  1  0  0.000819  0  3.736646  0  0  -0.029545  0  4.00248  0  0  -0.028888  0  4.021537  0  0.435409  0  -0.003427  -0.029956  0  3.98978  0
C  C74  1  0.82192212  0.42679161  0.21433531  1  0  -0.00635  0  3.747058  0  0  -0.036568  0  4.01253  0  0  -0.036223  0  4.03231  0  0.377541  0  -0.008195  -0.036724  0  3.999174  0
C  C75  1  0.17807648  0.57320753  0.78566524  1  0  -0.006357  0  3.74706  0  0  -0.03657  0  4.012531  0  0  -0.036228  0  4.03231  0  0.377468  0  -0.008161  -0.036725  0  3.999174  0
C  C76  1  0.59022395  0.04537599  0.07885329  1  0  -0.12633  0  3.739151  0  0  -0.146829  0  3.991055  0  0  -0.14979  0  4.013191  0  -0.011748  0  -0.089815  -0.145264  0  3.976704  0
C  C77  1  0.40977943  0.95462315  0.92114777  1  0  -0.12639  0  3.739279  0  0  -0.146887  0  3.991183  0  0  -0.149848  0  4.013319  0  -0.01175  0  -0.089797  -0.145321  0  3.976831  0
C  C78  1  0.57822025  0.92707908  0.10400141  1  0  0.174221  0  3.784577  0  0  0.166834  0  4.027535  0  0  0.17193  0  4.05005  0  0.291055  0  0.094357  0.163336  0  4.012281  0
C  C79  1  0.42177931  0.07292006  0.89599896  1  0  0.174202  0  3.784503  0  0  0.166815  0  4.027475  0  0  0.171906  0  4.049991  0  0.291226  0  0.094325  0.163314  0  4.01222  0
C  C80  1  0.60012440  0.47590891  0.42729475  1  0  0.173834  0  3.789864  0  0  0.163401  0  4.039496  0  0  0.16887  0  4.061545  0  0.263338  0  0.091046  0.159689  0  4.024556  0
C  C81  1  0.39987668  0.52409373  0.57270416  1  0  0.174005  0  3.789661  0  0  0.163525  0  4.03936  0  0  0.168988  0  4.061419  0  0.263277  0  0.091086  0.159815  0  4.024421  0
C  C82  1  0.37294109  0.84869998  0.64311799  1  0  0.169117  0  3.798473  0  0  0.159629  0  4.047349  0  0  0.164554  0  4.069667  0  0.29283  0  0.092055  0.15613  0  4.0325  0
C  C83  1  0.62705551  0.15130004  0.35688193  1  0  0.168934  0  3.798596  0  0  0.159527  0  4.04737  0  0  0.164445  0  4.069691  0  0.292827  0  0.092007  0.156024  0  4.032524  0
C  C84  1  0.25497285  0.80811521  0.82145746  1  0  0.149266  0  3.6727  0  0  0.093378  0  3.937849  0  0  0.104661  0  3.951276  0  0.94843  0  0.133206  0.086216  0  3.928469  0
C  C85  1  0.74502480  0.19188393  0.17854257  1  0  0.14933  0  3.672667  0  0  0.09344  0  3.937827  0  0  0.104726  0  3.951253  0  0.948492  0  0.133249  0.086274  0  3.928451  0
C  C86  1  0.68047680  0.74525085  0.06885700  1  0  -0.071119  0  3.648862  0  0  -0.111594  0  3.905836  0  0  -0.111058  0  3.925104  0  0.228232  0  -0.00176  -0.111696  0  3.892293  0
C  C87  1  0.31952457  0.25474916  0.93114275  1  0  -0.071095  0  3.648879  0  0  -0.111586  0  3.90585  0  0  -0.111051  0  3.925122  0  0.228214  0  -0.001773  -0.111683  0  3.892298  0
C  C88  1  0.47992030  0.52431897  0.40098118  1  0  -0.137986  0  3.738413  0  0  -0.155985  0  3.989887  0  0  -0.158961  0  4.010218  0  -0.002302  0  -0.092577  -0.153742  0  3.97593  0
C  C89  1  0.52008069  0.47568456  0.59901814  1  0  -0.137866  0  3.73839  0  0  -0.155841  0  3.989859  0  0  -0.158815  0  4.010194  0  -0.002365  0  -0.092511  -0.1536  0  3.975904  0
C  C90  1  0.78861099  0.72930931  0.29222017  1  0  -0.003321  0  3.746644  0  0  -0.034424  0  4.016799  0  0  -0.03441  0  4.03678  0  0.406921  0  -0.007513  -0.034494  0  4.003427  0
C  C91  1  0.21138867  0.27068895  0.70778048  1  0  -0.003365  0  3.74671  0  0  -0.034471  0  4.016875  0  0  -0.034474  0  4.036845  0  0.407002  0  -0.007548  -0.034546  0  4.003519  0
C  C92  1  0.80960876  0.87638690  0.04696797  1  0  0.16284  0  3.626231  0  0  0.106823  0  3.889547  0  0  0.11961  0  3.900182  0  0.955614  0  0.138371  0.098291  0  3.882286  0
C  C93  1  0.19039271  0.12361224  0.95303205  1  0  0.162938  0  3.626067  0  0  0.106926  0  3.889362  0  0  0.119713  0  3.9  0  0.955495  0  0.138429  0.098395  0  3.882102  0
C  C94  1  0.49362821  0.80240378  0.66925000  1  0  -0.139693  0  3.766456  0  0  -0.159602  0  4.01921  0  0  -0.162609  0  4.040301  0  0.038536  0  -0.093603  -0.157575  0  4.005314  0
C  C95  1  0.50636819  0.19759799  0.33074936  1  0  -0.139692  0  3.766604  0  0  -0.159632  0  4.019345  0  0  -0.162635  0  4.040438  0  0.038854  0  -0.093675  -0.157605  0  4.005449  0
C  C96  1  0.49030554  0.11428832  0.11647169  1  0  -0.144304  0  3.770619  0  0  -0.168819  0  4.032851  0  0  -0.171704  0  4.052745  0  0.031441  0  -0.093235  -0.166699  0  4.019631  0
C  C97  1  0.50969775  0.88571170  0.88352909  1  0  -0.144212  0  3.770554  0  0  -0.168745  0  4.032774  0  0  -0.171629  0  4.052671  0  0.031447  0  -0.093262  -0.166625  0  4.019554  0
C  C98  1  0.62008579  0.45135596  0.52618156  1  0  -0.130284  0  3.732781  0  0  -0.150316  0  3.982533  0  0  -0.153621  0  4.003874  0  -0.011254  0  -0.094523  -0.148267  0  3.968316  0
C  C99  1  0.37991423  0.54864756  0.47381862  1  0  -0.13028  0  3.732675  0  0  -0.150307  0  3.982466  0  0  -0.15361  0  4.003808  0  -0.01123  0  -0.094494  -0.148258  0  3.96825  0
C  C100  1  0.69763498  0.43554938  0.26572705  1  0  -0.065  0  3.677184  0  0  -0.106874  0  3.935351  0  0  -0.105814  0  3.95601  0  0.301103  0  -0.003984  -0.107324  0  3.92104  0
C  C101  1  0.30236448  0.56445064  0.73427304  1  0  -0.065055  0  3.67722  0  0  -0.106921  0  3.935381  0  0  -0.105862  0  3.956042  0  0.301184  0  -0.004012  -0.107372  0  3.92107  0
C  C102  1  0.09073446  0.93987350  0.79761530  1  0  0.012799  0  3.713263  0  0  -0.016366  0  3.975766  0  0  -0.016433  0  3.995555  0  0.352745  0  -0.002457  -0.016255  0  3.962519  0
C  C103  1  0.90926511  0.06012564  0.20238507  1  0  0.012934  0  3.713354  0  0  -0.016233  0  3.975826  0  0  -0.016302  0  3.995622  0  0.352697  0  -0.002387  -0.016122  0  3.962584  0
C  C104  1  0.83093501  0.45852834  0.35035102  1  0  0.176117  0  3.639207  0  0  0.117694  0  3.905289  0  0  0.131622  0  3.915301  0  0.979076  0  0.14145  0.108543  0  3.898546  0
C  C105  1  0.16906541  0.54147168  0.64964889  1  0  0.176082  0  3.639143  0  0  0.117703  0  3.905253  0  0  0.131629  0  3.915257  0  0.979092  0  0.141462  0.10855  0  3.898507  0
C  C106  1  0.16487285  0.95453902  0.70228560  1  0  -0.051142  0  3.65078  0  0  -0.092755  0  3.907738  0  0  -0.09092  0  3.926472  0  0.366349  0  0.001706  -0.093688  0  3.89481  0
C  C107  1  0.83512490  0.04545925  0.29771333  1  0  -0.051236  0  3.650893  0  0  -0.092856  0  3.907859  0  0  -0.09104  0  3.926585  0  0.366381  0  0.001626  -0.093791  0  3.894935  0
C  C108  1  0.46395353  0.87972245  0.16286165  1  0  -0.135867  0  3.734499  0  0  -0.154313  0  3.984349  0  0  -0.15708  0  4.003955  0  0.027643  0  -0.089159  -0.152251  0  3.971009  0
C  C109  1  0.53604966  0.12027845  0.83713608  1  0  -0.135812  0  3.734356  0  0  -0.154258  0  3.984217  0  0  -0.157024  0  4.003824  0  0.027577  0  -0.089115  -0.152198  0  3.97088  0
C  C110  1  0.36354588  0.94906508  0.19990882  1  0  -0.127262  0  3.719739  0  0  -0.146194  0  3.968905  0  0  -0.149505  0  3.988607  0  -0.010916  0  -0.090887  -0.144165  0  3.956134  0
C  C111  1  0.63645540  0.05093581  0.80008926  1  0  -0.127291  0  3.719694  0  0  -0.146231  0  3.96885  0  0  -0.149539  0  3.988548  0  -0.010887  0  -0.090893  -0.144201  0  3.956077  0
C  C112  1  0.18136578  0.09444684  0.30523497  1  0  -0.060148  0  3.649807  0  0  -0.09565  0  3.895804  0  0  -0.09492  0  3.915465  0  0.331244  0  -0.003183  -0.09607  0  3.882873  0
C  C113  1  0.81863675  0.90555142  0.69476446  1  0  -0.060218  0  3.649814  0  0  -0.09568  0  3.895832  0  0  -0.094954  0  3.915499  0  0.331183  0  -0.003176  -0.096103  0  3.882902  0
C  C114  1  0.35376275  0.86867467  0.54511859  1  0  -0.117658  0  3.72623  0  0  -0.140373  0  3.980732  0  0  -0.142373  0  3.999378  0  0.023908  0  -0.084799  -0.139183  0  3.968345  0
C  C115  1  0.64623566  0.13132623  0.45488070  1  0  -0.117516  0  3.726218  0  0  -0.140251  0  3.980722  0  0  -0.142262  0  3.999356  0  0.024126  0  -0.084744  -0.139061  0  3.968336  0
C  C116  1  0.59415217  0.77369498  0.59915002  1  0  -0.130778  0  3.736585  0  0  -0.150167  0  3.985897  0  0  -0.153837  0  4.008416  0  -0.100784  0  -0.088907  -0.147817  0  3.971072  0
C  C117  1  0.40584605  0.22630767  0.40084872  1  0  -0.130751  0  3.736643  0  0  -0.150129  0  3.985919  0  0  -0.153792  0  4.008435  0  -0.100899  0  -0.088857  -0.147778  0  3.971093  0
S  S118  1  0.16792084  0.57161162  0.05846629  1  0  -0.598839  0  2.311965  0  0  -0.590755  0  2.773742  0  0  -0.59415  0  2.744641  0  -0.769043  0  -0.457387  -0.589042  0  2.793332  0
S  S119  1  0.83207862  0.42838840  0.94153588  1  0  -0.598825  0  2.311918  0  0  -0.590764  0  2.77373  0  0  -0.594147  0  2.744604  0  -0.769064  0  -0.457383  -0.589046  0  2.79331  0
S  S120  1  0.16309865  0.52602179  0.32778026  1  0  -0.549992  0  2.334641  0  0  -0.548748  0  2.808778  0  0  -0.551399  0  2.780076  0  -0.724141  0  -0.438194  -0.547352  0  2.82807  0
S  S121  1  0.83690092  0.47397735  0.67222012  1  0  -0.550009  0  2.334659  0  0  -0.548781  0  2.808812  0  0  -0.551426  0  2.780099  0  -0.7243  0  -0.438206  -0.547378  0  2.828085  0
S  S122  1  0.13368690  0.82471580  0.13593107  1  0  -0.590771  0  2.379771  0  0  -0.58556  0  2.867498  0  0  -0.588662  0  2.835898  0  -0.762851  0  -0.437406  -0.584143  0  2.888717  0
S  S123  1  0.86631256  0.17528422  0.86406972  1  0  -0.590791  0  2.379841  0  0  -0.585595  0  2.867595  0  0  -0.588693  0  2.835979  0  -0.76285  0  -0.437406  -0.584181  0  2.88882  0
Br  Br124  1  0.11874191  0.79046471  0.42744574  1  0  -0.604641  0  0.942561  0  0  -0.550303  0  1.226389  0  0  -0.563695  0  1.203968  0  -0.671905  0  -0.32935  -0.539921  0  1.241014  0
Br  Br125  1  0.88126128  0.20953618  0.57255406  1  0  -0.604638  0  0.942546  0  0  -0.550287  0  1.226363  0  0  -0.563686  0  1.203961  0  -0.671908  0  -0.329359  -0.539906  0  1.24099  0
N  N126  1  0.87490972  0.72659688  0.35017342  1  0  -0.321447  0  3.358314  0  0  -0.254733  0  3.657909  0  0  -0.26665  0  3.668145  0  -1.218818  0  -0.377989  -0.247277  0  3.651298  0
N  N127  1  0.12508985  0.27340226  0.64982834  1  0  -0.321392  0  3.358344  0  0  -0.254655  0  3.657915  0  0  -0.266573  0  3.668161  0  -1.218838  0  -0.377974  -0.247197  0  3.651298  0
N  N128  1  0.67797076  0.76694590  0.42825349  1  0  -0.089624  0  3.594395  0  0  -0.000707  0  3.804569  0  0  -0.015845  0  3.830509  0  -1.257103  0  -0.22488  0.009465  0  3.786844  0
N  N129  1  0.32202861  0.23305500  0.57174632  1  0  -0.089672  0  3.594363  0  0  -0.000752  0  3.804523  0  0  -0.01589  0  3.830463  0  -1.257046  0  -0.224908  0.009419  0  3.7868  0
N  N130  1  0.16270720  0.29122804  0.24580579  1  0  -0.313741  0  3.361687  0  0  -0.251629  0  3.666757  0  0  -0.260242  0  3.674135  0  -1.223375  0  -0.38205  -0.246448  0  3.662048  0
N  N131  1  0.83729161  0.70876935  0.75419532  1  0  -0.31376  0  3.36177  0  0  -0.251639  0  3.66684  0  0  -0.260231  0  3.67419  0  -1.223448  0  -0.382058  -0.246454  0  3.662118  0
N  N132  1  0.27801815  0.13544701  0.22020821  1  0  -0.08863  0  3.601151  0  0  0.002082  0  3.807625  0  0  -0.012953  0  3.834375  0  -1.307177  0  -0.226855  0.012208  0  3.789631  0
N  N133  1  0.72198343  0.86455125  0.77979140  1  0  -0.088594  0  3.601214  0  0  0.002123  0  3.807647  0  0  -0.012913  0  3.8344  0  -1.3071  0  -0.226801  0.012249  0  3.789652  0
N  N134  1  0.14784832  0.84806372  0.87121390  1  0  -0.329601  0  3.337752  0  0  -0.268361  0  3.645279  0  0  -0.278233  0  3.653629  0  -1.196048  0  -0.377899  -0.262088  0  3.639483  0
N  N135  1  0.85215019  0.15193630  0.12878567  1  0  -0.32962  0  3.337736  0  0  -0.268396  0  3.645292  0  0  -0.278263  0  3.65363  0  -1.196056  0  -0.377918  -0.26212  0  3.6395  0
N  N136  1  0.68358827  0.85487590  0.07157895  1  0  -0.092142  0  3.609737  0  0  -0.001526  0  3.81622  0  0  -0.01692  0  3.844045  0  -1.26202  0  -0.226093  0.008818  0  3.797275  0
N  N137  1  0.31641310  0.14512412  0.92842079  1  0  -0.092152  0  3.609718  0  0  -0.00154  0  3.816198  0  0  -0.016934  0  3.844026  0  -1.262102  0  -0.226087  0.008805  0  3.797255  0
N  N138  1  0.90376486  0.44284621  0.26724064  1  0  -0.319666  0  3.33773  0  0  -0.255931  0  3.645231  0  0  -0.265939  0  3.652107  0  -1.220437  0  -0.380702  -0.249776  0  3.640356  0
N  N139  1  0.09623470  0.55715293  0.73275973  1  0  -0.319592  0  3.337678  0  0  -0.255872  0  3.645183  0  0  -0.265863  0  3.652036  0  -1.220428  0  -0.380694  -0.249713  0  3.640296  0
N  N140  1  0.70435167  0.45512531  0.35264238  1  0  -0.092633  0  3.608107  0  0  -0.001688  0  3.817095  0  0  -0.017221  0  3.843766  0  -1.252926  0  -0.226252  0.0086  0  3.79895  0
N  N141  1  0.29564875  0.54487470  0.64735753  1  0  -0.092704  0  3.60813  0  0  -0.001747  0  3.817126  0  0  -0.017278  0  3.843798  0  -1.25289  0  -0.226274  0.008541  0  3.798981  0
N  N142  1  0.26993306  0.87052736  0.71817927  1  0  -0.088883  0  3.611457  0  0  0.001414  0  3.819955  0  0  -0.013229  0  3.846322  0  -1.254277  0  -0.225095  0.011263  0  3.801883  0
N  N143  1  0.73006353  0.12947266  0.28182134  1  0  -0.088826  0  3.611393  0  0  0.001452  0  3.819876  0  0  -0.013194  0  3.846249  0  -1.254287  0  -0.22505  0.011307  0  3.801803  0
N  N144  1  0.88580540  0.78707922  0.02889312  1  0  -0.315885  0  3.326395  0  0  -0.253159  0  3.634105  0  0  -0.262183  0  3.639505  0  -1.222688  0  -0.379995  -0.247828  0  3.630373  0
N  N145  1  0.11419617  0.21291905  0.97110787  1  0  -0.315931  0  3.326311  0  0  -0.253196  0  3.634013  0  0  -0.262215  0  3.639403  0  -1.222938  0  -0.380026  -0.247863  0  3.630282  0
O  O146  1  0.40172621  0.63913663  0.13623041  1  0  -0.643241  0  1.651097  0  0  -0.614682  0  1.906899  0  0  -0.643934  0  1.901651  0  -0.958843  0  -0.567203  -0.594439  0  1.909517  0
O  O147  1  0.59827411  0.36086427  0.86376992  1  0  -0.643252  0  1.65114  0  0  -0.614694  0  1.906946  0  0  -0.643948  0  1.901696  0  -0.958863  0  -0.567198  -0.594452  0  1.909565  0
