# generated using pymatgen
data_CdH45C50SN4O11
_symmetry_space_group_name_H-M   'P 1'
_cell_length_a   10.07410036
_cell_length_b   11.84773300
_cell_length_c   20.77035647
_cell_angle_alpha   84.34882450
_cell_angle_beta   88.39283567
_cell_angle_gamma   81.37610340
_symmetry_Int_Tables_number   1
_chemical_formula_structural   CdH45C50SN4O11
_chemical_formula_sum   'Cd2 H90 C100 S2 N8 O22'
_cell_volume   2438.88820587
_cell_formula_units_Z   2
loop_
 _symmetry_equiv_pos_site_id
 _symmetry_equiv_pos_as_xyz
  1  'x, y, z'
loop_
 _atom_site_type_symbol
 _atom_site_label
 _atom_site_symmetry_multiplicity
 _atom_site_fract_x
 _atom_site_fract_y
 _atom_site_fract_z
 _atom_site_occupancy
 _atom_site_pbe_bader_charge
 _atom_site_pbe_bader_spin_density
 _atom_site_pbe_cm5_charge
 _atom_site_pbe_ddec_charge
 _atom_site_pbe_ddec_spin_density
 _atom_site_pbe_ddec_sum_bond_order
 _atom_site_pbe_magmom
Cd  Cd0  1  0.44523578  0.28735520  0.16487056  1  1.244725  0  0.768329  0.80444  0  2.223861  0
Cd  Cd1  1  0.55630943  0.71720812  0.83453853  1  1.242699  0  0.762371  0.787356  0  2.22835  0
H  H2  1  0.44826261  0.13750962  0.50871439  1  0.035767  0  0.095634  0.102019  0  1.025403  0
H  H3  1  0.50720085  0.21160120  0.39612711  1  0.078641  0  0.103404  0.107771  0  1.002251  0
H  H4  1  0.05923892  0.09582782  0.44355888  1  0.037583  0  0.099852  0.112548  0  1.044946  0
H  H5  1  0.20857273  0.96979375  0.55018493  1  0.05552  0  0.092502  0.137547  0  0.998923  0
H  H6  1  0.11508420  0.10416009  0.56595892  1  0.046741  0  0.088216  0.123631  0  0.997507  0
H  H7  1  0.28840306  0.07245211  0.58479729  1  0.020362  0  0.087775  0.124817  0  1.034713  0
H  H8  1  0.92408345  0.16915611  0.37257245  1  0.128485  0  0.106318  0.089697  0  1.036037  0
H  H9  1  0.00616616  0.03672237  0.34509742  1  0.081839  0  0.107104  0.086034  0  1.013329  0
H  H10  1  0.71529355  0.11196791  0.33030846  1  0.087331  0  0.107904  0.086344  0  1.002899  0
H  H11  1  0.70783504  0.08608248  0.24771076  1  0.121117  0  0.113271  0.105825  0  0.982484  0
H  H12  1  0.77890599  0.61093935  0.40374636  1  0.143086  0  0.110424  0.116247  0  0.998759  0
H  H13  1  0.53210476  0.66090329  0.40787869  1  0.06331  0  0.101462  0.110002  0  0.993143  0
H  H14  1  0.56416221  0.99756649  0.31496639  1  0.128415  0  0.103498  0.128273  0  1.053513  0
H  H15  1  0.32458304  0.80203068  0.36080205  1  0.041442  0  0.085414  0.119303  0  1.027883  0
H  H16  1  0.34674894  0.94794987  0.34006635  1  0.051663  0  0.089538  0.130209  0  1.019756  0
H  H17  1  0.35853443  0.88820368  0.42114790  1  0.040044  0  0.096805  0.141252  0  0.98759  0
H  H18  1  0.04807239  0.15851093  0.20026769  1  0.079053  0  0.108941  0.084717  0  1.007093  0
H  H19  1  0.02063389  0.01413490  0.22636737  1  0.055295  0  0.104757  0.080383  0  1.008266  0
H  H20  1  0.11331412  0.03896325  0.10930422  1  0.039906  0  0.098456  0.116059  0  1.028223  0
H  H21  1  0.99641148  0.18549017  0.91744517  1  0.072893  0  0.092152  0.105692  0  1.041308  0
H  H22  1  0.77105690  0.26138692  0.96097106  1  0.09987  0  0.094597  0.094575  0  1.036046  0
H  H23  1  0.28515003  0.10269729  0.00518118  1  0.035587  0  0.085318  0.116621  0  1.036519  0
H  H24  1  0.21204272  0.07224471  0.93265068  1  0.031455  0  0.08896  0.127808  0  1.006442  0
H  H25  1  0.23139649  0.96826552  0.00086681  1  0.037443  0  0.090028  0.131566  0  1.011752  0
H  H26  1  0.04468565  0.41496492  0.28141233  1  0.136328  0  0.108907  0.120873  0  1.013273  0
H  H27  1  0.13687417  0.58826207  0.23613993  1  0.038487  0  0.094682  0.094872  0  1.037899  0
H  H28  1  0.74019168  0.75544267  0.18355497  1  0.040134  0  0.096527  0.10036  0  1.011731  0
H  H29  1  0.64653349  0.58059390  0.22872758  1  0.090541  0  0.097274  0.097919  0  1.06092  0
H  H30  1  0.59577606  0.23424055  0.58987228  1  0.077934  0  0.099195  0.140577  0  0.980159  0
H  H31  1  0.62981768  0.09563963  0.63237356  1  0.090884  0  0.088088  0.126795  0  1.048316  0
H  H32  1  0.68818964  0.21553833  0.66194413  1  0.04417  0  0.089121  0.121907  0  1.002829  0
H  H33  1  0.43003591  0.04043652  0.67974983  1  0.10928  0  0.108455  0.129689  0  1.033792  0
H  H34  1  0.28469307  0.43122480  0.74620508  1  0.141493  0  0.104918  0.108786  0  1.050658  0
H  H35  1  0.49120019  0.39281804  0.68126932  1  0.077755  0  0.10345  0.115779  0  0.995027  0
H  H36  1  0.30460921  0.92045976  0.76478876  1  0.116233  0  0.115451  0.10868  0  0.986555  0
H  H37  1  0.27606980  0.94586695  0.67995708  1  0.110351  0  0.112926  0.097173  0  1.013698  0
H  H38  1  0.96834830  0.99903807  0.79114991  1  0.04304  0  0.099907  0.065866  0  1.005174  0
H  H39  1  0.95641372  0.84997002  0.80459780  1  0.104023  0  0.113  0.088582  0  1.011117  0
H  H40  1  0.87763495  0.94034376  0.90719030  1  0.071753  0  0.101868  0.119738  0  1.017689  0
H  H41  1  0.98606909  0.70092991  0.07345824  1  0.032831  0  0.095945  0.101683  0  1.035712  0
H  H42  1  0.21726953  0.65838502  0.02876628  1  0.074198  0  0.096876  0.096397  0  1.028427  0
H  H43  1  0.76591012  0.94425969  0.03649690  1  0.064675  0  0.09354  0.135966  0  0.998168  0
H  H44  1  0.76241998  0.79805589  0.06544279  1  0.026098  0  0.087152  0.115837  0  1.034887  0
H  H45  1  0.70033303  0.85226889  0.98712393  1  0.04489  0  0.089654  0.128536  0  1.021635  0
H  H46  1  0.02128803  0.83500431  0.22825063  1  0.079958  0  0.091136  0.136973  0  1.043393  0
H  H47  1  0.93292699  0.85338028  0.15422197  1  0.040373  0  0.09111  0.13642  0  1.000667  0
H  H48  1  0.09797941  0.77470843  0.15897749  1  0.046754  0  0.085146  0.12095  0  1.024498  0
H  H49  1  0.65545275  0.55596713  0.61651650  1  0.057795  0  0.096691  0.140134  0  0.986907  0
H  H50  1  0.75026478  0.43646461  0.58321406  1  0.038893  0  0.090992  0.124976  0  1.000421  0
H  H51  1  0.71340382  0.56951575  0.53491277  1  0.057298  0  0.093697  0.132588  0  1.004613  0
H  H52  1  0.99657705  0.01769942  0.67011906  1  0.05889  0  0.101903  0.072773  0  0.986984  0
H  H53  1  0.06927387  0.89298767  0.63302389  1  0.102768  0  0.106443  0.076182  0  1.046083  0
H  H54  1  0.50301509  0.81949419  0.60673135  1  0.133678  0  0.103471  0.11884  0  1.01949  0
H  H55  1  0.55356685  0.91643169  0.49841760  1  0.061074  0  0.096663  0.104483  0  1.025332  0
H  H56  1  0.92546617  0.98451474  0.57061722  1  0.043807  0  0.098117  0.10793  0  1.049529  0
H  H57  1  0.79909369  0.10756260  0.47270451  1  0.041493  0  0.09317  0.133205  0  0.987524  0
H  H58  1  0.68641946  0.03614279  0.43291722  1  0.021624  0  0.088995  0.123225  0  1.039553  0
H  H59  1  0.85842651  0.97701724  0.43917808  1  0.052872  0  0.092262  0.132761  0  1.005953  0
H  H60  1  0.11234618  0.72658977  0.55478644  1  0.066288  0  0.102534  0.106149  0  1.007033  0
H  H61  1  0.90947245  0.65920349  0.51500171  1  0.078341  0  0.097237  0.102558  0  1.028488  0
H  H62  1  0.85445457  0.48101894  0.70240076  1  0.024826  0  0.097241  0.095113  0  1.015252  0
H  H63  1  0.05459612  0.54848906  0.74241768  1  0.078759  0  0.104919  0.11077  0  1.019047  0
H  H64  1  0.87665363  0.67214830  0.83526756  1  0.130033  0  0.120348  0.103969  0  1.006654  0
H  H65  1  0.06433372  0.55309692  0.89738876  1  0.093864  0  0.112343  0.122012  0  0.997425  0
H  H66  1  0.77311598  0.47763021  0.04677127  1  0.115147  0  0.109565  0.119174  0  1.007076  0
H  H67  1  0.59934925  0.60510344  0.97856534  1  0.123085  0  0.11281  0.087294  0  1.038211  0
H  H68  1  0.94134877  0.46316662  0.11059094  1  0.100076  0  0.109315  0.117033  0  1.010508  0
H  H69  1  0.13890906  0.36756936  0.17475143  1  0.146263  0  0.117844  0.100863  0  1.035351  0
H  H70  1  0.37043938  0.31079015  0.01069893  1  0.12539  0  0.111881  0.090942  0  1.040708  0
H  H71  1  0.17776103  0.39603226  0.93757108  1  0.111481  0  0.108636  0.116831  0  1.02258  0
H  H72  1  0.36368642  0.52099903  0.86172058  1  0.141517  0  0.117652  0.091868  0  1.00328  0
H  H73  1  0.37332835  0.30802262  0.87846235  1  0.086966  0  0.108978  0.11301  0  1.01167  0
H  H74  1  0.79221107  0.27933877  0.81978804  1  0.120304  0  0.107248  0.120554  0  1.032415  0
H  H75  1  0.76281871  0.49213146  0.80488682  1  0.081867  0  0.119497  0.089746  0  1.008428  0
H  H76  1  0.44903482  0.13749519  0.93587286  1  0.082366  0  0.107968  0.111636  0  1.033393  0
H  H77  1  0.44823904  0.92701664  0.93163866  1  0.118665  0  0.114872  0.090292  0  1.023674  0
H  H78  1  0.72819367  0.91398938  0.78213868  1  0.128579  0  0.116073  0.082782  0  1.054438  0
H  H79  1  0.73662472  0.12312090  0.77782982  1  0.097582  0  0.108556  0.113655  0  1.008051  0
H  H80  1  0.27781702  0.09120668  0.22881292  1  0.11566  0  0.118364  0.084869  0  1.027561  0
H  H81  1  0.26457316  0.88297171  0.23448778  1  0.081805  0  0.113435  0.122477  0  1.006986  0
H  H82  1  0.53547005  0.86574861  0.06939055  1  0.100288  0  0.109191  0.114388  0  1.038094  0
H  H83  1  0.53571286  0.07632680  0.07040370  1  0.138378  0  0.114474  0.090126  0  1.028529  0
H  H84  1  0.36646736  0.70455897  0.25988838  1  0.099058  0  0.112205  0.119454  0  1.007565  0
H  H85  1  0.38287880  0.49158143  0.26062557  1  0.149656  0  0.125137  0.107474  0  0.980834  0
H  H86  1  0.47163137  0.50327743  0.06492272  1  0.101465  0  0.117201  0.086388  0  0.992343  0
H  H87  1  0.44858028  0.71570561  0.05332581  1  0.176151  0  0.10653  0.124369  0  1.060694  0
H  H88  1  0.22379364  0.74273757  0.78316399  1  0.536913  0  0.300266  0.299835  0  0.994952  0
H  H89  1  0.78016463  0.27081120  0.20895772  1  0.535582  0  0.296936  0.293499  0  1.000714  0
H  H90  1  0.09741152  0.62679459  0.39611880  1  0.608713  0  0.34507  0.379734  0  0.853221  0
H  H91  1  0.06596613  0.14523217  0.77793637  1  0.643971  0  0.307414  0.332985  0  1.018262  0
C  C92  1  0.24916292  0.11234399  0.48316505  1  -0.033009  0  -0.010749  0.195113  0  4.011105  0
C  C93  1  0.37535352  0.14581371  0.47005862  1  -0.004975  0  -0.112026  -0.189526  0  4.021594  0
C  C94  1  0.40833161  0.18724755  0.40743542  1  -0.043502  0  -0.089206  -0.077034  0  4.027498  0
C  C95  1  0.31624846  0.19978167  0.35720347  1  0.015805  0  -0.033032  -0.149579  0  3.988095  0
C  C96  1  0.18772995  0.16822198  0.37046627  1  0.463633  0  0.088544  0.246497  0  4.026943  0
C  C97  1  0.15644978  0.12345199  0.43303115  1  -0.044492  0  -0.115869  -0.289011  0  3.964134  0
C  C98  1  0.21330129  0.06214656  0.54951097  1  -0.073423  0  -0.24058  -0.410533  0  3.945239  0
C  C99  1  0.35909810  0.23936004  0.29048788  1  1.561822  0  0.187573  0.569745  0  4.23588  0
C  C100  1  0.98037750  0.12980134  0.33256500  1  0.359116  0  -0.073038  -0.082211  0  3.871667  0
C  C101  1  0.89117328  0.14681862  0.27310275  1  0.370822  0  0.084569  0.226091  0  3.792363  0
C  C102  1  0.77434942  0.07764694  0.28937973  1  0.355662  0  -0.061677  -0.06058  0  3.80341  0
C  C103  1  0.75196147  0.88452629  0.33195533  1  0.529609  0  0.101383  0.270702  0  4.017584  0
C  C104  1  0.81515503  0.77552388  0.35924564  1  -0.017256  0  -0.034796  -0.177002  0  3.96536  0
C  C105  1  0.73183315  0.69611128  0.38488883  1  -0.090186  0  -0.079773  -0.058646  0  4.000108  0
C  C106  1  0.59316316  0.72410448  0.38671653  1  -0.054133  0  -0.107335  -0.189273  0  4.004246  0
C  C107  1  0.53148600  0.83412535  0.36297258  1  0.002063  0  2.8e-05  0.214196  0  3.987252  0
C  C108  1  0.61168452  0.91252669  0.33435860  1  -0.068576  0  -0.114953  -0.301496  0  3.937701  0
C  C109  1  0.38285532  0.86949909  0.37088573  1  -0.051323  0  -0.239495  -0.419286  0  3.950495  0
C  C110  1  0.96241025  0.74521781  0.36343883  1  1.447731  0  0.222202  0.576549  0  4.123912  0
C  C111  1  0.97203750  0.10295533  0.21437351  1  0.426031  0  -0.060296  -0.048913  0  3.827962  0
C  C112  1  0.91362748  0.13336675  0.10075268  1  0.465386  0  0.085654  0.244471  0  4.063502  0
C  C113  1  0.03983809  0.09016429  0.07659001  1  0.004632  0  -0.113315  -0.276796  0  3.946137  0
C  C114  1  0.07116564  0.10840480  0.01065546  1  -0.057154  0  -0.006848  0.207426  0  3.984932  0
C  C115  1  0.97359533  0.17058361  0.96892592  1  -0.034838  0  -0.111313  -0.182847  0  3.990134  0
C  C116  1  0.84766429  0.21307826  0.99303580  1  -0.076553  0  -0.09157  -0.073574  0  4.030814  0
C  C117  1  0.81543738  0.19739343  0.05903050  1  0.021467  0  -0.03901  -0.16551  0  3.993018  0
C  C118  1  0.67913982  0.24753847  0.08210326  1  1.549917  0  0.190385  0.572822  0  4.236514  0
C  C119  1  0.20699980  0.06043013  0.98566558  1  -0.05861  0  -0.242581  -0.419939  0  3.958427  0
C  C120  1  0.83893800  0.48881465  0.25827125  1  -0.153426  0  -0.025176  -0.101512  0  3.988963  0
C  C121  1  0.97750720  0.48960449  0.26032751  1  -0.029401  0  -0.081293  -0.078813  0  3.980598  0
C  C122  1  0.02898540  0.58719409  0.23444174  1  -0.058289  0  -0.094886  -0.143623  0  3.947587  0
C  C123  1  0.94536995  0.68493176  0.20707029  1  0.016101  0  -0.006963  0.173643  0  3.973228  0
C  C124  1  0.80742867  0.68046428  0.20421177  1  -0.086299  0  -0.098367  -0.155658  0  3.975033  0
C  C125  1  0.75387937  0.58320367  0.22966397  1  -0.03064  0  -0.09064  -0.087028  0  4.015235  0
C  C126  1  0.60402789  0.18724751  0.63839691  1  -0.148056  0  -0.237997  -0.41975  0  3.955958  0
C  C127  1  0.47555689  0.21308440  0.67624515  1  -0.00366  0  0.002866  0.214541  0  3.969838  0
C  C128  1  0.39566072  0.12707758  0.69268168  1  -0.025403  0  -0.110159  -0.284542  0  3.941325  0
C  C129  1  0.27316798  0.15237703  0.72522996  1  0.41306  0  0.088694  0.257557  0  4.023345  0
C  C130  1  0.23357927  0.26148810  0.74778045  1  -0.011695  0  -0.044443  -0.210557  0  4.027724  0
C  C131  1  0.31522870  0.34610965  0.73071478  1  -0.019298  0  -0.079856  -0.050329  0  4.010423  0
C  C132  1  0.43224921  0.32376297  0.69449685  1  -0.05737  0  -0.101494  -0.173297  0  3.958941  0
C  C133  1  0.22989350  0.95533748  0.72790261  1  0.361583  0  -0.06334  -0.057918  0  3.789553  0
C  C134  1  0.11515699  0.29119004  0.79046016  1  1.489191  0  0.222456  0.583742  0  4.120979  0
C  C135  1  0.10997871  0.88854102  0.73508720  1  0.369224  0  0.078051  0.211968  0  3.814979  0
C  C136  1  0.02691997  0.91231272  0.79670453  1  0.395978  0  -0.05971  -0.04304  0  3.849014  0
C  C137  1  0.07892175  0.84850690  0.90734030  1  0.467099  0  0.085766  0.24158  0  4.054318  0
C  C138  1  0.95053788  0.87619226  0.93352880  1  0.029882  0  -0.106189  -0.265822  0  3.947368  0
C  C139  1  0.91595680  0.82426420  0.99385958  1  -0.052982  0  -0.005225  0.202444  0  3.977021  0
C  C140  1  0.01275314  0.74449143  0.02733555  1  -0.031608  0  -0.105645  -0.174719  0  3.996549  0
C  C141  1  0.14215366  0.71977362  0.00209921  1  -0.000286  0  -0.091482  -0.082922  0  4.030668  0
C  C142  1  0.17728195  0.77011222  0.94146054  1  -0.060584  0  -0.032758  -0.154609  0  4.002878  0
C  C143  1  0.31586641  0.74077229  0.91423376  1  1.574354  0  0.198435  0.57704  0  4.222393  0
C  C144  1  0.77853609  0.85605992  0.02236269  1  -0.084937  0  -0.241244  -0.417473  0  3.951083  0
C  C145  1  0.00224521  0.79276141  0.18528597  1  -0.092012  0  -0.246953  -0.432794  0  3.954473  0
C  C146  1  0.73996057  0.53020514  0.58377532  1  -0.088362  0  -0.234613  -0.413913  0  3.961639  0
C  C147  1  0.01808917  0.92309801  0.67687965  1  0.374783  0  -0.065386  -0.064231  0  3.880433  0
C  C148  1  0.68755254  0.84139898  0.64906579  1  -0.004291  0  -0.029554  -0.143459  0  3.961002  0
C  C149  1  0.59730777  0.85369283  0.59785964  1  -0.066938  0  -0.085391  -0.072859  0  3.993557  0
C  C150  1  0.62517357  0.90860840  0.53758414  1  -0.003374  0  -0.107817  -0.182223  0  4.000754  0
C  C151  1  0.74335872  0.95705993  0.52773353  1  -0.012446  0  -0.009655  0.197929  0  4.006426  0
C  C152  1  0.83451509  0.94539015  0.57845824  1  -0.043538  0  -0.121135  -0.300386  0  3.992559  0
C  C153  1  0.80924913  0.88676351  0.63828173  1  0.414831  0  0.086147  0.240937  0  4.037354  0
C  C154  1  0.77318945  0.02303402  0.46486136  1  -0.06627  0  -0.240232  -0.416767  0  3.946147  0
C  C155  1  0.64700425  0.78693995  0.71329609  1  1.546811  0  0.185906  0.566091  0  4.22683  0
C  C156  1  0.05540018  0.67216720  0.58661403  1  -0.004498  0  -0.09032  -0.091781  0  4.02368  0
C  C157  1  0.94150317  0.63414478  0.56474352  1  -0.032762  0  -0.092477  -0.140098  0  3.953769  0
C  C158  1  0.86683510  0.56607928  0.60600246  1  -0.022392  0  0.000335  0.182638  0  3.954576  0
C  C159  1  0.91151893  0.53401002  0.66961433  1  0.036892  0  -0.089343  -0.128294  0  3.943995  0
C  C160  1  0.02385861  0.57180341  0.69239878  1  0.034298  0  -0.082804  -0.07207  0  3.989474  0
C  C161  1  0.09483191  0.64202243  0.65065036  1  -0.235072  0  -0.02769  -0.108724  0  4.007763  0
C  C162  1  0.85977351  0.62926290  0.88308553  1  0.518074  0  0.046982  0.082564  0  3.951498  0
C  C163  1  0.96299825  0.56088285  0.91755904  1  -0.064547  0  -0.07142  -0.144014  0  3.92558  0
C  C164  1  0.93512695  0.50553662  0.97811079  1  0.058029  0  0.015984  0.102654  0  3.977073  0
C  C165  1  0.80169056  0.52059614  0.00078440  1  -0.074624  0  -0.079718  -0.16522  0  3.930536  0
C  C166  1  0.70446067  0.59056729  0.96338813  1  0.444243  0  0.040385  0.084925  0  3.963981  0
C  C167  1  0.04408740  0.43994478  0.01796259  1  0.045265  0  0.016718  0.107949  0  3.977377  0
C  C168  1  0.03269354  0.42839414  0.08563279  1  -0.03185  0  -0.075974  -0.157992  0  3.918099  0
C  C169  1  0.14251723  0.37618580  0.12201575  1  0.439891  0  0.044006  0.08787  0  3.943247  0
C  C170  1  0.27173120  0.34386942  0.02982654  1  0.484769  0  0.039419  0.076672  0  3.973623  0
C  C171  1  0.16600910  0.39331643  0.99000496  1  -0.047148  0  -0.07993  -0.166802  0  3.931387  0
C  C172  1  0.45665955  0.46341956  0.85408695  1  0.466015  0  0.052934  0.107329  0  3.932039  0
C  C173  1  0.46345489  0.34502416  0.86393070  1  -0.018015  0  -0.075316  -0.161209  0  3.936484  0
C  C174  1  0.58403510  0.27483130  0.85091917  1  -0.017209  0  0.014917  0.104155  0  3.980615  0
C  C175  1  0.69438127  0.32847849  0.82930711  1  -0.00083  0  -0.079452  -0.170922  0  3.923937  0
C  C176  1  0.67894253  0.44753253  0.82116956  1  0.495183  0  0.050626  0.09738  0  3.951253  0
C  C177  1  0.59069763  0.14925215  0.85588172  1  -0.049376  0  0.017368  0.111964  0  3.973877  0
C  C178  1  0.51070498  0.09154215  0.90019546  1  0.012059  0  -0.079721  -0.168161  0  3.930483  0
C  C179  1  0.51055209  0.97445796  0.89845558  1  0.439075  0  0.044873  0.08933  0  3.954906  0
C  C180  1  0.66681266  0.96665891  0.81518700  1  0.487624  0  0.045892  0.091563  0  3.959344  0
C  C181  1  0.67261550  0.08326237  0.81361738  1  -0.048744  0  -0.079764  -0.167456  0  3.934524  0
C  C182  1  0.33431575  0.03796374  0.19445980  1  0.48358  0  0.050351  0.098731  0  3.955707  0
C  C183  1  0.32760181  0.92118975  0.19756457  1  -0.072058  0  -0.078137  -0.173715  0  3.929139  0
C  C184  1  0.40272370  0.85484010  0.15312650  1  -0.002951  0  0.012577  0.104428  0  3.981873  0
C  C185  1  0.47652549  0.91221424  0.10566069  1  -0.040245  0  -0.080248  -0.170244  0  3.934216  0
C  C186  1  0.47782753  0.02926041  0.10609205  1  0.456214  0  0.045933  0.091843  0  3.951935  0
C  C187  1  0.40834124  0.72930625  0.15651417  1  0.009306  0  0.010992  0.100762  0  3.983566  0
C  C188  1  0.38766015  0.66414983  0.21506772  1  -0.009621  0  -0.075492  -0.169349  0  3.927222  0
C  C189  1  0.39801827  0.54546022  0.21624100  1  0.436505  0  0.055898  0.106771  0  3.945254  0
C  C190  1  0.44823975  0.55190312  0.10692178  1  0.455021  0  0.046811  0.093412  0  3.960223  0
C  C191  1  0.43836549  0.67065161  0.10117425  1  -0.093503  0  -0.083537  -0.180554  0  3.935013  0
S  S192  1  0.23350796  0.69645000  0.68057667  1  2.874263  0  0.560861  1.109867  0  5.888589  0
S  S193  1  0.76850975  0.36917072  0.29595053  1  2.891623  0  0.557162  1.112287  0  5.917965  0
N  N194  1  0.56243264  0.51412317  0.83307826  1  -1.229011  0  -0.320152  -0.225637  0  3.475273  0
N  N195  1  0.58561786  0.91269051  0.85600887  1  -1.217766  0  -0.32045  -0.236521  0  3.456528  0
N  N196  1  0.40960702  0.09134630  0.15034447  1  -1.188122  0  -0.320409  -0.232612  0  3.458938  0
N  N197  1  0.42857500  0.49016851  0.16317700  1  -1.216531  0  -0.323056  -0.226981  0  3.496203  0
N  N198  1  0.26078855  0.33673470  0.09475171  1  -1.280666  0  -0.331124  -0.243615  0  3.533034  0
N  N199  1  0.73268457  0.64455953  0.90575204  1  -1.237544  0  -0.332727  -0.242683  0  3.535448  0
N  N200  1  0.16685770  0.76602230  0.74157339  1  -1.239698  0  -0.456439  -0.53997  0  3.319744  0
N  N201  1  0.83326077  0.26622616  0.25173809  1  -1.274556  0  -0.45587  -0.543656  0  3.342084  0
O  O202  1  0.04865686  0.80305411  0.34217197  1  -1.158584  0  -0.300757  -0.513926  0  2.144874  0
O  O203  1  0.99918443  0.64006360  0.39706798  1  -1.111073  0  -0.335915  -0.484565  0  2.258892  0
O  O204  1  0.83187940  0.95986864  0.30562035  1  -1.080638  0  -0.170547  -0.186401  0  2.614222  0
O  O205  1  0.10128423  0.17872802  0.31962935  1  -1.078621  0  -0.17781  -0.183042  0  2.559736  0
O  O206  1  0.87670272  0.10879600  0.16374932  1  -1.08882  0  -0.184617  -0.201081  0  2.611412  0
O  O207  1  0.66746116  0.27834294  0.14026227  1  -1.162235  0  -0.334037  -0.553086  0  2.293251  0
O  O208  1  0.58080237  0.25765249  0.04449565  1  -1.189845  0  -0.339834  -0.580896  0  2.143081  0
O  O209  1  0.47462081  0.19439275  0.27089401  1  -1.157654  0  -0.329371  -0.551132  0  2.230019  0
O  O210  1  0.28061624  0.31301782  0.25516714  1  -1.175625  0  -0.332807  -0.565124  0  2.195226  0
O  O211  1  0.11724225  0.90145960  0.84948103  1  -1.090936  0  -0.190862  -0.207358  0  2.579189  0
O  O212  1  0.32851779  0.72447947  0.85381252  1  -1.167606  0  -0.321415  -0.542756  0  2.304764  0
O  O213  1  0.41557045  0.73314891  0.95082960  1  -1.190369  0  -0.32411  -0.562247  0  2.173009  0
O  O214  1  0.18416218  0.07473152  0.73591900  1  -1.102365  0  -0.182035  -0.215558  0  2.646828  0
O  O215  1  0.02716797  0.21413303  0.79993493  1  -1.174361  0  -0.349183  -0.498014  0  2.302749  0
O  O216  1  0.09434324  0.37949217  0.81793044  1  -1.157815  0  -0.293091  -0.489094  0  2.12428  0
O  O217  1  0.89642434  0.87588613  0.68880510  1  -1.073266  0  -0.1744  -0.181404  0  2.594757  0
O  O218  1  0.52255242  0.80787335  0.72907593  1  -1.149599  0  -0.335437  -0.553459  0  2.213081  0
O  O219  1  0.73392088  0.72614021  0.75060873  1  -1.17406  0  -0.335404  -0.561912  0  2.194395  0
O  O220  1  0.81940363  0.34294318  0.36108277  1  -1.31254  0  -0.327074  -0.5393  0  2.131096  0
O  O221  1  0.62484742  0.39620139  0.28705121  1  -1.291632  0  -0.319033  -0.548208  0  2.201594  0
O  O222  1  0.32802583  0.60324381  0.71038178  1  -1.309805  0  -0.310141  -0.526677  0  2.186636  0
O  O223  1  0.27886102  0.77307209  0.62834920  1  -1.320226  0  -0.316672  -0.552698  0  2.196553  0
