# generated using pymatgen
data_HgH11C10N(ClO)2
_symmetry_space_group_name_H-M   'P 1'
_cell_length_a   7.11998905
_cell_length_b   7.48624572
_cell_length_c   25.96400000
_cell_angle_alpha   90.00000000
_cell_angle_beta   90.00000000
_cell_angle_gamma   118.26259864
_symmetry_Int_Tables_number   1
_chemical_formula_structural   HgH11C10N(ClO)2
_chemical_formula_sum   'Hg4 H44 C40 N4 Cl8 O8'
_cell_volume   1218.94952507
_cell_formula_units_Z   4
loop_
 _symmetry_equiv_pos_site_id
 _symmetry_equiv_pos_as_xyz
  1  'x, y, z'
loop_
 _atom_site_type_symbol
 _atom_site_label
 _atom_site_symmetry_multiplicity
 _atom_site_fract_x
 _atom_site_fract_y
 _atom_site_fract_z
 _atom_site_occupancy
 _atom_site_hle17_bader_spin_density
 _atom_site_hle17_ddec_charge
 _atom_site_hle17_ddec_spin_density
 _atom_site_hle17_ddec_sum_bond_order
 _atom_site_hle17_magmom
 _atom_site_hse06_10hf_bader_spin_density
 _atom_site_hse06_10hf_ddec_charge
 _atom_site_hse06_10hf_ddec_spin_density
 _atom_site_hse06_10hf_ddec_sum_bond_order
 _atom_site_hse06_10hf_magmom
 _atom_site_hse06_bader_spin_density
 _atom_site_hse06_ddec_charge
 _atom_site_hse06_ddec_spin_density
 _atom_site_hse06_ddec_sum_bond_order
 _atom_site_hse06_magmom
 _atom_site_pbe_bader_charge
 _atom_site_pbe_bader_spin_density
 _atom_site_pbe_cm5_charge
 _atom_site_pbe_ddec_charge
 _atom_site_pbe_ddec_spin_density
 _atom_site_pbe_ddec_sum_bond_order
 _atom_site_pbe_magmom
Hg  Hg0  1  0.58432391  0.29984447  0.00462217  1  0  0.744689  0  2.083118  0  0  0.596817  0  2.564243  0  0  0.644895  0  2.533017  0  0.833925  0  0.512582  0.563924  0  2.584989  0
Hg  Hg1  1  0.91567088  0.20015211  0.50462487  1  0  0.744751  0  2.083052  0  0  0.596884  0  2.564174  0  0  0.644962  0  2.532948  0  0.833911  0  0.512609  0.563989  0  2.584923  0
Hg  Hg2  1  0.41566455  0.70014413  0.99537860  1  0  0.744668  0  2.08307  0  0  0.596847  0  2.564193  0  0  0.644926  0  2.532965  0  0.833946  0  0.512596  0.563954  0  2.584942  0
Hg  Hg3  1  0.08432534  0.79985772  0.49537629  1  0  0.744748  0  2.083087  0  0  0.596904  0  2.564203  0  0  0.644983  0  2.532974  0  0.834039  0  0.512603  0.56401  0  2.584952  0
H  H4  1  0.46991001  0.14014864  0.23173587  1  0  0.365073  0  0.934091  0  0  0.333102  0  1.01647  0  0  0.346595  0  1.003655  0  0.631468  0  0.294477  0.323775  0  1.025114  0
H  H5  1  0.03009383  0.35984945  0.73173856  1  0  0.36505  0  0.934146  0  0  0.333049  0  1.016567  0  0  0.346541  0  1.003755  0  0.631522  0  0.294459  0.323722  0  1.025212  0
H  H6  1  0.53008925  0.85984754  0.76826259  1  0  0.365034  0  0.934181  0  0  0.333064  0  1.016558  0  0  0.346557  0  1.003744  0  0.631464  0  0.294456  0.323738  0  1.025203  0
H  H7  1  0.96991536  0.64014976  0.26825990  1  0  0.365067  0  0.934232  0  0  0.333107  0  1.016579  0  0  0.346598  0  1.003766  0  0.631408  0  0.294453  0.323781  0  1.025224  0
H  H8  1  0.61089692  0.71630632  0.19750462  1  0  0.138138  0  0.944093  0  0  0.156236  0  1.005192  0  0  0.159253  0  1.003586  0  0.062804  0  0.097124  0.154061  0  1.006374  0
H  H9  1  0.88909268  0.78368340  0.69750578  1  0  0.138106  0  0.944131  0  0  0.156209  0  1.005228  0  0  0.159225  0  1.003624  0  0.062732  0  0.097129  0.154036  0  1.006406  0
H  H10  1  0.38910309  0.28369138  0.80249461  1  0  0.138158  0  0.944073  0  0  0.156248  0  1.005187  0  0  0.159265  0  1.003581  0  0.062804  0  0.097119  0.154074  0  1.006365  0
H  H11  1  0.11090507  0.21630975  0.30249345  1  0  0.138088  0  0.944126  0  0  0.156211  0  1.005216  0  0  0.159229  0  1.003609  0  0.062743  0  0.097143  0.154035  0  1.006397  0
H  H12  1  0.43218255  0.65185927  0.14332268  1  0  0.133717  0  0.973386  0  0  0.148057  0  1.043599  0  0  0.150481  0  1.043045  0  0.093154  0  0.082815  0.146289  0  1.044071  0
H  H13  1  0.06781112  0.84813045  0.64332422  1  0  0.133762  0  0.973405  0  0  0.148101  0  1.043606  0  0  0.150527  0  1.04305  0  0.09321  0  0.082837  0.146334  0  1.044079  0
H  H14  1  0.56781735  0.34813539  0.85667655  1  0  0.133755  0  0.973353  0  0  0.148112  0  1.043541  0  0  0.15053  0  1.042991  0  0.093173  0  0.08284  0.146344  0  1.044015  0
H  H15  1  0.93218813  0.15186573  0.35667578  1  0  0.133774  0  0.973353  0  0  0.148113  0  1.043566  0  0  0.150537  0  1.043011  0  0.093171  0  0.08284  0.146344  0  1.04404  0
H  H16  1  0.33312091  0.55583855  0.20551918  1  0  0.147509  0  0.946566  0  0  0.164167  0  1.012986  0  0  0.167476  0  1.010881  0  0.096051  0  0.102472  0.161804  0  1.014514  0
H  H17  1  0.16686952  0.94415875  0.70551957  1  0  0.14753  0  0.946576  0  0  0.164171  0  1.01302  0  0  0.16748  0  1.010916  0  0.09607  0  0.102451  0.161809  0  1.014549  0
H  H18  1  0.66687694  0.44415763  0.79448082  1  0  0.147544  0  0.94655  0  0  0.164201  0  1.012977  0  0  0.16751  0  1.010871  0  0.096062  0  0.102489  0.161839  0  1.014507  0
H  H19  1  0.83312563  0.05584046  0.29448005  1  0  0.147517  0  0.946549  0  0  0.164172  0  1.012979  0  0  0.16748  0  1.010874  0  0.096058  0  0.102464  0.16181  0  1.014507  0
H  H20  1  0.98805974  0.14849892  0.20586620  1  0  0.145202  0  0.939091  0  0  0.163939  0  1.000466  0  0  0.166458  0  0.999308  0  0.075302  0  0.104004  0.162078  0  1.001397  0
H  H21  1  0.51194575  0.35150220  0.70586697  1  0  0.145229  0  0.939008  0  0  0.163979  0  1.000386  0  0  0.166498  0  0.999228  0  0.075305  0  0.103977  0.162118  0  1.00132  0
H  H22  1  0.01193444  0.85149270  0.79413380  1  0  0.145192  0  0.9391  0  0  0.163925  0  1.000477  0  0  0.166471  0  0.999289  0  0.075307  0  0.104017  0.162067  0  1.001404  0
H  H23  1  0.48807089  0.64850914  0.29413226  1  0  0.145199  0  0.939053  0  0  0.163948  0  1.000401  0  0  0.166477  0  0.999232  0  0.075494  0  0.10401  0.162088  0  1.00133  0
H  H24  1  0.91952326  0.96681038  0.15498883  1  0  0.131759  0  0.957678  0  0  0.151908  0  1.015491  0  0  0.153491  0  1.015991  0  0.055076  0  0.094376  0.150817  0  1.015127  0
H  H25  1  0.58047659  0.53319147  0.65498960  1  0  0.131787  0  0.957725  0  0  0.151949  0  1.015516  0  0  0.153533  0  1.016016  0  0.055134  0  0.094375  0.150857  0  1.015155  0
H  H26  1  0.08046963  0.03318428  0.84501078  1  0  0.131679  0  0.957837  0  0  0.151915  0  1.015535  0  0  0.153497  0  1.016039  0  0.055139  0  0.09439  0.150823  0  1.015174  0
H  H27  1  0.41953572  0.46681684  0.34500847  1  0  0.131718  0  0.957683  0  0  0.15197  0  1.015359  0  0  0.153553  0  1.01586  0  0.055296  0  0.094394  0.150878  0  1.015  0
H  H28  1  0.11214527  0.22292507  0.14434063  1  0  0.142062  0  0.968021  0  0  0.159979  0  1.033746  0  0  0.16231  0  1.033338  0  0.103874  0  0.090058  0.158313  0  1.034083  0
H  H29  1  0.38785381  0.27707757  0.64434140  1  0  0.14204  0  0.968063  0  0  0.159965  0  1.03377  0  0  0.162309  0  1.033355  0  0.103929  0  0.090069  0.158301  0  1.034105  0
H  H30  1  0.88785183  0.77706959  0.85566014  1  0  0.142117  0  0.968054  0  0  0.160049  0  1.033754  0  0  0.162375  0  1.033355  0  0.103807  0  0.090098  0.158382  0  1.034094  0
H  H31  1  0.61215850  0.72293074  0.35565822  1  0  0.142042  0  0.96797  0  0  0.159923  0  1.033738  0  0  0.162268  0  1.033329  0  0.103866  0  0.090048  0.158265  0  1.034067  0
H  H32  1  0.19639044  0.98176234  0.07560507  1  0  0.109102  0  0.974489  0  0  0.115983  0  1.042493  0  0  0.118686  0  1.042332  0  0.10928  0  0.093289  0.113909  0  1.04295  0
H  H33  1  0.30360161  0.51824102  0.57561008  1  0  0.109067  0  0.974552  0  0  0.115952  0  1.042556  0  0  0.118691  0  1.042359  0  0.10944  0  0.093286  0.113866  0  1.043025  0
H  H34  1  0.80359877  0.01822777  0.92439493  1  0  0.109047  0  0.974451  0  0  0.115926  0  1.042492  0  0  0.118629  0  1.042329  0  0.109295  0  0.09327  0.113846  0  1.042955  0
H  H35  1  0.69640369  0.48176729  0.42439147  1  0  0.109059  0  0.974486  0  0  0.115938  0  1.042506  0  0  0.118665  0  1.04232  0  0.109342  0  0.093293  0.113852  0  1.042976  0
H  H36  1  0.94628269  0.73954942  0.01096903  1  0  0.084327  0  0.987588  0  0  0.088113  0  1.061044  0  0  0.090589  0  1.058824  0  0.18049  0  0.09593  0.086217  0  1.062804  0
H  H37  1  0.55371144  0.76044940  0.51097289  1  0  0.08432  0  0.987681  0  0  0.088109  0  1.061119  0  0  0.090585  0  1.0589  0  0.18076  0  0.095927  0.086214  0  1.062878  0
H  H38  1  0.05371085  0.26044373  0.98903135  1  0  0.084301  0  0.987575  0  0  0.088098  0  1.06101  0  0  0.090575  0  1.05879  0  0.180587  0  0.095923  0.086204  0  1.062768  0
H  H39  1  0.44628478  0.23956043  0.48902788  1  0  0.084302  0  0.987616  0  0  0.088106  0  1.061015  0  0  0.090581  0  1.058797  0  0.180777  0  0.09591  0.086209  0  1.062778  0
H  H40  1  0.73397824  0.26121567  0.11479549  1  0  0.087136  0  0.94777  0  0  0.098273  0  1.008488  0  0  0.100282  0  1.006525  0  0.122497  0  0.109572  0.096728  0  1.01005  0
H  H41  1  0.76601601  0.23878545  0.61479741  1  0  0.087152  0  0.947689  0  0  0.098272  0  1.008429  0  0  0.100278  0  1.006467  0  0.122411  0  0.109588  0.096727  0  1.009993  0
H  H42  1  0.26600255  0.73877444  0.88520528  1  0  0.087135  0  0.947808  0  0  0.098249  0  1.008537  0  0  0.100259  0  1.006574  0  0.122558  0  0.109584  0.096704  0  1.010102  0
H  H43  1  0.23398367  0.76122285  0.38520259  1  0  0.087165  0  0.947675  0  0  0.098294  0  1.008415  0  0  0.1003  0  1.006447  0  0.122457  0  0.109571  0.096748  0  1.00998  0
H  H44  1  0.97433743  0.48384500  0.18374904  1  0  0.117862  0  0.966624  0  0  0.12673  0  1.026803  0  0  0.130145  0  1.026062  0  0.113711  0  0.111549  0.12424  0  1.027563  0
H  H45  1  0.52566416  0.01616522  0.68375327  1  0  0.117864  0  0.966436  0  0  0.126768  0  1.026599  0  0  0.130158  0  1.025884  0  0.11387  0  0.11156  0.124279  0  1.027361  0
H  H46  1  0.02565103  0.51614359  0.81625096  1  0  0.117953  0  0.966645  0  0  0.126815  0  1.026799  0  0  0.130224  0  1.026067  0  0.113601  0  0.111583  0.124325  0  1.02756  0
H  H47  1  0.47434480  0.98384764  0.31624865  1  0  0.117895  0  0.966573  0  0  0.126738  0  1.026752  0  0  0.130157  0  1.026007  0  0.113389  0  0.111557  0.124249  0  1.027514  0
C  C48  1  0.45305176  0.68893812  0.18457595  1  0  -0.43187  0  3.66287  0  0  -0.51008  0  3.900576  0  0  -0.516532  0  3.901979  0  -0.097138  0  -0.252539  -0.505328  0  3.89942  0
C  C49  1  0.04694353  0.81105766  0.68457711  1  0  -0.431969  0  3.662843  0  0  -0.510168  0  3.900538  0  0  -0.516621  0  3.90194  0  -0.097096  0  -0.252538  -0.505419  0  3.899384  0
C  C50  1  0.54694976  0.31106260  0.81542366  1  0  -0.431972  0  3.662774  0  0  -0.510203  0  3.900449  0  0  -0.516648  0  3.90186  0  -0.097142  0  -0.252585  -0.505451  0  3.899294  0
C  C51  1  0.95305713  0.18893852  0.31542366  1  0  -0.431942  0  3.662777  0  0  -0.51018  0  3.900495  0  0  -0.516633  0  3.901901  0  -0.097132  0  -0.252607  -0.505424  0  3.899338  0
C  C52  1  0.42305039  0.86883934  0.19709829  1  0  0.508021  0  3.677328  0  0  0.48607  0  3.955778  0  0  0.513803  0  3.957356  0  0.753483  0  0.142584  0.467499  0  3.954027  0
C  C53  1  0.07695279  0.63116099  0.69710176  1  0  0.508226  0  3.677303  0  0  0.486202  0  3.955766  0  0  0.513934  0  3.957342  0  0.753509  0  0.142556  0.467632  0  3.954018  0
C  C54  1  0.57695027  0.13115684  0.80290094  1  0  0.50813  0  3.677271  0  0  0.48621  0  3.955678  0  0  0.513944  0  3.957253  0  0.75354  0  0.142672  0.467639  0  3.95393  0
C  C55  1  0.92304938  0.36883822  0.30289901  1  0  0.508135  0  3.677344  0  0  0.486152  0  3.955822  0  0  0.513886  0  3.957398  0  0.753555  0  0.142557  0.467582  0  3.954074  0
C  C56  1  0.25282564  0.89544470  0.17475235  1  0  -0.337053  0  3.72768  0  0  -0.330703  0  3.982932  0  0  -0.353975  0  4.007683  0  -0.002396  0  -0.06315  -0.315222  0  3.965915  0
C  C57  1  0.24718272  0.60456322  0.67475697  1  0  -0.337221  0  3.727719  0  0  -0.330696  0  3.982868  0  0  -0.353967  0  4.007619  0  -0.001964  0  -0.063142  -0.31522  0  3.965852  0
C  C58  1  0.74717632  0.10454845  0.82524804  1  0  -0.337278  0  3.727746  0  0  -0.330927  0  3.983022  0  0  -0.354199  0  4.007772  0  -0.00235  0  -0.063318  -0.315448  0  3.966007  0
C  C59  1  0.75282323  0.39544358  0.32524457  1  0  -0.337205  0  3.72758  0  0  -0.33079  0  3.982896  0  0  -0.354062  0  4.007647  0  -0.001744  0  -0.063172  -0.315313  0  3.965881  0
C  C60  1  0.22569140  0.06108328  0.19042829  1  0  0.476863  0  3.657728  0  0  0.456702  0  3.932413  0  0  0.481628  0  3.938333  0  0.617848  0  0.133831  0.440026  0  3.927833  0
C  C61  1  0.27431331  0.43891936  0.69043137  1  0  0.476934  0  3.657481  0  0  0.456677  0  3.932223  0  0  0.481601  0  3.938148  0  0.617801  0  0.133881  0.440003  0  3.927644  0
C  C62  1  0.77430343  0.93890683  0.80957094  1  0  0.476989  0  3.657527  0  0  0.456788  0  3.932273  0  0  0.481711  0  3.938201  0  0.617623  0  0.133972  0.440114  0  3.927694  0
C  C63  1  0.72570052  0.56109198  0.30956902  1  0  0.477031  0  3.657399  0  0  0.456799  0  3.932183  0  0  0.48172  0  3.938108  0  0.617359  0  0.133939  0.440124  0  3.927608  0
C  C64  1  0.04937197  0.09981217  0.17303921  1  0  -0.413979  0  3.665538  0  0  -0.492571  0  3.898887  0  0  -0.498268  0  3.902414  0  -0.050519  0  -0.246863  -0.488398  0  3.896333  0
C  C65  1  0.45062927  0.40019199  0.67303959  1  0  -0.414086  0  3.665593  0  0  -0.492666  0  3.898906  0  0  -0.498377  0  3.902418  0  -0.050646  0  -0.246894  -0.488498  0  3.896357  0
C  C66  1  0.95062221  0.90017946  0.82696195  1  0  -0.414033  0  3.665725  0  0  -0.492676  0  3.899055  0  0  -0.498392  0  3.902568  0  -0.050481  0  -0.246981  -0.488508  0  3.896509  0
C  C67  1  0.54938456  0.59981936  0.32695887  1  0  -0.413992  0  3.665542  0  0  -0.492591  0  3.898906  0  0  -0.498312  0  3.902405  0  -0.050865  0  -0.246908  -0.488427  0  3.896353  0
C  C68  1  0.10884975  0.75330934  0.13555885  1  0  0.168377  0  3.761492  0  0  0.18106  0  3.986959  0  0  0.189485  0  4.010398  0  -0.051047  0  0.02083  0.175549  0  3.971118  0
C  C69  1  0.39115860  0.74669857  0.63556193  1  0  0.168472  0  3.761534  0  0  0.181073  0  3.987067  0  0  0.189497  0  4.01051  0  -0.051131  0  0.020902  0.175567  0  3.971221  0
C  C70  1  0.89114508  0.24668077  0.86444308  1  0  0.168469  0  3.761516  0  0  0.181138  0  3.986983  0  0  0.18956  0  4.010433  0  -0.051051  0  0.020888  0.175629  0  3.971139  0
C  C71  1  0.60885393  0.25331580  0.36444038  1  0  0.168557  0  3.76155  0  0  0.18109  0  3.987174  0  0  0.189517  0  4.010613  0  -0.051326  0  0.020867  0.175581  0  3.971333  0
C  C72  1  0.09847101  0.82293551  0.08598983  1  0  -0.158213  0  3.699268  0  0  -0.173368  0  3.94367  0  0  -0.182712  0  3.965703  0  0.089111  0  -0.08441  -0.167398  0  3.929234  0
C  C73  1  0.40152946  0.67706785  0.58599368  1  0  -0.158329  0  3.699374  0  0  -0.173496  0  3.943792  0  0  -0.18287  0  3.965805  0  0.088677  0  -0.084487  -0.167519  0  3.929375  0
C  C74  1  0.90152749  0.17705915  0.91401094  1  0  -0.15813  0  3.699065  0  0  -0.173345  0  3.943536  0  0  -0.182689  0  3.965568  0  0.088993  0  -0.084442  -0.167373  0  3.929108  0
C  C75  1  0.59847151  0.32293742  0.41400747  1  0  -0.158338  0  3.699342  0  0  -0.173488  0  3.943792  0  0  -0.182854  0  3.965809  0  0.088841  0  -0.084498  -0.167512  0  3.929373  0
C  C76  1  0.96030877  0.69006494  0.04961562  1  0  0.109544  0  3.712696  0  0  0.074321  0  3.968426  0  0  0.082304  0  3.987181  0  0.349569  0  0.03169  0.069111  0  3.95588  0
C  C77  1  0.53968546  0.80993691  0.54962024  1  0  0.109701  0  3.71256  0  0  0.074495  0  3.968252  0  0  0.082475  0  3.987021  0  0.349558  0  0.031742  0.069282  0  3.955714  0
C  C78  1  0.03968789  0.30993730  0.95038361  1  0  0.109578  0  3.712712  0  0  0.074426  0  3.968469  0  0  0.082412  0  3.987225  0  0.349505  0  0.031755  0.069214  0  3.955922  0
C  C79  1  0.46031401  0.19006534  0.45038014  1  0  0.109743  0  3.712734  0  0  0.074572  0  3.968423  0  0  0.082555  0  3.987189  0  0.349587  0  0.031792  0.069359  0  3.955885  0
C  C80  1  0.84064063  0.42157424  0.10785973  1  0  0.136168  0  3.681281  0  0  0.098697  0  3.933099  0  0  0.108464  0  3.950053  0  0.426371  0  0.044605  0.092242  0  3.921806  0
C  C81  1  0.65935026  0.07843143  0.60786088  1  0  0.136258  0  3.681279  0  0  0.0988  0  3.93312  0  0  0.108575  0  3.950058  0  0.426691  0  0.044609  0.092342  0  3.921834  0
C  C82  1  0.15934728  0.57841890  0.89214143  1  0  0.136075  0  3.681392  0  0  0.098701  0  3.933176  0  0  0.108469  0  3.950128  0  0.426243  0  0.044516  0.092242  0  3.92189  0
C  C83  1  0.34064866  0.92157536  0.39213835  1  0  0.13622  0  3.681096  0  0  0.098741  0  3.932937  0  0  0.108515  0  3.949882  0  0.426744  0  0.044567  0.092285  0  3.921649  0
C  C84  1  0.97571394  0.54674514  0.14585619  1  0  -0.148644  0  3.660538  0  0  -0.165599  0  3.904695  0  0  -0.173762  0  3.923672  0  0.034427  0  -0.0766  -0.160504  0  3.892252  0
C  C85  1  0.52429034  0.95326278  0.64586042  1  0  -0.148679  0  3.660082  0  0  -0.165658  0  3.904267  0  0  -0.173802  0  3.923256  0  0.03399  0  -0.076661  -0.160566  0  3.891827  0
C  C86  1  0.02428381  0.45324801  0.85414304  1  0  -0.14881  0  3.660734  0  0  -0.165713  0  3.904785  0  0  -0.173874  0  3.923767  0  0.03458  0  -0.076642  -0.160618  0  3.892345  0
C  C87  1  0.47571301  0.04675008  0.35413958  1  0  -0.148802  0  3.660496  0  0  -0.165634  0  3.904616  0  0  -0.173802  0  3.92359  0  0.034589  0  -0.076636  -0.160536  0  3.892168  0
N  N88  1  0.83415701  0.49252438  0.06054152  1  0  -0.271195  0  3.357037  0  0  -0.17562  0  3.613111  0  0  -0.200428  0  3.639057  0  -1.193875  0  -0.310918  -0.159149  0  3.595371  0
N  N89  1  0.66584501  0.00747825  0.56054383  1  0  -0.271353  0  3.35715  0  0  -0.175788  0  3.61324  0  0  -0.200595  0  3.639176  0  -1.194101  0  -0.31094  -0.159319  0  3.595507  0
N  N90  1  0.16584008  0.50747028  0.93945887  1  0  -0.271059  0  3.357139  0  0  -0.175662  0  3.613321  0  0  -0.200472  0  3.639265  0  -1.193789  0  -0.310894  -0.159191  0  3.595584  0
N  N91  1  0.33415261  0.99253157  0.43945578  1  0  -0.271315  0  3.357173  0  0  -0.175807  0  3.613301  0  0  -0.200613  0  3.63923  0  -1.1941  0  -0.310897  -0.159336  0  3.595564  0
Cl  Cl92  1  0.69052192  0.61987005  0.93779194  1  0  -0.526401  0  0.987193  0  0  -0.471778  0  1.262562  0  0  -0.491749  0  1.245956  0  -0.595001  0  -0.287929  -0.457244  0  1.27369  0
Cl  Cl93  1  0.80946097  0.88012876  0.43779194  1  0  -0.526413  0  0.987205  0  0  -0.471778  0  1.262526  0  0  -0.491752  0  1.245936  0  -0.595  0  -0.287934  -0.457257  0  1.273673  0
Cl  Cl94  1  0.30946157  0.38011702  0.06220998  1  0  -0.526412  0  0.987196  0  0  -0.471768  0  1.262511  0  0  -0.49174  0  1.245909  0  -0.595009  0  -0.287924  -0.457246  0  1.273667  0
Cl  Cl95  1  0.19054302  0.11988258  0.56220729  1  0  -0.526401  0  0.987176  0  0  -0.471777  0  1.262502  0  0  -0.491753  0  1.245913  0  -0.594964  0  -0.287942  -0.457249  0  1.27364  0
Cl  Cl96  1  0.34678568  0.04043353  0.94683177  1  0  -0.439726  0  1.063813  0  0  -0.37449  0  1.348681  0  0  -0.395079  0  1.333189  0  -0.480188  0  -0.238089  -0.360326  0  1.359089  0
Cl  Cl97  1  0.15320692  0.45956456  0.44683100  1  0  -0.439761  0  1.063753  0  0  -0.37452  0  1.348583  0  0  -0.395108  0  1.333087  0  -0.480229  0  -0.238098  -0.360351  0  1.35898  0
Cl  Cl98  1  0.65320428  0.95955810  0.05317054  1  0  -0.439747  0  1.063785  0  0  -0.374489  0  1.348586  0  0  -0.39508  0  1.333103  0  -0.480218  0  -0.238086  -0.360344  0  1.359035  0
Cl  Cl99  1  0.84679211  0.54044527  0.55316823  1  0  -0.439763  0  1.063815  0  0  -0.374517  0  1.348642  0  0  -0.395106  0  1.333149  0  -0.480264  0  -0.238102  -0.360353  0  1.359048  0
O  O100  1  0.55261663  0.00072341  0.22879680  1  0  -0.536194  0  1.978165  0  0  -0.480695  0  2.191907  0  0  -0.504809  0  2.186563  0  -1.133121  0  -0.288729  -0.464135  0  2.195127  0
O  O101  1  0.94738669  0.49927620  0.72879911  1  0  -0.536209  0  1.978231  0  0  -0.480683  0  2.192006  0  0  -0.504796  0  2.186661  0  -1.133282  0  -0.288683  -0.464124  0  2.195226  0
O  O102  1  0.44738413  0.99927580  0.77120089  1  0  -0.53623  0  1.978154  0  0  -0.480742  0  2.191889  0  0  -0.504854  0  2.18654  0  -1.133178  0  -0.288759  -0.464183  0  2.195112  0
O  O103  1  0.05261602  0.50071846  0.27120051  1  0  -0.536206  0  1.978287  0  0  -0.480685  0  2.192011  0  0  -0.504798  0  2.186667  0  -1.133232  0  -0.28868  -0.464127  0  2.195233  0
O  O104  1  0.35880472  0.19407821  0.22373440  1  0  -0.482242  0  2.07016  0  0  -0.425257  0  2.276086  0  0  -0.449034  0  2.268487  0  -1.145106  0  -0.312562  -0.408867  0  2.280701  0
O  O105  1  0.14119556  0.30591837  0.72373710  1  0  -0.482242  0  2.070072  0  0  -0.425219  0  2.276049  0  0  -0.448997  0  2.268451  0  -1.145139  0  -0.312573  -0.408829  0  2.280663  0
O  O106  1  0.64119022  0.80591494  0.77626444  1  0  -0.482182  0  2.070101  0  0  -0.42519  0  2.276044  0  0  -0.44897  0  2.268453  0  -1.145021  0  -0.312541  -0.4088  0  2.280657  0
O  O107  1  0.85881946  0.69408691  0.27626175  1  0  -0.482287  0  2.070055  0  0  -0.425278  0  2.275968  0  0  -0.449067  0  2.268402  0  -1.14506  0  -0.312565  -0.408888  0  2.280586  0
