# generated using pymatgen
data_Cd3H16C22(SN5)6
_symmetry_space_group_name_H-M   'P 1'
_cell_length_a   6.97938767
_cell_length_b   10.60646263
_cell_length_c   13.80373533
_cell_angle_alpha   88.31843543
_cell_angle_beta   80.94864114
_cell_angle_gamma   81.18722399
_symmetry_Int_Tables_number   1
_chemical_formula_structural   Cd3H16C22(SN5)6
_chemical_formula_sum   'Cd3 H16 C22 S6 N30'
_cell_volume   997.19170193
_cell_formula_units_Z   1
loop_
 _symmetry_equiv_pos_site_id
 _symmetry_equiv_pos_as_xyz
  1  'x, y, z'
loop_
 _atom_site_type_symbol
 _atom_site_label
 _atom_site_symmetry_multiplicity
 _atom_site_fract_x
 _atom_site_fract_y
 _atom_site_fract_z
 _atom_site_occupancy
 _atom_site_hle17_bader_spin_density
 _atom_site_hle17_ddec_charge
 _atom_site_hle17_ddec_spin_density
 _atom_site_hle17_ddec_sum_bond_order
 _atom_site_hle17_magmom
 _atom_site_hse06_10hf_bader_spin_density
 _atom_site_hse06_10hf_ddec_charge
 _atom_site_hse06_10hf_ddec_spin_density
 _atom_site_hse06_10hf_ddec_sum_bond_order
 _atom_site_hse06_10hf_magmom
 _atom_site_hse06_bader_spin_density
 _atom_site_hse06_ddec_charge
 _atom_site_hse06_ddec_spin_density
 _atom_site_hse06_ddec_sum_bond_order
 _atom_site_hse06_magmom
 _atom_site_pbe_bader_spin_density
 _atom_site_pbe_cm5_charge
 _atom_site_pbe_ddec_charge
 _atom_site_pbe_ddec_spin_density
 _atom_site_pbe_ddec_sum_bond_order
 _atom_site_pbe_magmom
Cd  Cd0  1  0.74417540  0.37527979  0.40947316  1  0  1.050494  0  1.891481  0  0  0.855476  0  2.374702  0  0  0.902712  0  2.33142  0  0  0.788141  0.822557  0  2.403686  0
Cd  Cd1  1  0.25580302  0.62473151  0.59053010  1  0  1.050433  0  1.891598  0  0  0.855418  0  2.37479  0  0  0.902657  0  2.331509  0  0  0.788108  0.822502  0  2.403775  0
Cd  Cd2  1  0.00000081  0.99999938  0.00000002  1  0  1.045587  0  1.92001  0  0  0.834659  0  2.400691  0  0  0.88267  0  2.357998  0  0  0.825513  0.800973  0  2.429032  0
H  H3  1  0.56847791  0.27709541  0.65445604  1  0  0.125204  0  0.95245  0  0  0.130016  0  1.02153  0  0  0.133133  0  1.01794  0  0  0.132735  0.127626  0  1.02433  0
H  H4  1  0.43152138  0.72290611  0.34554366  1  0  0.125207  0  0.952441  0  0  0.130013  0  1.021536  0  0  0.133132  0  1.017943  0  0  0.132727  0.127624  0  1.024334  0
H  H5  1  0.16255759  0.09571150  0.53001403  1  0  0.111949  0  0.981688  0  0  0.112546  0  1.057929  0  0  0.115279  0  1.055183  0  0  0.130376  0.110591  0  1.059736  0
H  H6  1  0.83743811  0.90428627  0.46998751  1  0  0.111953  0  0.981775  0  0  0.112618  0  1.057924  0  0  0.11535  0  1.055179  0  0  0.130419  0.110627  0  1.059765  0
H  H7  1  0.09859030  0.21811141  0.80046674  1  0  0.127213  0  0.929067  0  0  0.132613  0  0.997975  0  0  0.135499  0  0.99425  0  0  0.142581  0.13045  0  1.000732  0
H  H8  1  0.90140937  0.78188823  0.19953588  1  0  0.127186  0  0.929075  0  0  0.132592  0  0.997977  0  0  0.135477  0  0.994252  0  0  0.142572  0.130428  0  1.000736  0
H  H9  1  0.51052191  0.91594495  0.65994979  1  0  0.106039  0  0.983511  0  0  0.105441  0  1.062072  0  0  0.108261  0  1.059454  0  0  0.132479  0.103265  0  1.064165  0
H  H10  1  0.48948009  0.08405751  0.34005112  1  0  0.106007  0  0.983494  0  0  0.105418  0  1.06206  0  0  0.108238  0  1.059443  0  0  0.132473  0.10324  0  1.064156  0
H  H11  1  0.65938435  0.36035379  0.04078159  1  0  0.112297  0  0.958964  0  0  0.113112  0  1.03688  0  0  0.115903  0  1.033207  0  0  0.137684  0.111233  0  1.039746  0
H  H12  1  0.34061806  0.63964671  0.95921499  1  0  0.112306  0  0.958954  0  0  0.113121  0  1.03688  0  0  0.115911  0  1.033206  0  0  0.1377  0.111243  0  1.039742  0
H  H13  1  0.28465583  0.33206318  0.31223869  1  0  0.124126  0  0.954753  0  0  0.12487  0  1.030852  0  0  0.127735  0  1.027022  0  0  0.143855  0.122935  0  1.033825  0
H  H14  1  0.71534697  0.66793542  0.68775865  1  0  0.12406  0  0.954795  0  0  0.124795  0  1.030919  0  0  0.127659  0  1.027088  0  0  0.143815  0.12286  0  1.033892  0
H  H15  1  0.32797621  0.10222309  0.12334104  1  0  0.131665  0  0.93785  0  0  0.132886  0  1.010545  0  0  0.135818  0  1.007306  0  0  0.14688  0.130788  0  1.01279  0
H  H16  1  0.67203336  0.89777071  0.87665879  1  0  0.131618  0  0.937976  0  0  0.132848  0  1.010672  0  0  0.135778  0  1.007434  0  0  0.146846  0.130742  0  1.012938  0
H  H17  1  0.14291945  0.49359222  0.06133690  1  0  0.118077  0  0.943647  0  0  0.118993  0  1.020174  0  0  0.122352  0  1.016038  0  0  0.140518  0.116541  0  1.023295  0
H  H18  1  0.85708120  0.50640265  0.93866506  1  0  0.118003  0  0.943687  0  0  0.118946  0  1.020177  0  0  0.122306  0  1.016042  0  0  0.140506  0.116498  0  1.023288  0
C  C19  1  0.48688229  0.24734491  0.60036591  1  0  0.162969  0  3.646992  0  0  0.092178  0  3.926525  0  0  0.107232  0  3.936167  0  0  0.165256  0.082222  0  3.920132  0
C  C20  1  0.51311554  0.75265663  0.39963391  1  0  0.162946  0  3.64715  0  0  0.092153  0  3.92667  0  0  0.107207  0  3.936312  0  0  0.165242  0.082198  0  3.920278  0
C  C21  1  0.27631277  0.15356147  0.53520246  1  0  0.147123  0  3.623589  0  0  0.08443  0  3.904592  0  0  0.096556  0  3.91509  0  0  0.16229  0.076536  0  3.89738  0
C  C22  1  0.72368963  0.84643907  0.46479775  1  0  0.147215  0  3.623582  0  0  0.084481  0  3.904509  0  0  0.096609  0  3.915006  0  0  0.16229  0.076621  0  3.897328  0
C  C23  1  0.19059842  0.12612390  0.78822810  1  0  0.165722  0  3.63808  0  0  0.092298  0  3.920573  0  0  0.106655  0  3.931244  0  0  0.17015  0.082781  0  3.913441  0
C  C24  1  0.80940231  0.87387763  0.21177366  1  0  0.165777  0  3.637966  0  0  0.092341  0  3.920455  0  0  0.106698  0  3.931127  0  0  0.170153  0.082821  0  3.913325  0
C  C25  1  0.40428870  0.96893084  0.71590624  1  0  0.132826  0  3.664165  0  0  0.073793  0  3.948206  0  0  0.084653  0  3.959634  0  0  0.153929  0.066555  0  3.940759  0
C  C26  1  0.59571369  0.03106970  0.28409325  1  0  0.132955  0  3.664162  0  0  0.073899  0  3.948213  0  0  0.084761  0  3.959638  0  0  0.153934  0.066659  0  3.94077  0
C  C27  1  0.60628152  0.36509024  0.11901178  1  0  0.155509  0  3.641083  0  0  0.088872  0  3.937061  0  0  0.10147  0  3.945557  0  0  0.165724  0.072727  0  3.928466  0
C  C28  1  0.39371961  0.63490936  0.88098783  1  0  0.155602  0  3.641004  0  0  0.088936  0  3.93701  0  0  0.101537  0  3.945503  0  0  0.16577  0.072793  0  3.928416  0
C  C29  1  0.40956137  0.35059848  0.25929563  1  0  0.168828  0  3.617439  0  0  0.0981  0  3.89786  0  0  0.112731  0  3.908678  0  0  0.170352  0.080586  0  3.887729  0
C  C30  1  0.59044453  0.64939913  0.74070076  1  0  0.169043  0  3.617332  0  0  0.09829  0  3.897795  0  0  0.112922  0  3.908613  0  0  0.170434  0.08078  0  3.887663  0
C  C31  1  0.24716925  0.18803285  0.09609020  1  0  0.169301  0  3.599749  0  0  0.102026  0  3.871661  0  0  0.115245  0  3.88284  0  0  0.174771  0.09316  0  3.865784  0
C  C32  1  0.75282860  0.81196867  0.90390817  1  0  0.169412  0  3.599411  0  0  0.102109  0  3.87137  0  0  0.115331  0  3.882546  0  0  0.174795  0.093239  0  3.865491  0
C  C33  1  0.15258533  0.39029781  0.06206683  1  0  0.140706  0  3.63882  0  0  0.076128  0  3.929425  0  0  0.088285  0  3.93923  0  0  0.161742  0.067486  0  3.924956  0
C  C34  1  0.84741832  0.60970368  0.93793397  1  0  0.140772  0  3.638819  0  0  0.076157  0  3.929493  0  0  0.08831  0  3.939303  0  0  0.161813  0.067517  0  3.925022  0
C  C35  1  0.33939322  0.80372505  0.10205178  1  0  0.300107  0  4.077765  0  0  0.282941  0  4.379643  0  0  0.305816  0  4.392518  0  0  0.123923  0.267339  0  4.370226  0
C  C36  1  0.66061839  0.19626586  0.89794725  1  0  0.300292  0  4.077761  0  0  0.283124  0  4.379636  0  0  0.305996  0  4.392507  0  0  0.124001  0.267523  0  4.370216  0
C  C37  1  0.03529214  0.09495137  0.35698831  1  0  0.303913  0  4.078284  0  0  0.286018  0  4.377263  0  0  0.309695  0  4.389906  0  0  0.132859  0.26991  0  4.368121  0
C  C38  1  0.96468783  0.90506658  0.64301463  1  0  0.303963  0  4.078159  0  0  0.286071  0  4.377143  0  0  0.309751  0  4.389789  0  0  0.132924  0.269963  0  4.368001  0
C  C39  1  0.08565193  0.56064478  0.38791807  1  0  0.316869  0  3.990129  0  0  0.295487  0  4.288961  0  0  0.317424  0  4.304539  0  0  0.149902  0.280647  0  4.277486  0
C  C40  1  0.91434853  0.43935101  0.61208097  1  0  0.316926  0  3.989902  0  0  0.29555  0  4.288726  0  0  0.317488  0  4.304301  0  0  0.149956  0.280708  0  4.27725  0
S  S41  1  0.44644504  0.67808987  0.15276717  1  0  -0.405254  0  2.025708  0  0  -0.391298  0  2.326913  0  0  -0.407555  0  2.324518  0  0  -0.216119  -0.379751  0  2.328632  0
S  S42  1  0.55355959  0.32190684  0.84723224  1  0  -0.405363  0  2.025376  0  0  -0.391414  0  2.326587  0  0  -0.407676  0  2.324192  0  0  -0.216151  -0.37987  0  2.32831  0
S  S43  1  0.14548673  0.94977414  0.34218518  1  0  -0.370373  0  2.074557  0  0  -0.353292  0  2.381315  0  0  -0.370761  0  2.379433  0  0  -0.17295  -0.340891  0  2.382117  0
S  S44  1  0.85450693  0.05024073  0.65781097  1  0  -0.370358  0  2.074637  0  0  -0.353257  0  2.381354  0  0  -0.370726  0  2.379473  0  0  -0.172975  -0.340861  0  2.382162  0
S  S45  1  0.94411846  0.54532700  0.30667469  1  0  -0.330225  0  2.19832  0  0  -0.308262  0  2.551267  0  0  -0.324471  0  2.542705  0  0  -0.134408  -0.296572  0  2.556328  0
S  S46  1  0.05588597  0.45467065  0.69332399  1  0  -0.330222  0  2.198303  0  0  -0.308258  0  2.551241  0  0  -0.324469  0  2.542679  0  0  -0.1344  -0.29657  0  2.556305  0
N  N47  1  0.49084978  0.28390984  0.50821519  1  0  -0.272603  0  3.158371  0  0  -0.207852  0  3.452835  0  0  -0.224927  0  3.468657  0  0  -0.23915  -0.196342  0  3.44197  0
N  N48  1  0.50914389  0.71609080  0.49178571  1  0  -0.272573  0  3.158527  0  0  -0.207801  0  3.452964  0  0  -0.224875  0  3.468789  0  0  -0.23907  -0.196292  0  3.442103  0
N  N49  1  0.35925516  0.22488480  0.46683340  1  0  -0.208251  0  2.955445  0  0  -0.182021  0  3.234292  0  0  -0.191827  0  3.251431  0  0  -0.214828  -0.175394  0  3.222651  0
N  N50  1  0.64074199  0.77511295  0.53316803  1  0  -0.20833  0  2.95546  0  0  -0.182127  0  3.234336  0  0  -0.191934  0  3.251476  0  0  -0.214892  -0.175501  0  3.222689  0
N  N51  1  0.35269224  0.16476110  0.62007552  1  0  -0.014525  0  3.566591  0  0  0.058691  0  3.792902  0  0  0.046468  0  3.815168  0  0  -0.120717  0.066715  0  3.777776  0
N  N52  1  0.64730598  0.83523855  0.37992576  1  0  -0.01459  0  3.566714  0  0  0.058618  0  3.793038  0  0  0.046394  0  3.815308  0  0  -0.120757  0.066646  0  3.777903  0
N  N53  1  0.31884189  0.09319602  0.70384846  1  0  -0.018315  0  3.5684  0  0  0.055436  0  3.793186  0  0  0.04297  0  3.816161  0  0  -0.120835  0.063535  0  3.777806  0
N  N54  1  0.68115759  0.90680456  0.29615271  1  0  -0.018305  0  3.568343  0  0  0.055464  0  3.793121  0  0  0.042995  0  3.8161  0  0  -0.120752  0.063562  0  3.77774  0
N  N55  1  0.20070151  0.02739336  0.84778457  1  0  -0.235215  0  3.133667  0  0  -0.171024  0  3.42515  0  0  -0.1871  0  3.441083  0  0  -0.225999  -0.160223  0  3.414282  0
N  N56  1  0.79929942  0.97260722  0.15221720  1  0  -0.235228  0  3.133615  0  0  -0.171021  0  3.425081  0  0  -0.187096  0  3.441014  0  0  -0.22601  -0.16022  0  3.414212  0
N  N57  1  0.33474223  0.92814176  0.80280106  1  0  -0.201636  0  2.924181  0  0  -0.187376  0  3.210067  0  0  -0.195293  0  3.226385  0  0  -0.220325  -0.182153  0  3.199498  0
N  N58  1  0.66525909  0.07185690  0.19720001  1  0  -0.201734  0  2.924353  0  0  -0.187477  0  3.210258  0  0  -0.195395  0  3.226574  0  0  -0.220367  -0.182257  0  3.199688  0
N  N59  1  0.70141677  0.38933294  0.18911803  1  0  -0.197609  0  2.934822  0  0  -0.17641  0  3.216425  0  0  -0.184552  0  3.23191  0  0  -0.221548  -0.171305  0  3.208888  0
N  N60  1  0.29858767  0.61066471  0.81088065  1  0  -0.197596  0  2.934901  0  0  -0.176387  0  3.216506  0  0  -0.184529  0  3.231992  0  0  -0.221557  -0.171281  0  3.208971  0
N  N61  1  0.57747836  0.37980365  0.27693966  1  0  -0.264222  0  3.168491  0  0  -0.192842  0  3.459035  0  0  -0.211103  0  3.475631  0  0  -0.239345  -0.181051  0  3.450658  0
N  N62  1  0.42252298  0.62019497  0.72305706  1  0  -0.264398  0  3.168576  0  0  -0.193006  0  3.459132  0  0  -0.211267  0  3.475727  0  0  -0.239436  -0.181213  0  3.450753  0
N  N63  1  0.42202499  0.34186413  0.15985228  1  0  -0.012638  0  3.570567  0  0  0.059722  0  3.798503  0  0  0.047394  0  3.821054  0  0  -0.116229  0.092056  0  3.752536  0
N  N64  1  0.57797925  0.65813449  0.84014784  1  0  -0.012763  0  3.570671  0  0  0.059636  0  3.798604  0  0  0.047305  0  3.821155  0  0  -0.116219  0.091975  0  3.752619  0
N  N65  1  0.28084880  0.30941270  0.11031245  1  0  -0.007761  0  3.553142  0  0  0.065666  0  3.777785  0  0  0.053423  0  3.800784  0  0  -0.114585  0.065878  0  3.759318  0
N  N66  1  0.71915768  0.69058208  0.88968687  1  0  -0.00774  0  3.553115  0  0  0.065691  0  3.777794  0  0  0.05345  0  3.800792  0  0  -0.11459  0.0659  0  3.759326  0
N  N67  1  0.10507534  0.19531425  0.04328365  1  0  -0.237515  0  3.110534  0  0  -0.178269  0  3.40215  0  0  -0.193839  0  3.418952  0  0  -0.223331  -0.167512  0  3.389968  0
N  N68  1  0.89493384  0.80468147  0.95671833  1  0  -0.237702  0  3.110496  0  0  -0.178469  0  3.402164  0  0  -0.194041  0  3.418963  0  0  -0.223385  -0.167707  0  3.389974  0
N  N69  1  0.04597321  0.32225347  0.02081439  1  0  -0.210874  0  2.931268  0  0  -0.189746  0  3.216646  0  0  -0.198876  0  3.23212  0  0  -0.214225  -0.183341  0  3.205675  0
N  N70  1  0.95402618  0.67774043  0.97918552  1  0  -0.210763  0  2.931506  0  0  -0.189596  0  3.216872  0  0  -0.198723  0  3.232348  0  0  -0.214215  -0.18319  0  3.205898  0
N  N71  1  0.26480572  0.89498867  0.06238537  1  0  -0.575995  0  2.876806  0  0  -0.514324  0  3.152884  0  0  -0.535653  0  3.157193  0  0  -0.416097  -0.499339  0  3.14927  0
N  N72  1  0.73519396  0.10501093  0.93761291  1  0  -0.576065  0  2.877127  0  0  -0.514394  0  3.153185  0  0  -0.535715  0  3.157489  0  0  -0.416151  -0.499407  0  3.149569  0
N  N73  1  0.95715006  0.20211890  0.36855158  1  0  -0.586192  0  2.932783  0  0  -0.521273  0  3.222029  0  0  -0.544044  0  3.225295  0  0  -0.429518  -0.505376  0  3.219118  0
N  N74  1  0.04283127  0.79789237  0.63145144  1  0  -0.586214  0  2.932693  0  0  -0.521275  0  3.221901  0  0  -0.544051  0  3.225172  0  0  -0.429511  -0.505375  0  3.218989  0
N  N75  1  0.19572535  0.56696765  0.44392536  1  0  -0.544498  0  2.899091  0  0  -0.481071  0  3.178836  0  0  -0.50404  0  3.185947  0  0  -0.398707  -0.465344  0  3.173584  0
N  N76  1  0.80426783  0.43302825  0.55607571  1  0  -0.544556  0  2.898906  0  0  -0.481149  0  3.17869  0  0  -0.504105  0  3.185772  0  0  -0.398783  -0.46542  0  3.173434  0
