# generated using pymatgen
data_ZnH20C15N(ClO4)2
_symmetry_space_group_name_H-M   'P 1'
_cell_length_a   8.98473690
_cell_length_b   9.66564247
_cell_length_c   10.91507353
_cell_angle_alpha   91.13840905
_cell_angle_beta   95.83091939
_cell_angle_gamma   95.51778071
_symmetry_Int_Tables_number   1
_chemical_formula_structural   ZnH20C15N(ClO4)2
_chemical_formula_sum   'Zn2 H40 C30 N2 Cl4 O16'
_cell_volume   938.20615566
_cell_formula_units_Z   2
loop_
 _symmetry_equiv_pos_site_id
 _symmetry_equiv_pos_as_xyz
  1  'x, y, z'
loop_
 _atom_site_type_symbol
 _atom_site_label
 _atom_site_symmetry_multiplicity
 _atom_site_fract_x
 _atom_site_fract_y
 _atom_site_fract_z
 _atom_site_occupancy
 _atom_site_pbe_bader_charge
 _atom_site_pbe_bader_spin_density
 _atom_site_pbe_cm5_charge
 _atom_site_pbe_ddec_charge
 _atom_site_pbe_ddec_spin_density
 _atom_site_pbe_ddec_sum_bond_order
 _atom_site_pbe_magmom
Zn  Zn0  1  0.66669974  0.48714146  0.51812361  1  1.315034  0  0.695392  0.906812  0  2.212993  0
Zn  Zn1  1  0.36718653  0.55088479  0.48946888  1  1.275543  0  0.71858  0.874994  0  2.227459  0
H  H2  1  0.62479839  0.92163525  0.08176891  1  0.037911  0  0.102721  0.072225  0  0.982388  0
H  H3  1  0.77477541  0.81563889  0.07909190  1  0.0717  0  0.096298  0.05925  0  1.036479  0
H  H4  1  0.83620652  0.97439230  0.25693570  1  0.042582  0  0.091572  0.132531  0  1.01586  0
H  H5  1  0.65723120  0.93306314  0.30927384  1  0.060704  0  0.080439  0.112784  0  1.055372  0
H  H6  1  0.78912600  0.80637536  0.31336482  1  0.064814  0  0.07866  0.119282  0  1.052297  0
H  H7  1  0.11643939  0.57839745  0.22107419  1  0.077434  0  0.079515  0.039533  0  1.076756  0
H  H8  1  0.06054433  0.68867338  0.10095690  1  0.030221  0  0.082965  0.045004  0  1.040872  0
H  H9  1  0.22576650  0.88921550  0.21375150  1  0.045115  0  0.090425  0.126594  0  1.042747  0
H  H10  1  0.08370644  0.81783998  0.30183831  1  0.045722  0  0.087558  0.123511  0  1.009416  0
H  H11  1  0.27366830  0.77858377  0.33517211  1  0.035452  0  0.081044  0.12276  0  1.048682  0
H  H12  1  0.57071564  0.88371254  0.80112885  1  0.055333  0  0.101693  0.062647  0  1.000827  0
H  H13  1  0.58487314  0.72481841  0.72442210  1  0.036768  0  0.093251  0.050277  0  1.070638  0
H  H14  1  0.85781543  0.87832754  0.87739065  1  0.041429  0  0.087581  0.12298  0  1.021947  0
H  H15  1  0.86017022  0.75449823  0.75535385  1  0.053611  0  0.078102  0.116574  0  1.046233  0
H  H16  1  0.80871361  0.92420213  0.72298292  1  0.042463  0  0.085436  0.121959  0  1.034103  0
H  H17  1  0.11313545  0.70572967  0.93164064  1  0.070293  0  0.089899  0.047513  0  1.067886  0
H  H18  1  0.15559769  0.77137900  0.78794929  1  0.026038  0  0.091612  0.056698  0  0.975205  0
H  H19  1  0.33109896  0.96522585  0.89516855  1  0.034397  0  0.09084  0.128033  0  1.027228  0
H  H20  1  0.15027487  0.96599685  0.94549322  1  0.005126  0  0.091507  0.125719  0  1.002018  0
H  H21  1  0.29726954  0.89590410  0.03967209  1  0.038241  0  0.093865  0.136208  0  1.018794  0
H  H22  1  0.65802697  0.13029167  0.19537323  1  0.027339  0  0.094316  0.045185  0  1.050135  0
H  H23  1  0.67556241  0.28556903  0.28855202  1  0.045836  0  0.090762  0.054697  0  1.062165  0
H  H24  1  0.92992816  0.34995380  0.22076173  1  0.042629  0  0.075454  0.112575  0  1.064257  0
H  H25  1  0.91458719  0.19380360  0.30343800  1  0.02934  0  0.091138  0.128674  0  1.001037  0
H  H26  1  0.91875706  0.18688221  0.14059736  1  0.027321  0  0.087054  0.123759  0  1.02166  0
H  H27  1  0.45943872  0.24818686  0.29564721  1  0.085444  0  0.094805  0.055524  0  1.079708  0
H  H28  1  0.44509786  0.07651007  0.23529201  1  0.016837  0  0.097316  0.059284  0  0.989368  0
H  H29  1  0.23381912  0.09077381  0.34291194  1  0.038123  0  0.092619  0.132129  0  0.993704  0
H  H30  1  0.18971161  0.25214147  0.28111640  1  0.059005  0  0.077418  0.116725  0  1.055093  0
H  H31  1  0.15929689  0.09844228  0.18579968  1  0.009669  0  0.088664  0.124202  0  1.013398  0
H  H32  1  0.62406579  0.09500238  0.80556175  1  0.005995  0  0.087413  0.034639  0  1.041253  0
H  H33  1  0.63133868  0.11673961  0.96838491  1  0.03656  0  0.100712  0.061033  0  1.017105  0
H  H34  1  0.88037415  0.27391713  0.95756424  1  0.046083  0  0.082751  0.125614  0  1.056037  0
H  H35  1  0.89103701  0.09655147  0.91443834  1  0.032889  0  0.083761  0.111843  0  1.035864  0
H  H36  1  0.87139870  0.22341082  0.79985409  1  0.051655  0  0.085798  0.129864  0  1.000157  0
H  H37  1  0.40263069  0.09115712  0.76184500  1  0.012875  0  0.088483  0.036449  0  1.029204  0
H  H38  1  0.40669799  0.25512141  0.69480967  1  0.078515  0  0.093879  0.063223  0  1.054654  0
H  H39  1  0.11810945  0.09213361  0.76464629  1  0.026673  0  0.088793  0.125941  0  1.016427  0
H  H40  1  0.12906799  0.24530614  0.67720066  1  0.045888  0  0.077047  0.116544  0  1.040594  0
H  H41  1  0.18499513  0.08812428  0.61656967  1  -0.002624  0  0.089537  0.124965  0  0.992782  0
C  C42  1  0.59988286  0.78654117  0.51256509  1  1.616898  0  0.241875  0.669334  0  4.178058  0
C  C43  1  0.47172242  0.48945943  0.27019421  1  1.56195  0  0.235962  0.636558  0  4.002835  0
C  C44  1  0.47972539  0.49895953  0.73064355  1  1.568481  0  0.230792  0.626969  0  4.03144  0
C  C45  1  0.63072960  0.21493272  0.52210860  1  1.64307  0  0.218821  0.637156  0  4.221971  0
C  C46  1  0.63271695  0.93790521  0.52346087  1  -0.382498  0  -0.01441  -0.116715  0  3.882358  0
C  C47  1  0.60525109  0.59631698  0.09287276  1  0.704819  0  0.128308  0.253804  0  3.639083  0
C  C48  1  0.31595008  0.52742059  0.06288598  1  0.670154  0  0.116689  0.22603  0  3.692659  0
C  C49  1  0.61547692  0.59415312  0.94210557  1  0.69718  0  0.124339  0.233566  0  3.662529  0
C  C50  1  0.32505100  0.55024387  0.91378567  1  0.702342  0  0.120726  0.24133  0  3.680291  0
C  C51  1  0.64286849  0.06484316  0.52786553  1  0.222587  0  -0.005988  -0.091241  0  3.81765  0
C  C52  1  0.50507211  0.33184976  0.07195544  1  1.084445  0  0.170052  0.30008  0  3.766633  0
C  C53  1  0.48401941  0.33506950  0.91761556  1  1.065603  0  0.172643  0.304027  0  3.7857  0
C  C54  1  0.47369133  0.48385067  0.12654174  1  0.024477  0  -0.013244  -0.229355  0  3.549603  0
C  C55  1  0.47396037  0.49361632  0.87376040  1  0.009859  0  -0.009408  -0.213389  0  3.534171  0
C  C56  1  0.68420498  0.84244982  0.13199960  1  0.391457  0  -0.080156  0.087395  0  3.889842  0
C  C57  1  0.74465045  0.89135806  0.26088055  1  -0.122008  0  -0.266265  -0.422775  0  3.988082  0
C  C58  1  0.15198120  0.67213866  0.17261995  1  0.412723  0  -0.087389  0.075805  0  3.935558  0
C  C59  1  0.18632021  0.79619034  0.26103731  1  -0.08019  0  -0.256266  -0.400715  0  3.949568  0
C  C60  1  0.63618025  0.79348110  0.80073936  1  0.43547  0  -0.074706  0.100502  0  3.868888  0
C  C61  1  0.80088138  0.83935691  0.78803924  1  -0.101533  0  -0.26261  -0.42146  0  3.965018  0
C  C62  1  0.20059824  0.76379774  0.88509370  1  0.403928  0  -0.07692  0.08703  0  3.900472  0
C  C63  1  0.24783579  0.90569577  0.94487738  1  -0.007308  0  -0.248531  -0.386004  0  3.920251  0
C  C64  1  0.70890739  0.23825996  0.20517457  1  0.422721  0  -0.083626  0.085597  0  3.897023  0
C  C65  1  0.87804367  0.24258727  0.21694307  1  -0.038041  0  -0.25604  -0.402001  0  3.967334  0
C  C66  1  0.39453864  0.17576144  0.22802342  1  0.384395  0  -0.078124  0.086372  0  3.882318  0
C  C67  1  0.23404663  0.15397785  0.26030487  1  -0.04805  0  -0.258856  -0.40973  0  3.968403  0
C  C68  1  0.66817019  0.16451951  0.88487888  1  0.46762  0  -0.070718  0.110282  0  3.865999  0
C  C69  1  0.83788967  0.19110752  0.88974354  1  -0.079949  0  -0.256751  -0.405284  0  3.947166  0
C  C70  1  0.34543830  0.18706929  0.75547267  1  0.398215  0  -0.080955  0.088425  0  3.897379  0
C  C71  1  0.18427903  0.15187776  0.70104629  1  -0.018507  0  -0.251612  -0.389223  0  3.955514  0
N  N72  1  0.09895411  0.55989723  0.48865048  1  -0.025193  0  0.050869  0.062222  0  2.940027  0
N  N73  1  0.97730895  0.54831575  0.50130961  1  0.05108  0  0.078258  0.100214  0  2.819395  0
Cl  Cl74  1  0.79321149  0.57247054  0.17091952  1  -0.226865  0  -0.023463  -0.138828  0  1.758479  0
Cl  Cl75  1  0.17029004  0.39398983  0.08380164  1  -0.175834  0  0.026067  -0.059863  0  1.855319  0
Cl  Cl76  1  0.79616835  0.54216380  0.90655058  1  -0.190661  0  -0.017858  -0.103744  0  1.743373  0
Cl  Cl77  1  0.15058460  0.46464499  0.82922243  1  -0.223998  0  -0.040567  -0.148624  0  1.677195  0
O  O78  1  0.70572010  0.70794139  0.51969279  1  -1.13386  0  -0.291248  -0.529323  0  2.259376  0
O  O79  1  0.45850805  0.74713688  0.49683757  1  -1.138628  0  -0.304363  -0.53126  0  2.295788  0
O  O80  1  0.59500801  0.48747813  0.33680478  1  -1.172395  0  -0.299463  -0.548615  0  2.518762  0
O  O81  1  0.34665209  0.49636735  0.31691676  1  -1.126783  0  -0.297941  -0.515871  0  2.419167  0
O  O82  1  0.60422353  0.48875177  0.68875449  1  -1.151757  0  -0.295429  -0.531831  0  2.505768  0
O  O83  1  0.35857599  0.51492057  0.66115606  1  -1.132122  0  -0.310375  -0.5384  0  2.46342  0
O  O84  1  0.75218770  0.29987365  0.52841470  1  -1.113792  0  -0.320129  -0.540967  0  2.163583  0
O  O85  1  0.50015612  0.25257930  0.50802377  1  -1.132641  0  -0.289562  -0.516525  0  2.12715  0
O  O86  1  0.57220417  0.72322942  0.13597529  1  -1.020079  0  -0.19525  -0.212405  0  2.538834  0
O  O87  1  0.28764314  0.65302670  0.11704431  1  -1.042227  0  -0.203926  -0.235936  0  2.60121  0
O  O88  1  0.61258705  0.73229327  0.91664306  1  -1.059215  0  -0.20079  -0.24208  0  2.714663  0
O  O89  1  0.33229828  0.68810822  0.88489910  1  -1.045398  0  -0.196942  -0.22175  0  2.60099  0
O  O90  1  0.65780819  0.31225961  0.09803144  1  -1.050687  0  -0.213973  -0.276649  0  2.606258  0
O  O91  1  0.40689825  0.21997085  0.10242779  1  -1.033929  0  -0.214546  -0.277764  0  2.562552  0
O  O92  1  0.60814300  0.29609266  0.86519680  1  -1.064999  0  -0.207934  -0.262694  0  2.644408  0
O  O93  1  0.35241915  0.24894286  0.87830182  1  -1.022311  0  -0.215744  -0.27843  0  2.539839  0
