# generated using pymatgen
data_CdH15C20N4O5
_symmetry_space_group_name_H-M   'P 1'
_cell_length_a   8.71217175
_cell_length_b   9.90441037
_cell_length_c   12.18286411
_cell_angle_alpha   87.80354454
_cell_angle_beta   81.75260646
_cell_angle_gamma   66.90008809
_symmetry_Int_Tables_number   1
_chemical_formula_structural   CdH15C20N4O5
_chemical_formula_sum   'Cd2 H30 C40 N8 O10'
_cell_volume   956.77300735
_cell_formula_units_Z   2
loop_
 _symmetry_equiv_pos_site_id
 _symmetry_equiv_pos_as_xyz
  1  'x, y, z'
loop_
 _atom_site_type_symbol
 _atom_site_label
 _atom_site_symmetry_multiplicity
 _atom_site_fract_x
 _atom_site_fract_y
 _atom_site_fract_z
 _atom_site_occupancy
 _atom_site_hle17_bader_spin_density
 _atom_site_hle17_ddec_charge
 _atom_site_hle17_ddec_spin_density
 _atom_site_hle17_ddec_sum_bond_order
 _atom_site_hle17_magmom
 _atom_site_hse06_10hf_bader_spin_density
 _atom_site_hse06_10hf_ddec_charge
 _atom_site_hse06_10hf_ddec_spin_density
 _atom_site_hse06_10hf_ddec_sum_bond_order
 _atom_site_hse06_10hf_magmom
 _atom_site_hse06_bader_spin_density
 _atom_site_hse06_ddec_charge
 _atom_site_hse06_ddec_spin_density
 _atom_site_hse06_ddec_sum_bond_order
 _atom_site_hse06_magmom
 _atom_site_pbe_bader_spin_density
 _atom_site_pbe_cm5_charge
 _atom_site_pbe_ddec_charge
 _atom_site_pbe_ddec_spin_density
 _atom_site_pbe_ddec_sum_bond_order
 _atom_site_pbe_magmom
Cd  Cd0  1  0.02552275  0.77768802  0.06306261  1  0  1.131217  0  1.638844  0  0  0.93751  0  2.082332  0  0  0.995873  0  2.029581  0  0  0.784424  0.896161  0  2.118259  0
Cd  Cd1  1  0.97447730  0.22231197  0.93693779  1  0  1.131198  0  1.638874  0  0  0.937483  0  2.082365  0  0  0.995846  0  2.029614  0  0  0.78441  0.896134  0  2.118291  0
H  H2  1  0.60118520  0.23966291  0.89161248  1  0  0.112508  0  0.976104  0  0  0.120283  0  1.040452  0  0  0.123511  0  1.039148  0  0  0.107366  0.117931  0  1.041578  0
H  H3  1  0.39881564  0.76033048  0.10838975  1  0  0.112507  0  0.976119  0  0  0.120273  0  1.040474  0  0  0.123502  0  1.039171  0  0  0.107384  0.117921  0  1.0416  0
H  H4  1  0.98504760  0.61077430  0.65790112  1  0  0.092521  0  0.930784  0  0  0.104196  0  0.992313  0  0  0.106106  0  0.9904  0  0  0.136653  0.102767  0  0.993744  0
H  H5  1  0.01495526  0.38922462  0.34209819  1  0  0.092504  0  0.930795  0  0  0.104163  0  0.992342  0  0  0.106073  0  0.990429  0  0  0.136639  0.102734  0  0.993771  0
H  H6  1  0.77365645  0.98506288  0.87103684  1  0  0.117546  0  0.955843  0  0  0.125336  0  1.023026  0  0  0.127994  0  1.01971  0  0  0.142431  0.123328  0  1.025519  0
H  H7  1  0.22634525  0.01493599  0.12896096  1  0  0.117552  0  0.955883  0  0  0.125335  0  1.023073  0  0  0.127994  0  1.019757  0  0  0.142441  0.123328  0  1.025564  0
H  H8  1  0.61130288  0.30585635  0.68994251  1  0  0.102001  0  0.961977  0  0  0.111231  0  1.027086  0  0  0.113855  0  1.025361  0  0  0.107053  0.109468  0  1.027954  0
H  H9  1  0.38869834  0.69414371  0.31006104  1  0  0.101984  0  0.961959  0  0  0.111258  0  1.027027  0  0  0.113885  0  1.025298  0  0  0.107032  0.109495  0  1.027894  0
H  H10  1  0.33814799  0.22562920  0.99173625  1  0  0.070538  0  0.94812  0  0  0.077425  0  1.015601  0  0  0.079305  0  1.014381  0  0  0.112623  0.076042  0  1.016467  0
H  H11  1  0.66185115  0.77436518  0.00826037  1  0  0.070534  0  0.948074  0  0  0.077418  0  1.015562  0  0  0.079298  0  1.014342  0  0  0.112621  0.076035  0  1.016427  0
H  H12  1  0.10357471  0.32486260  0.71076902  1  0  0.079383  0  0.98358  0  0  0.085152  0  1.056025  0  0  0.087879  0  1.053479  0  0  0.109649  0.083155  0  1.057838  0
H  H13  1  0.89642891  0.67513965  0.28922926  1  0  0.07937  0  0.983613  0  0  0.085142  0  1.05605  0  0  0.087865  0  1.053507  0  0  0.109657  0.083144  0  1.057863  0
H  H14  1  0.22558352  0.38676195  0.54254453  1  0  0.039765  0  0.933905  0  0  0.0526  0  1.004255  0  0  0.053289  0  1.002028  0  0  0.09531  0.052082  0  1.005797  0
H  H15  1  0.77441908  0.61324253  0.45745704  1  0  0.039751  0  0.9339  0  0  0.052592  0  1.004261  0  0  0.053282  0  1.00203  0  0  0.095313  0.052072  0  1.005801  0
H  H16  1  0.36052543  0.47989865  0.55742347  1  0  0.063166  0  0.913841  0  0  0.078876  0  0.97335  0  0  0.078702  0  0.973597  0  0  0.104136  0.078978  0  0.973173  0
H  H17  1  0.63948050  0.52010366  0.44257701  1  0  0.063178  0  0.913856  0  0  0.078876  0  0.973385  0  0  0.078699  0  0.973631  0  0  0.104136  0.078977  0  0.973208  0
H  H18  1  0.71494811  0.09283413  0.35002713  1  0  0.123657  0  0.95388  0  0  0.13052  0  1.020321  0  0  0.134448  0  1.017842  0  0  0.105356  0.127696  0  1.022124  0
H  H19  1  0.28504722  0.90716356  0.64997387  1  0  0.123696  0  0.953873  0  0  0.130525  0  1.020348  0  0  0.134453  0  1.017868  0  0  0.10534  0.127692  0  1.022161  0
H  H20  1  0.26750470  0.49708338  0.38648478  1  0  0.103672  0  0.979755  0  0  0.109435  0  1.052346  0  0  0.11397  0  1.048248  0  0  0.098811  0.106159  0  1.055329  0
H  H21  1  0.73249599  0.50291771  0.61351468  1  0  0.103689  0  0.979753  0  0  0.109445  0  1.05235  0  0  0.11398  0  1.048251  0  0  0.098806  0.106169  0  1.055332  0
H  H22  1  0.53195391  0.33944748  0.06310064  1  0  0.11767  0  0.962681  0  0  0.123127  0  1.033559  0  0  0.127198  0  1.030143  0  0  0.107352  0.120101  0  1.036164  0
H  H23  1  0.46804781  0.66055145  0.93690126  1  0  0.117667  0  0.96266  0  0  0.123104  0  1.033575  0  0  0.127173  0  1.03016  0  0  0.10735  0.120078  0  1.03618  0
H  H24  1  0.65086976  0.00543565  0.68227894  1  0  0.093857  0  0.924809  0  0  0.108351  0  0.986221  0  0  0.109141  0  0.986497  0  0  0.11727  0.107854  0  0.985783  0
H  H25  1  0.34912787  0.99456208  0.31772181  1  0  0.093886  0  0.924783  0  0  0.108369  0  0.986193  0  0  0.109158  0  0.986469  0  0  0.117286  0.107871  0  0.985756  0
H  H26  1  0.71591199  0.84348986  0.60050376  1  0  0.085204  0  0.941398  0  0  0.097842  0  1.006435  0  0  0.09869  0  1.005991  0  0  0.112509  0.097159  0  1.006814  0
H  H27  1  0.28409023  0.15650794  0.39949567  1  0  0.085226  0  0.941411  0  0  0.097844  0  1.006451  0  0  0.09869  0  1.006004  0  0  0.112514  0.097163  0  1.006825  0
H  H28  1  0.87895003  0.12253812  0.68481624  1  0  0.110338  0  0.966138  0  0  0.12034  0  1.029598  0  0  0.123328  0  1.027728  0  0  0.104263  0.118131  0  1.031145  0
H  H29  1  0.12104450  0.87746617  0.31518212  1  0  0.110338  0  0.966146  0  0  0.120353  0  1.029588  0  0  0.123341  0  1.027718  0  0  0.104264  0.118144  0  1.031141  0
H  H30  1  0.91747610  0.80634438  0.43597505  1  0  0.086097  0  0.963113  0  0  0.096776  0  1.027298  0  0  0.099499  0  1.02582  0  0  0.097233  0.094794  0  1.028406  0
H  H31  1  0.08251946  0.19365772  0.56402411  1  0  0.086104  0  0.963129  0  0  0.096778  0  1.027316  0  0  0.099501  0  1.025837  0  0  0.097245  0.094796  0  1.028424  0
C  C32  1  0.49460541  0.25940040  0.84714370  1  0  -0.121639  0  3.717717  0  0  -0.131104  0  3.967556  0  0  -0.139346  0  3.989845  0  0  -0.083527  -0.125766  0  3.952542  0
C  C33  1  0.50539504  0.74059627  0.15285679  1  0  -0.121686  0  3.717851  0  0  -0.131147  0  3.967707  0  0  -0.139389  0  3.989996  0  0  -0.083572  -0.125808  0  3.952694  0
C  C34  1  0.95742793  0.68160079  0.72991607  1  0  0.134248  0  3.679278  0  0  0.077082  0  3.958504  0  0  0.086244  0  3.973445  0  0  0.148496  0.071106  0  3.948473  0
C  C35  1  0.04257441  0.31839923  0.27008325  1  0  0.134201  0  3.679241  0  0  0.07706  0  3.958478  0  0  0.086219  0  3.973418  0  0  0.148508  0.071086  0  3.948449  0
C  C36  1  0.84570524  0.87463973  0.83780511  1  0  0.164889  0  3.634116  0  0  0.098899  0  3.90056  0  0  0.113305  0  3.912716  0  0  0.161781  0.089431  0  3.89225  0
C  C37  1  0.15429647  0.12535916  0.16219351  1  0  0.164807  0  3.634163  0  0  0.098841  0  3.900606  0  0  0.113243  0  3.912765  0  0  0.161784  0.089378  0  3.892296  0
C  C38  1  0.49903310  0.29653683  0.73571448  1  0  -0.044923  0  3.694843  0  0  -0.073694  0  3.941788  0  0  -0.0708  0  3.961599  0  0  -0.06718  -0.075023  0  3.927756  0
C  C39  1  0.50096644  0.70346427  0.26428675  1  0  -0.044891  0  3.69489  0  0  -0.073669  0  3.941838  0  0  -0.070778  0  3.961654  0  0  -0.067151  -0.074999  0  3.927808  0
C  C40  1  0.34801468  0.25052304  0.90370277  1  0  0.149226  0  3.696295  0  0  0.117173  0  3.946536  0  0  0.1253  0  3.964333  0  0  0.05454  0.111994  0  3.934132  0
C  C41  1  0.65198639  0.74947473  0.09629597  1  0  0.149263  0  3.696177  0  0  0.117216  0  3.946412  0  0  0.125343  0  3.964208  0  0  0.054553  0.112038  0  3.934007  0
C  C42  1  0.21788795  0.30756618  0.74636464  1  0  0.081656  0  3.706343  0  0  0.042092  0  3.957945  0  0  0.047796  0  3.977497  0  0  0.044879  0.038603  0  3.944417  0
C  C43  1  0.78211439  0.69243384  0.25363468  1  0  0.081674  0  3.706346  0  0  0.042145  0  3.957961  0  0  0.047851  0  3.977513  0  0  0.044879  0.038658  0  3.94443  0
C  C44  1  0.35682930  0.32316698  0.68401257  1  0  0.002976  0  3.7593  0  0  0.027398  0  3.999307  0  0  0.021471  0  4.023813  0  0  -0.01427  0.031076  0  3.982619  0
C  C45  1  0.64317254  0.67683415  0.31598759  1  0  0.003015  0  3.759215  0  0  0.027364  0  3.999345  0  0  0.021433  0  4.023852  0  0  -0.014235  0.031042  0  3.982657  0
C  C46  1  0.34858822  0.37275529  0.56648548  1  0  0.067429  0  3.676934  0  0  0.00144  0  3.943811  0  0  0.010507  0  3.949383  0  0  -0.058368  -0.004665  0  3.939967  0
C  C47  1  0.65141324  0.62724917  0.43351622  1  0  0.067441  0  3.677019  0  0  0.001449  0  3.94393  0  0  0.010522  0  3.949492  0  0  -0.058387  -0.004651  0  3.940081  0
C  C48  1  0.49011307  0.29187582  0.38278912  1  0  0.243807  0  3.84695  0  0  0.239573  0  4.112355  0  0  0.248222  0  4.128247  0  0  0.0707  0.233487  0  4.101748  0
C  C49  1  0.50988595  0.70812638  0.61721212  1  0  0.243852  0  3.846983  0  0  0.239631  0  4.112352  0  0  0.248273  0  4.128247  0  0  0.07084  0.233544  0  4.101742  0
C  C50  1  0.62317943  0.18718930  0.31403529  1  0  -0.159447  0  3.673166  0  0  -0.194303  0  3.921656  0  0  -0.194066  0  3.936752  0  0  -0.093049  -0.194463  0  3.911633  0
C  C51  1  0.37682012  0.81281181  0.68596675  1  0  -0.159448  0  3.673257  0  0  -0.194289  0  3.921741  0  0  -0.194051  0  3.936839  0  0  -0.093083  -0.194441  0  3.911721  0
C  C52  1  0.37168518  0.41221061  0.33642842  1  0  -0.226612  0  3.769747  0  0  -0.263043  0  4.031722  0  0  -0.265838  0  4.0506  0  0  -0.112413  -0.261298  0  4.019308  0
C  C53  1  0.62831601  0.58778937  0.66357021  1  0  -0.22669  0  3.769662  0  0  -0.263111  0  4.03166  0  0  -0.265908  0  4.050538  0  0  -0.11245  -0.261367  0  4.019245  0
C  C54  1  0.63764204  0.20373328  0.19900211  1  0  -0.041317  0  3.756746  0  0  -0.01278  0  3.98801  0  0  -0.020088  0  4.009986  0  0  -0.019039  -0.008271  0  3.973271  0
C  C55  1  0.36235686  0.79626670  0.80099923  1  0  -0.041455  0  3.756852  0  0  -0.012887  0  3.988093  0  0  -0.020196  0  4.01007  0  0  -0.019058  -0.008381  0  3.97335  0
C  C56  1  0.51889585  0.32409779  0.15225031  1  0  -0.080595  0  3.678814  0  0  -0.121316  0  3.928058  0  0  -0.119259  0  3.945912  0  0  -0.084698  -0.122187  0  3.91606  0
C  C57  1  0.48110421  0.67590220  0.84775009  1  0  -0.080586  0  3.678795  0  0  -0.121298  0  3.928059  0  0  -0.119239  0  3.945911  0  0  -0.084697  -0.122166  0  3.916057  0
C  C58  1  0.38574040  0.42701621  0.22063875  1  0  -0.035473  0  3.786438  0  0  -0.008737  0  4.020549  0  0  -0.016061  0  4.044366  0  0  -0.020638  -0.00426  0  4.004732  0
C  C59  1  0.61425620  0.57298372  0.77936202  1  0  -0.035412  0  3.786263  0  0  -0.008715  0  4.020428  0  0  -0.016036  0  4.044244  0  0  -0.020654  -0.004239  0  4.004609  0
C  C60  1  0.25611027  0.55598836  0.17252720  1  0  0.613918  0  3.954592  0  0  0.565313  0  4.242944  0  0  0.59886  0  4.23917  0  0  0.187835  0.542641  0  4.244642  0
C  C61  1  0.74388850  0.44400937  0.82747178  1  0  0.613937  0  3.954708  0  0  0.565341  0  4.243056  0  0  0.598888  0  4.239281  0  0  0.187838  0.54267  0  4.244752  0
C  C62  1  0.77864112  0.08985752  0.12492541  1  0  0.642089  0  3.92683  0  0  0.589389  0  4.219681  0  0  0.624467  0  4.212869  0  0  0.198604  0.565747  0  4.223341  0
C  C63  1  0.22135895  0.91014249  0.87507663  1  0  0.642142  0  3.926692  0  0  0.589433  0  4.219543  0  0  0.624512  0  4.212729  0  0  0.198655  0.565794  0  4.223199  0
C  C64  1  0.76136983  0.91152505  0.64486323  1  0  -0.030598  0  3.639642  0  0  -0.097856  0  3.890034  0  0  -0.092635  0  3.899427  0  0  -0.041482  -0.101226  0  3.883672  0
C  C65  1  0.23862957  0.08847380  0.35513564  1  0  -0.030724  0  3.639545  0  0  -0.097906  0  3.889936  0  0  -0.092677  0  3.899316  0  0  -0.041485  -0.101273  0  3.883576  0
C  C66  1  0.88215525  0.95960644  0.56877212  1  0  0.05353  0  3.774119  0  0  0.071947  0  4.015853  0  0  0.070511  0  4.041001  0  0  -0.016972  0.072876  0  3.998924  0
C  C67  1  0.11783686  0.04039560  0.43122741  1  0  0.053584  0  3.773966  0  0  0.071911  0  4.015795  0  0  0.070471  0  4.040943  0  0  -0.016982  0.07284  0  3.998868  0
C  C68  1  0.92971186  0.06860010  0.60375438  1  0  -0.090743  0  3.721751  0  0  -0.115699  0  3.974287  0  0  -0.117083  0  3.994377  0  0  -0.087814  -0.114777  0  3.960929  0
C  C69  1  0.07028371  0.93140200  0.39624477  1  0  -0.090713  0  3.721772  0  0  -0.115644  0  3.974312  0  0  -0.117028  0  3.994405  0  0  -0.087798  -0.114725  0  3.960957  0
C  C70  1  0.95356573  0.89122542  0.46488774  1  0  -0.111717  0  3.756359  0  0  -0.128186  0  4.001223  0  0  -0.130974  0  4.022642  0  0  -0.091217  -0.126272  0  3.986781  0
C  C71  1  0.04643318  0.10877456  0.53511360  1  0  -0.111717  0  3.756279  0  0  -0.128151  0  4.001163  0  0  -0.130939  0  4.022585  0  0  -0.091226  -0.126237  0  3.986721  0
N  N72  1  0.95192097  0.76696652  0.89064168  1  0  -0.273051  0  3.184806  0  0  -0.202606  0  3.47902  0  0  -0.221804  0  3.495072  0  0  -0.238583  -0.189523  0  3.467792  0
N  N73  1  0.04808201  0.23303462  0.10935753  1  0  -0.273066  0  3.184848  0  0  -0.202633  0  3.479072  0  0  -0.22183  0  3.495125  0  0  -0.238599  -0.18955  0  3.467844  0
N  N74  1  0.84438761  0.82484523  0.73581705  1  0  -0.089719  0  3.544416  0  0  0.005697  0  3.767069  0  0  -0.011285  0  3.792121  0  0  -0.230861  0.016871  0  3.750068  0
N  N75  1  0.15561359  0.17515477  0.26418240  1  0  -0.089555  0  3.544268  0  0  0.005827  0  3.766913  0  0  -0.011152  0  3.791963  0  0  -0.230856  0.016997  0  3.749916  0
N  N76  1  0.02347626  0.64360778  0.82263307  1  0  -0.19451  0  2.902691  0  0  -0.181586  0  3.180194  0  0  -0.187137  0  3.196647  0  0  -0.219103  -0.177943  0  3.169077  0
N  N77  1  0.97652724  0.35639227  0.17736695  1  0  -0.194476  0  2.902641  0  0  -0.181548  0  3.18014  0  0  -0.187098  0  3.196593  0  0  -0.219092  -0.177904  0  3.169024  0
N  N78  1  0.21277293  0.27260010  0.85400005  1  0  -0.320407  0  3.262393  0  0  -0.246222  0  3.528567  0  0  -0.26568  0  3.547284  0  0  -0.321251  -0.232686  0  3.514984  0
N  N79  1  0.78722712  0.72739987  0.14599953  1  0  -0.320465  0  3.262373  0  0  -0.246282  0  3.528546  0  0  -0.26574  0  3.547261  0  0  -0.321275  -0.232746  0  3.514962  0
O  O80  1  0.88072388  0.98194389  0.17249069  1  0  -0.630639  0  2.039621  0  0  -0.56635  0  2.298141  0  0  -0.596559  0  2.289785  0  0  -0.324258  -0.545429  0  2.30305  0
O  O81  1  0.11927439  0.01805498  0.82751159  1  0  -0.630653  0  2.039641  0  0  -0.56635  0  2.298141  0  0  -0.596558  0  2.289782  0  0  -0.32426  -0.545428  0  2.303045  0
O  O82  1  0.15141370  0.65808986  0.23838235  1  0  -0.651333  0  1.956793  0  0  -0.588917  0  2.191362  0  0  -0.615684  0  2.182036  0  0  -0.333145  -0.570043  0  2.196918  0
O  O83  1  0.84858635  0.34191013  0.76161804  1  0  -0.651355  0  1.956853  0  0  -0.588916  0  2.191393  0  0  -0.615686  0  2.182071  0  0  -0.333141  -0.570044  0  2.196946  0
O  O84  1  0.25629463  0.55894279  0.06760173  1  0  -0.609941  0  1.941528  0  0  -0.544937  0  2.179038  0  0  -0.574142  0  2.170608  0  0  -0.322956  -0.524582  0  2.184024  0
O  O85  1  0.74370541  0.44105717  0.93239703  1  0  -0.609958  0  1.941644  0  0  -0.544954  0  2.179153  0  0  -0.57416  0  2.170723  0  0  -0.322966  -0.524597  0  2.184133  0
O  O86  1  0.48291753  0.26519597  0.49491507  1  0  -0.290955  0  2.288046  0  0  -0.221986  0  2.519733  0  0  -0.239026  0  2.521708  0  0  -0.187973  -0.209941  0  2.517805  0
O  O87  1  0.51708048  0.73480843  0.50508700  1  0  -0.290979  0  2.288095  0  0  -0.22199  0  2.519777  0  0  -0.239023  0  2.521743  0  0  -0.188033  -0.209947  0  2.517848  0
O  O88  1  0.78647541  0.10595778  0.02001993  1  0  -0.679303  0  2.00473  0  0  -0.615699  0  2.260258  0  0  -0.642023  0  2.24663  0  0  -0.340481  -0.59731  0  2.269077  0
O  O89  1  0.21353131  0.89403792  0.97998156  1  0  -0.679256  0  2.004642  0  0  -0.615664  0  2.260179  0  0  -0.64199  0  2.246552  0  0  -0.340491  -0.597276  0  2.268996  0
