# generated using pymatgen
data_Zn4H10C29(N2O13)2
_symmetry_space_group_name_H-M   'P 1'
_cell_length_a   13.22783936
_cell_length_b   13.15900204
_cell_length_c   15.15233989
_cell_angle_alpha   79.52138458
_cell_angle_beta   83.76912394
_cell_angle_gamma   88.00016775
_symmetry_Int_Tables_number   1
_chemical_formula_structural   Zn4H10C29(N2O13)2
_chemical_formula_sum   'Zn4 H10 C29 N4 O26'
_cell_volume   2577.87785667
_cell_formula_units_Z   1
loop_
 _symmetry_equiv_pos_site_id
 _symmetry_equiv_pos_as_xyz
  1  'x, y, z'
loop_
 _atom_site_type_symbol
 _atom_site_label
 _atom_site_symmetry_multiplicity
 _atom_site_fract_x
 _atom_site_fract_y
 _atom_site_fract_z
 _atom_site_occupancy
 _atom_site_pbe_bader_charge
 _atom_site_pbe_bader_spin_density
 _atom_site_pbe_cm5_charge
 _atom_site_pbe_ddec_charge
 _atom_site_pbe_ddec_spin_density
 _atom_site_pbe_ddec_sum_bond_order
 _atom_site_pbe_magmom
Zn  Zn0  1  0.42380613  0.40696011  0.45025159  1  1.312401  0  0.682688  0.970738  0  2.361105  0
Zn  Zn1  1  0.60244998  0.42284219  0.57577294  1  1.321616  0  0.686494  0.98506  0  2.301785  0
Zn  Zn2  1  0.40010192  0.56198043  0.58983520  1  1.327455  0  0.694865  1.001067  0  2.298468  0
Zn  Zn3  1  0.56202102  0.60709866  0.41111582  1  1.331336  0  0.696411  1.00215  0  2.293517  0
H  H4  1  0.45522389  0.70357059  0.98537210  1  0.080579  0  0.112462  0.101821  0  1.02525  0
H  H5  1  0.52519574  0.27937624  0.03039919  1  0.169599  0  0.116238  0.120692  0  1.044928  0
H  H6  1  0.91127393  0.43204846  0.53108236  1  0.167251  0  0.131775  0.152117  0  0.973624  0
H  H7  1  0.62530835  0.08082972  0.56923683  1  0.122427  0  0.125418  0.154799  0  0.967365  0
H  H8  1  0.38721171  0.92276125  0.44787849  1  0.230064  0  0.137081  0.176321  0  0.977305  0
H  H9  1  0.50303002  0.72464619  0.85785088  1  0.06368  0  0.109628  0.046824  0  0.973006  0
H  H10  1  0.35058704  0.15892476  0.55019738  1  0.075453  0  0.111377  0.053577  0  0.961221  0
H  H11  1  0.52762641  0.19786238  0.90919667  1  0.075742  0  0.110433  0.044428  0  0.945576  0
H  H12  1  0.41951147  0.77970548  0.10832373  1  0.048837  0  0.107804  0.040135  0  0.947861  0
H  H13  1  0.55379461  0.34357283  0.25629808  1  0.054871  0  0.105576  0.043893  0  0.979618  0
C  C14  1  0.76600116  0.54116538  0.45832631  1  1.629676  0  0.235942  0.601708  0  4.194336  0
C  C15  1  0.22703384  0.46240911  0.53459661  1  1.689627  0  0.235641  0.601553  0  4.245473  0
C  C16  1  0.54303238  0.22620438  0.53173666  1  1.530688  0  0.230447  0.646979  0  4.161454  0
C  C17  1  0.45530264  0.76903285  0.49229882  1  1.654564  0  0.236849  0.665962  0  4.18108  0
C  C18  1  0.50563605  0.47373893  0.74188690  1  1.626427  0  0.230051  0.613972  0  4.217761  0
C  C19  1  0.48863995  0.51212352  0.27017598  1  1.605535  0  0.229908  0.596855  0  4.225104  0
C  C20  1  0.50689638  0.46523479  0.84251894  1  -0.025964  0  0.025989  -0.0186  0  3.835099  0
C  C21  1  0.48751112  0.51952990  0.16976387  1  -0.034009  0  0.020478  -0.035959  0  3.857107  0
C  C22  1  0.47256993  0.62756374  0.02345567  1  0.022836  0  -0.055198  -0.123965  0  3.920881  0
C  C23  1  0.46488809  0.61647946  0.11644718  1  -0.023768  0  -0.003936  0.01419  0  3.976178  0
C  C24  1  0.50859162  0.43313434  0.12937999  1  0.022426  0  0.002789  -0.032048  0  3.890554  0
C  C25  1  0.50817915  0.44256331  0.03328564  1  -0.002331  0  0.015267  0.066985  0  3.930156  0
C  C26  1  0.49577019  0.54268367  0.97875851  1  -0.016161  0  0.015428  0.062285  0  3.952883  0
C  C27  1  0.50218438  0.55299554  0.88225967  1  0.023451  0  -0.002766  -0.042396  0  3.913432  0
C  C28  1  0.51261014  0.36601559  0.89744584  1  -0.009511  0  -0.002321  0.009612  0  3.968994  0
C  C29  1  0.51767797  0.35598247  0.98957327  1  -0.018112  0  -0.053241  -0.11492  0  3.882601  0
C  C30  1  0.11268337  0.45729180  0.53626801  1  0.237318  0  0.113599  -0.053382  0  3.745814  0
C  C31  1  0.05588104  0.49435413  0.46830493  1  0.282229  0  0.092085  0.054675  0  3.909675  0
C  C32  1  0.87824479  0.55349195  0.43283565  1  0.233001  0  0.088902  -0.038409  0  3.821904  0
C  C33  1  0.94620695  0.49131225  0.47748591  1  0.113034  0  -0.056654  -0.121481  0  3.94241  0
C  C34  1  0.44326175  0.88240147  0.49021701  1  0.050422  0  -0.047289  -0.204709  0  3.76596  0
C  C35  1  0.49345307  0.93866301  0.53662442  1  0.129523  0  0.082816  0.052801  0  3.898348  0
C  C36  1  0.55338863  0.11219157  0.54650274  1  0.050701  0  -0.064642  -0.222619  0  3.796131  0
C  C37  1  0.47927525  0.05037529  0.53205920  1  -0.052002  0  0.007068  0.02678  0  3.948545  0
C  C38  1  0.50843375  0.65650177  0.82365520  1  0.96049  0  0.104539  0.272144  0  3.939434  0
C  C39  1  0.37603043  0.09643239  0.51217155  1  1.001411  0  0.115331  0.296  0  3.911504  0
C  C40  1  0.50976627  0.26908859  0.86067023  1  0.932707  0  0.108344  0.273624  0  3.95075  0
C  C41  1  0.42571211  0.70609118  0.15764879  1  0.965448  0  0.109766  0.272165  0  3.94964  0
C  C42  1  0.53433507  0.33425661  0.18862136  1  0.987609  0  0.107032  0.282753  0  3.935958  0
N  N43  1  0.06154670  0.40789686  0.62446297  1  0.425915  0  0.067567  0.527229  0  4.238234  0
N  N44  1  0.57003483  0.88432219  0.59495696  1  0.434289  0  0.06468  0.516755  0  4.194122  0
N  N45  1  0.11304865  0.53591751  0.37957004  1  0.442914  0  0.065524  0.511132  0  4.214813  0
N  N46  1  0.90825291  0.63966231  0.35890989  1  0.43961  0  0.055379  0.52574  0  4.251912  0
O  O47  1  0.49722952  0.49975622  0.50636954  1  -1.232383  0  -0.571238  -1.041444  0  2.5075  0
O  O48  1  0.70902221  0.61248996  0.42201898  1  -1.150277  0  -0.297316  -0.511018  0  2.330497  0
O  O49  1  0.27724114  0.39614676  0.49604956  1  -1.142484  0  -0.29589  -0.508389  0  2.30755  0
O  O50  1  0.59763548  0.27349613  0.57491536  1  -1.139357  0  -0.304016  -0.523252  0  2.284407  0
O  O51  1  0.41036207  0.71216401  0.56122074  1  -1.148072  0  -0.300845  -0.526102  0  2.306802  0
O  O52  1  0.58966673  0.45639015  0.69756189  1  -1.149665  0  -0.306275  -0.534127  0  2.321765  0
O  O53  1  0.55909148  0.56050964  0.29461666  1  -1.158572  0  -0.30765  -0.540042  0  2.331838  0
O  O54  1  0.41923148  0.49399441  0.71272649  1  -1.156451  0  -0.31373  -0.547945  0  2.337142  0
O  O55  1  0.42205158  0.45424341  0.32000573  1  -1.148998  0  -0.301831  -0.529172  0  2.343367  0
O  O56  1  0.48139796  0.26725384  0.47494409  1  -1.168297  0  -0.308411  -0.554922  0  2.355429  0
O  O57  1  0.50269366  0.74242065  0.42245441  1  -1.147646  0  -0.298482  -0.523408  0  2.306998  0
O  O58  1  0.73993596  0.46082260  0.51583505  1  -1.166518  0  -0.304213  -0.527206  0  2.315644  0
O  O59  1  0.25724897  0.52875907  0.57571769  1  -1.133115  0  -0.285042  -0.496804  0  2.315187  0
O  O60  1  0.52193292  0.66951085  0.74119581  1  -1.055856  0  -0.230849  -0.314339  0  2.200743  0
O  O61  1  0.04661404  0.46236528  0.68275066  1  -0.379183  0  -0.094651  -0.26964  0  1.835274  0
O  O62  1  0.04060697  0.31576026  0.63182744  1  -0.40771  0  -0.106125  -0.289541  0  1.82688  0
O  O63  1  0.32045197  0.06623125  0.46341895  1  -1.066484  0  -0.243386  -0.328864  0  2.118501  0
O  O64  1  0.58100328  0.91669062  0.66505909  1  -0.45074  0  -0.132004  -0.335169  0  1.893199  0
O  O65  1  0.61665593  0.81006485  0.56939625  1  -0.430717  0  -0.117472  -0.309553  0  1.920586  0
O  O66  1  0.48747824  0.26441229  0.78530671  1  -1.057683  0  -0.247622  -0.32863  0  2.1367  0
O  O67  1  0.39890035  0.70168777  0.23792607  1  -1.043116  0  -0.235593  -0.311124  0  2.147501  0
O  O68  1  0.53687813  0.24802885  0.16875191  1  -1.06384  0  -0.249098  -0.331702  0  2.116422  0
O  O69  1  0.07395955  0.52214208  0.31232474  1  -0.417204  0  -0.113274  -0.299333  0  1.897511  0
O  O70  1  0.19556705  0.57695547  0.37960608  1  -0.426945  0  -0.102326  -0.289419  0  1.935086  0
O  O71  1  0.87521219  0.63876324  0.28612544  1  -0.417906  0  -0.108726  -0.289776  0  1.868732  0
O  O72  1  0.96399347  0.70559213  0.37626450  1  -0.432091  0  -0.127558  -0.316106  0  1.85063  0
