# generated using pymatgen
data_CdH6C6Br2N2O
_symmetry_space_group_name_H-M   'P 1'
_cell_length_a   7.49122812
_cell_length_b   7.30086763
_cell_length_c   9.13085844
_cell_angle_alpha   110.35540882
_cell_angle_beta   91.73547539
_cell_angle_gamma   99.03846523
_symmetry_Int_Tables_number   1
_chemical_formula_structural   CdH6C6Br2N2O
_chemical_formula_sum   'Cd2 H12 C12 Br4 N4 O2'
_cell_volume   460.44083923
_cell_formula_units_Z   2
loop_
 _symmetry_equiv_pos_site_id
 _symmetry_equiv_pos_as_xyz
  1  'x, y, z'
loop_
 _atom_site_type_symbol
 _atom_site_label
 _atom_site_symmetry_multiplicity
 _atom_site_fract_x
 _atom_site_fract_y
 _atom_site_fract_z
 _atom_site_occupancy
 _atom_site_hle17_bader_spin_density
 _atom_site_hle17_ddec_charge
 _atom_site_hle17_ddec_spin_density
 _atom_site_hle17_ddec_sum_bond_order
 _atom_site_hle17_magmom
 _atom_site_hse06_10hf_bader_spin_density
 _atom_site_hse06_10hf_ddec_charge
 _atom_site_hse06_10hf_ddec_spin_density
 _atom_site_hse06_10hf_ddec_sum_bond_order
 _atom_site_hse06_10hf_magmom
 _atom_site_hse06_bader_spin_density
 _atom_site_hse06_ddec_charge
 _atom_site_hse06_ddec_spin_density
 _atom_site_hse06_ddec_sum_bond_order
 _atom_site_hse06_magmom
 _atom_site_pbe_bader_spin_density
 _atom_site_pbe_cm5_charge
 _atom_site_pbe_ddec_charge
 _atom_site_pbe_ddec_spin_density
 _atom_site_pbe_ddec_sum_bond_order
 _atom_site_pbe_magmom
Cd  Cd0  1  0.23153036  0.43991215  0.40778350  1  0  0.895373  0  1.961824  0  0  0.731021  0  2.423502  0  0  0.78273  0  2.380971  0  0  0.527283  0.695436  0  2.451582  0
Cd  Cd1  1  0.76844692  0.56011345  0.59224258  1  0  0.895245  0  1.961955  0  0  0.730862  0  2.423667  0  0  0.78257  0  2.381138  0  0  0.527281  0.695277  0  2.451749  0
H  H2  1  0.20685428  0.93666484  0.80622862  1  0  0.098826  0  1.01037  0  0  0.106426  0  1.078485  0  0  0.110317  0  1.076177  0  0  0.090519  0.103638  0  1.080188  0
H  H3  1  0.79315381  0.06333411  0.19377383  1  0  0.098837  0  1.010429  0  0  0.106524  0  1.078441  0  0  0.110414  0  1.076135  0  0  0.090568  0.103735  0  1.080146  0
H  H4  1  0.32738974  0.67118528  0.86273924  1  0  0.098506  0  0.968385  0  0  0.104851  0  1.036431  0  0  0.108301  0  1.033733  0  0  0.09234  0.102235  0  1.038549  0
H  H5  1  0.67258055  0.32879733  0.13726894  1  0  0.098542  0  0.968241  0  0  0.104941  0  1.036255  0  0  0.108387  0  1.033566  0  0  0.092378  0.102326  0  1.038374  0
H  H6  1  0.40595653  0.71391333  0.14580040  1  0  0.109798  0  0.975558  0  0  0.118165  0  1.03745  0  0  0.121635  0  1.035712  0  0  0.092933  0.115706  0  1.038701  0
H  H7  1  0.59404236  0.28608710  0.85420534  1  0  0.109787  0  0.975499  0  0  0.118176  0  1.037357  0  0  0.121647  0  1.035617  0  0  0.09297  0.115719  0  1.038607  0
H  H8  1  0.36510296  0.02761359  0.35661243  1  0  0.081981  0  0.961545  0  0  0.084309  0  1.036831  0  0  0.087503  0  1.033619  0  0  0.099677  0.081934  0  1.039225  0
H  H9  1  0.63491808  0.97239731  0.64338522  1  0  0.08194  0  0.961502  0  0  0.084266  0  1.036797  0  0  0.087455  0  1.033596  0  0  0.099665  0.081895  0  1.03918  0
H  H10  1  0.13018048  0.17369838  0.78781147  1  0  0.339264  0  0.885433  0  0  0.319492  0  0.95265  0  0  0.327224  0  0.946054  0  0  0.30124  0.314047  0  0.957329  0
H  H11  1  0.86982920  0.82631091  0.21219835  1  0  0.339251  0  0.885353  0  0  0.3195  0  0.95254  0  0  0.327231  0  0.945951  0  0  0.301247  0.314054  0  0.957222  0
H  H12  1  0.03309222  0.38609746  0.86632031  1  0  0.354278  0  0.89784  0  0  0.332517  0  0.963747  0  0  0.34187  0  0.955669  0  0  0.302109  0.325975  0  0.969321  0
H  H13  1  0.96692501  0.61390885  0.13368791  1  0  0.354296  0  0.897845  0  0  0.332505  0  0.963788  0  0  0.341857  0  0.955726  0  0  0.302113  0.325963  0  0.96936  0
C  C14  1  0.22195880  0.12558630  0.05262596  1  0  0.08193  0  3.759939  0  0  0.08827  0  3.996197  0  0  0.088517  0  4.018618  0  0  0.106899  0.087869  0  3.981207  0
C  C15  1  0.77802743  0.87441723  0.94737460  1  0  0.081841  0  3.760208  0  0  0.088387  0  3.996278  0  0  0.088635  0  4.01871  0  0  0.106979  0.088048  0  3.981198  0
C  C16  1  0.24393638  0.95647407  0.92793351  1  0  -0.117094  0  3.714914  0  0  -0.137483  0  3.957429  0  0  -0.142783  0  3.979408  0  0  -0.080247  -0.133902  0  3.942731  0
C  C17  1  0.75606621  0.04353231  0.07207298  1  0  -0.116959  0  3.715267  0  0  -0.137494  0  3.957779  0  0  -0.142793  0  3.979758  0  0  -0.08026  -0.133921  0  3.94304  0
C  C18  1  0.31022654  0.80470578  0.95925018  1  0  0.004676  0  3.684806  0  0  -0.011776  0  3.93193  0  0  -0.009712  0  3.949894  0  0  -0.069003  -0.012937  0  3.919767  0
C  C19  1  0.68976656  0.19527261  0.04073156  1  0  0.004631  0  3.685454  0  0  -0.011885  0  3.932668  0  0  -0.009823  0  3.950632  0  0  -0.069106  -0.013049  0  3.920506  0
C  C20  1  0.35407246  0.82773606  0.11437459  1  0  -0.088738  0  3.685079  0  0  -0.1024  0  3.933871  0  0  -0.10692  0  3.952487  0  0  -0.079003  -0.099507  0  3.921293  0
C  C21  1  0.64592949  0.17226729  0.88563540  1  0  -0.088877  0  3.685444  0  0  -0.10254  0  3.934282  0  0  -0.107057  0  3.95289  0  0  -0.079074  -0.099651  0  3.92171  0
C  C22  1  0.33136101  0.00232598  0.23321815  1  0  0.138703  0  3.670968  0  0  0.106324  0  3.927294  0  0  0.11276  0  3.944643  0  0  0.047371  0.102061  0  3.915607  0
C  C23  1  0.66863948  0.99767455  0.76678002  1  0  0.138918  0  3.670799  0  0  0.106488  0  3.9272  0  0  0.112931  0  3.944537  0  0  0.047441  0.102221  0  3.915527  0
C  C24  1  0.14048064  0.29057268  0.03003380  1  0  0.585357  0  3.827107  0  0  0.534547  0  4.109917  0  0  0.564308  0  4.109694  0  0  0.243661  0.514717  0  4.109153  0
C  C25  1  0.85952443  0.70942476  0.96997137  1  0  0.585431  0  3.826691  0  0  0.534461  0  4.1097  0  0  0.564204  0  4.109508  0  0  0.243604  0.514618  0  4.108925  0
Br  Br26  1  0.08685951  0.77108785  0.51772999  1  0  -0.497009  0  1.062083  0  0  -0.430765  0  1.373701  0  0  -0.452256  0  1.350394  0  0  -0.251293  -0.415767  0  1.388921  0
Br  Br27  1  0.91313330  0.22896042  0.48226812  1  0  -0.496913  0  1.062272  0  0  -0.430699  0  1.373949  0  0  -0.452188  0  1.350643  0  0  -0.251245  -0.415724  0  1.389209  0
Br  Br28  1  0.42636258  0.36495075  0.63370433  1  0  -0.526709  0  1.088174  0  0  -0.463656  0  1.400727  0  0  -0.484846  0  1.37746  0  0  -0.250167  -0.448683  0  1.416054  0
Br  Br29  1  0.57363327  0.63496288  0.36621000  1  0  -0.52678  0  1.088031  0  0  -0.463748  0  1.400568  0  0  -0.484931  0  1.377286  0  0  -0.250161  -0.448772  0  1.415889  0
N  N30  1  0.26641673  0.14742245  0.20277835  1  0  -0.326558  0  3.291629  0  0  -0.254948  0  3.543638  0  0  -0.274015  0  3.566524  0  0  -0.323917  -0.241993  0  3.528029  0
N  N31  1  0.73358045  0.85258392  0.79723008  1  0  -0.326589  0  3.292092  0  0  -0.254964  0  3.544012  0  0  -0.274033  0  3.566905  0  0  -0.323923  -0.242026  0  3.528381  0
N  N32  1  0.10073040  0.28186743  0.88427195  1  0  -0.650945  0  3.125579  0  0  -0.611421  0  3.365545  0  0  -0.634491  0  3.361091  0  0  -0.553738  -0.595627  0  3.36824  0
N  N33  1  0.89929270  0.71814183  0.11573628  1  0  -0.650931  0  3.125486  0  0  -0.611353  0  3.36558  0  0  -0.634391  0  3.361061  0  0  -0.553714  -0.595573  0  3.368296  0
O  O34  1  0.10732874  0.43013077  0.14812634  1  0  -0.581654  0  2.041065  0  0  -0.513457  0  2.276061  0  0  -0.540145  0  2.27024  0  0  -0.296731  -0.495172  0  2.279413  0
O  O35  1  0.89267478  0.56986520  0.85187726  1  0  -0.581654  0  2.040946  0  0  -0.513445  0  2.276058  0  0  -0.540113  0  2.270232  0  0  -0.296695  -0.495168  0  2.279422  0
