# generated using pymatgen
data_AlH9C24N3(ClO2)3
_symmetry_space_group_name_H-M   'P 1'
_cell_length_a   3.95076839
_cell_length_b   15.88989202
_cell_length_c   15.71076455
_cell_angle_alpha   60.09770317
_cell_angle_beta   83.34051725
_cell_angle_gamma   82.77635156
_symmetry_Int_Tables_number   1
_chemical_formula_structural   AlH9C24N3(ClO2)3
_chemical_formula_sum   'Al1 H9 C24 N3 Cl3 O6'
_cell_volume   846.56681545
_cell_formula_units_Z   1
loop_
 _symmetry_equiv_pos_site_id
 _symmetry_equiv_pos_as_xyz
  1  'x, y, z'
loop_
 _atom_site_type_symbol
 _atom_site_label
 _atom_site_symmetry_multiplicity
 _atom_site_fract_x
 _atom_site_fract_y
 _atom_site_fract_z
 _atom_site_occupancy
 _atom_site_pbe_bader_charge
 _atom_site_pbe_bader_spin_density
 _atom_site_pbe_cm5_charge
 _atom_site_pbe_ddec_charge
 _atom_site_pbe_ddec_spin_density
 _atom_site_pbe_ddec_sum_bond_order
 _atom_site_pbe_magmom
Al  Al0  1  0.01750171  0.50172019  0.49683085  1  2.504161  0  0.422516  1.597323  0  2.574101  0
H  H1  1  0.48260045  0.95756514  0.13214992  1  0.146362  0  0.109065  0.123229  0  1.007987  0
H  H2  1  0.59319942  0.40534563  0.95653378  1  0.122341  0  0.108833  0.123181  0  1.00952  0
H  H3  1  0.63396397  0.12917047  0.41208794  1  0.076784  0  0.109364  0.123658  0  1.006364  0
H  H4  1  0.54755693  0.49057026  0.23943552  1  0.086618  0  0.11366  0.120887  0  0.973583  0
H  H5  1  0.55883131  0.40314372  0.14340928  1  0.118154  0  0.108534  0.111441  0  1.00562  0
H  H6  1  0.39250358  0.24767472  0.76439353  1  0.088035  0  0.112757  0.119684  0  0.981083  0
H  H7  1  0.43129701  0.14759107  0.94729277  1  0.131087  0  0.108829  0.112716  0  1.003036  0
H  H8  1  0.50283570  0.76455759  0.49644957  1  0.042163  0  0.113023  0.119731  0  0.973439  0
H  H9  1  0.53837638  0.94533873  0.40995631  1  0.082335  0  0.108244  0.110889  0  1.005245  0
C  C10  1  0.48360042  0.65127414  0.41653376  1  1.633101  0  0.27866  0.668319  0  4.066147  0
C  C11  1  0.58369087  0.41792498  0.42941120  1  1.58521  0  0.278987  0.667544  0  4.055439  0
C  C12  1  0.48578992  0.43394796  0.64800751  1  1.563986  0  0.277926  0.666906  0  4.057369  0
C  C13  1  0.48104554  0.75978444  0.36284691  1  0.005507  0  -0.003184  -0.07455  0  3.92189  0
C  C14  1  0.48434652  0.38123528  0.75739399  1  0.029565  0  -0.00624  -0.087166  0  3.914199  0
C  C15  1  0.60505868  0.35959450  0.37812529  1  0.092367  0  -0.004077  -0.077996  0  3.914133  0
C  C16  1  0.47470075  0.81464665  0.26003813  1  0.086321  0  0.020863  0.132844  0  4.029479  0
C  C17  1  0.49039677  0.91507990  0.21178551  1  -0.059659  0  -0.084178  -0.166666  0  3.946133  0
C  C18  1  0.54212867  0.42555099  0.81232371  1  0.060918  0  0.023536  0.14097  0  4.012206  0
C  C19  1  0.55435168  0.37060998  0.91412305  1  -0.043224  0  -0.083707  -0.168983  0  3.942772  0
C  C20  1  0.63338188  0.25733977  0.42657087  1  0.036369  0  0.023208  0.138437  0  4.01505  0
C  C21  1  0.62487641  0.20832226  0.37401048  1  -0.004681  0  -0.083653  -0.166237  0  3.938473  0
C  C22  1  0.57531854  0.41124690  0.27592537  1  -0.051889  0  -0.075838  -0.077192  0  3.96587  0
C  C23  1  0.57904684  0.36297397  0.22273013  1  -0.08109  0  -0.080192  -0.104462  0  3.97323  0
C  C24  1  0.43863873  0.28108363  0.80762978  1  0.007441  0  -0.073599  -0.07248  0  3.959189  0
C  C25  1  0.45991583  0.22552411  0.90884701  1  -0.030817  0  -0.080481  -0.107026  0  3.967855  0
C  C26  1  0.49970212  0.80764731  0.41653716  1  0.097368  0  -0.076117  -0.080245  0  3.963858  0
C  C27  1  0.51992758  0.90783566  0.36878285  1  -0.044152  0  -0.079191  -0.102362  0  3.967851  0
C  C28  1  0.51592889  0.96222158  0.26587662  1  -0.013264  0  -0.005302  0.017871  0  3.974722  0
C  C29  1  0.53413887  0.06892270  0.21372864  1  1.079515  0  0.258598  0.385237  0  4.010357  0
C  C30  1  0.51753828  0.27036566  0.96292276  1  0.054086  0  -0.002174  0.025896  0  3.969597  0
C  C31  1  0.53567026  0.21367336  0.07105192  1  1.057654  0  0.257745  0.38213  0  4.017308  0
C  C32  1  0.59932349  0.26073374  0.27187076  1  0.110438  0  -0.003098  0.02095  0  3.971358  0
C  C33  1  0.58006045  0.20882895  0.21654891  1  1.087195  0  0.256873  0.381967  0  4.013503  0
N  N34  1  0.51374564  0.11703437  0.11537677  1  -1.170773  0  -0.30805  -0.409202  0  3.210076  0
N  N35  1  0.57041053  0.26289513  0.11822384  1  -1.20831  0  -0.307276  -0.407637  0  3.214906  0
N  N36  1  0.56739074  0.11154633  0.26755565  1  -1.180942  0  -0.307554  -0.408277  0  3.205143  0
Cl  Cl37  1  0.43390250  0.75861866  0.19188118  1  -0.202174  0  -0.009744  -0.076416  0  1.493719  0
Cl  Cl38  1  0.65844695  0.18937443  0.55273271  1  -0.189043  0  -0.011669  -0.079489  0  1.494881  0
Cl  Cl39  1  0.58434284  0.54902099  0.75839251  1  -0.197866  0  -0.00972  -0.076127  0  1.514449  0
O  O40  1  0.27368039  0.41149329  0.60878607  1  -1.246927  0  -0.231567  -0.586522  0  2.359188  0
O  O41  1  0.23270254  0.61318420  0.47730216  1  -1.251611  0  -0.228548  -0.575364  0  2.344223  0
O  O42  1  0.33417863  0.48318564  0.40708268  1  -1.25685  0  -0.23485  -0.598788  0  2.388292  0
O  O43  1  0.70670029  0.49593036  0.60037108  1  -1.260294  0  -0.236936  -0.606107  0  2.439129  0
O  O44  1  0.80895670  0.40220820  0.48816203  1  -1.242449  0  -0.229776  -0.584618  0  2.378425  0
O  O45  1  0.74461159  0.60496385  0.39939930  1  -1.249066  0  -0.234498  -0.597896  0  2.396784  0
