# generated using pymatgen
data_CuH6C6(N2O)3
_symmetry_space_group_name_H-M   'P 1'
_cell_length_a   6.82263974
_cell_length_b   9.35710342
_cell_length_c   14.41208251
_cell_angle_alpha   94.17151580
_cell_angle_beta   90.00048146
_cell_angle_gamma   89.99685879
_symmetry_Int_Tables_number   1
_chemical_formula_structural   CuH6C6(N2O)3
_chemical_formula_sum   'Cu4 H24 C24 N24 O12'
_cell_volume   917.63196420
_cell_formula_units_Z   4
loop_
 _symmetry_equiv_pos_site_id
 _symmetry_equiv_pos_as_xyz
  1  'x, y, z'
loop_
 _atom_site_type_symbol
 _atom_site_label
 _atom_site_symmetry_multiplicity
 _atom_site_fract_x
 _atom_site_fract_y
 _atom_site_fract_z
 _atom_site_occupancy
 _atom_site_hle17_ddec_charge
 _atom_site_hle17_ddec_spin_density
 _atom_site_hle17_ddec_sum_bond_order
 _atom_site_hle17_magmom
 _atom_site_hse06_10hf_ddec_charge
 _atom_site_hse06_10hf_ddec_spin_density
 _atom_site_hse06_10hf_ddec_sum_bond_order
 _atom_site_hse06_10hf_magmom
 _atom_site_hse06_ddec_charge
 _atom_site_hse06_ddec_spin_density
 _atom_site_hse06_ddec_sum_bond_order
 _atom_site_hse06_magmom
 _atom_site_pbe_cm5_charge
 _atom_site_pbe_ddec_charge
 _atom_site_pbe_ddec_spin_density
 _atom_site_pbe_ddec_sum_bond_order
 _atom_site_pbe_magmom
Cu  Cu0  1  0.48688828  0.52927169  0.64008988  1  0.749094  -0.697055  1.946593  -0.526  0.711658  -0.786557  2.340148  -0.645  0.797609  -0.85027  2.283185  -0.731  0.773033  0.658464  -0.739736  2.380256  -0.587
Cu  Cu1  1  0.98689714  0.97072859  0.85990836  1  0.74915  -0.697052  1.946425  -0.526  0.711579  -0.786544  2.340142  -0.645  0.79758  -0.850253  2.283085  -0.731  0.772966  0.658402  -0.739774  2.380204  -0.587
Cu  Cu2  1  0.51311537  0.47073065  0.35991162  1  0.749018  -0.697039  1.946622  -0.526  0.711646  -0.78655  2.339914  -0.645  0.79754  -0.850274  2.28309  -0.731  0.772967  0.658508  -0.739727  2.379971  -0.587
Cu  Cu3  1  0.01310944  0.02927268  0.14009032  1  0.749262  -0.697058  1.946293  -0.526  0.711591  -0.786548  2.340132  -0.645  0.797634  -0.850262  2.283003  -0.731  0.772991  0.658404  -0.739772  2.380194  -0.587
H  H4  1  0.24488184  0.72950210  0.78074287  1  0.073088  -0.000202  0.956067  -0.001  0.070011  -0.000301  1.036231  -0.001  0.072803  -0.000191  1.031633  -0.001  0.128531  0.067859  -0.000305  1.039524  -0.001
H  H5  1  0.74486951  0.77049174  0.71924996  1  0.07299  -0.000201  0.956067  -0.001  0.069934  -0.000301  1.036174  -0.001  0.072727  -0.000191  1.031576  -0.001  0.128522  0.067785  -0.000305  1.039471  -0.001
H  H6  1  0.75512181  0.27050025  0.21925794  1  0.073079  -0.000199  0.956036  -0.001  0.069993  -0.000301  1.036234  -0.001  0.072784  -0.000191  1.031638  -0.001  0.128516  0.067845  -0.000304  1.03952  -0.001
H  H7  1  0.25512680  0.22951274  0.28074610  1  0.073032  -0.0002  0.956096  -0.001  0.069969  -0.000301  1.036202  -0.001  0.072759  -0.000192  1.031605  -0.001  0.128567  0.067824  -0.000305  1.039489  -0.001
H  H8  1  0.02979996  0.10528998  0.68259486  1  0.094325  -0.00127  0.960224  -0.003  0.098741  -0.000878  1.026689  -0.002  0.101242  -0.000538  1.023218  -0.001  0.125012  0.096869  -0.001248  1.029202  -0.002
H  H9  1  0.52979912  0.39472100  0.81740507  1  0.094223  -0.001269  0.960385  -0.003  0.098669  -0.000879  1.0268  -0.002  0.101165  -0.000538  1.023343  -0.001  0.125005  0.09681  -0.001248  1.029291  -0.002
H  H10  1  0.97019782  0.89471023  0.31741002  1  0.094373  -0.00127  0.960118  -0.003  0.098729  -0.000879  1.02663  -0.002  0.101228  -0.000538  1.023164  -0.001  0.125016  0.096859  -0.001249  1.029139  -0.002
H  H11  1  0.47019867  0.60528027  0.18259084  1  0.094306  -0.001269  0.960253  -0.003  0.098676  -0.000879  1.026763  -0.002  0.101174  -0.000538  1.023294  -0.001  0.124988  0.096814  -0.001249  1.029262  -0.002
H  H12  1  0.20336701  0.04792797  0.52940392  1  0.1223  4.7e-05  0.939744  0.0  0.13121  -0.000334  0.994902  0.0  0.134118  -0.000265  0.995946  0.0  0.115965  0.129067  -0.000314  0.994527  0.0
H  H13  1  0.70337044  0.45207502  0.97059354  1  0.122294  4.8e-05  0.939581  0.0  0.131206  -0.000334  0.994779  0.0  0.134114  -0.000265  0.995824  0.0  0.115967  0.129057  -0.000313  0.994402  0.0
H  H14  1  0.79662198  0.95207331  0.47059753  1  0.122268  4.8e-05  0.939712  0.0  0.131174  -0.000334  0.994875  0.0  0.134083  -0.000264  0.995919  0.0  0.115939  0.129031  -0.000314  0.994501  0.0
H  H15  1  0.29663467  0.54792303  0.02940152  1  0.122246  4.7e-05  0.939752  0.0  0.131175  -0.000334  0.994908  0.0  0.134083  -0.000265  0.995953  0.0  0.115936  0.129028  -0.000313  0.994531  0.0
H  H16  1  0.39841794  0.81630693  0.51169058  1  0.097513  -0.000831  0.949758  -0.001  0.104123  -0.000223  1.011576  0.0  0.10666  -7.4e-05  1.007972  0.0  0.118898  0.102489  -0.000472  1.013978  -0.001
H  H17  1  0.89841837  0.68367543  0.98830163  1  0.097586  -0.00083  0.949801  -0.001  0.104166  -0.000223  1.011619  0.0  0.106707  -7.4e-05  1.008012  0.0  0.118854  0.102523  -0.000471  1.014025  -0.001
H  H18  1  0.60156372  0.18369005  0.48830721  1  0.097573  -0.000831  0.949836  -0.001  0.104162  -0.000223  1.01169  0.0  0.106702  -7.4e-05  1.008081  0.0  0.118904  0.102529  -0.000471  1.014093  -0.001
H  H19  1  0.10158527  0.31632154  0.01169130  1  0.097491  -0.00083  0.949799  -0.001  0.104099  -0.000223  1.01161  0.0  0.106637  -7.4e-05  1.008006  0.0  0.118895  0.102461  -0.000471  1.014013  -0.001
H  H20  1  0.55346095  0.22123939  0.68102510  1  0.403819  9.5e-05  0.904243  0.0  0.377326  4.4e-05  0.962813  0.0  0.389357  4.3e-05  0.945282  0.0  0.277755  0.369075  1.4e-05  0.974775  0.0
H  H21  1  0.05345706  0.27876422  0.81897528  1  0.403775  9.5e-05  0.904306  0.0  0.377293  4.5e-05  0.962861  0.0  0.389324  4.3e-05  0.945329  0.0  0.27776  0.36904  1.5e-05  0.974829  0.0
H  H22  1  0.44653684  0.77876082  0.31897978  1  0.403907  9.5e-05  0.904143  0.0  0.377382  4.4e-05  0.96276  0.0  0.389412  4.3e-05  0.945231  0.0  0.277771  0.36913  1.4e-05  0.974725  0.0
H  H23  1  0.94654219  0.72123491  0.18102192  1  0.403891  9.5e-05  0.9042  0.0  0.377364  4.5e-05  0.962812  0.0  0.389395  4.3e-05  0.94528  0.0  0.277776  0.369112  1.5e-05  0.974776  0.0
H  H24  1  0.74793847  0.29165401  0.64979317  1  0.408878  -0.00015  0.89551  0.0  0.377919  -0.00015  0.96261  0.0  0.389044  -6e-05  0.946283  0.0  0.280397  0.37027  -0.00026  0.973783  0.0
H  H25  1  0.24793896  0.20834507  0.85020915  1  0.408764  -0.000149  0.895634  0.0  0.377772  -0.00015  0.962809  0.0  0.388894  -6e-05  0.94648  0.0  0.280341  0.370115  -0.000259  0.973997  0.0
H  H26  1  0.25206078  0.70834728  0.35021037  1  0.408913  -0.00015  0.895486  0.0  0.377939  -0.00015  0.962609  0.0  0.389058  -6e-05  0.946285  0.0  0.280365  0.370285  -0.00026  0.97379  0.0
H  H27  1  0.75206176  0.79165084  0.14979067  1  0.408839  -0.000149  0.895546  0.0  0.377845  -0.00015  0.962707  0.0  0.388967  -6e-05  0.946382  0.0  0.280358  0.37019  -0.000259  0.973892  0.0
C  C28  1  0.85061934  0.61170421  0.42692641  1  0.130957  0.003693  3.796253  -0.001  0.121192  0.001191  4.066219  -0.002  0.12586  0.002774  4.080907  0.0  0.204662  0.117735  -8.3e-05  4.057051  -0.003
C  C29  1  0.35061752  0.88828890  0.07307063  1  0.131048  0.003698  3.795968  -0.001  0.12127  0.001194  4.065938  -0.002  0.125937  0.002778  4.080644  0.0  0.204652  0.117809  -7.6e-05  4.056761  -0.003
C  C30  1  0.14939164  0.38829600  0.57307777  1  0.130585  0.003696  3.796396  -0.001  0.120889  0.001194  4.066205  -0.002  0.125532  0.002775  4.080936  0.0  0.204534  0.117433  -8.1e-05  4.057028  -0.003
C  C31  1  0.64938759  0.11170807  0.92692508  1  0.130961  0.003701  3.79607  -0.001  0.121233  0.001197  4.065953  -0.002  0.125892  0.002775  4.08067  0.0  0.204678  0.117767  -7.7e-05  4.056774  -0.003
C  C32  1  0.87960914  0.59918552  0.32476973  1  0.609792  0.009708  3.915792  0.009  0.560953  0.002625  4.221265  0.003  0.597407  0.002305  4.214723  0.002  0.218502  0.536443  0.002522  4.224778  0.003
C  C33  1  0.37963898  0.90079896  0.17523812  1  0.609907  0.009705  3.916043  0.009  0.561016  0.002623  4.221602  0.003  0.597471  0.002305  4.21507  0.002  0.218581  0.536503  0.002521  4.225109  0.003
C  C34  1  0.12038571  0.40081256  0.67523990  1  0.60981  0.009706  3.916023  0.009  0.561099  0.002623  4.22135  0.003  0.597562  0.002304  4.214811  0.002  0.218552  0.536596  0.00252  4.224858  0.003
C  C35  1  0.62036173  0.09919694  0.82475545  1  0.609518  0.009701  3.916607  0.009  0.560704  0.002621  4.222105  0.003  0.597162  0.002304  4.21557  0.002  0.218284  0.536202  0.00252  4.225605  0.003
C  C36  1  0.23809096  0.80125757  0.72480716  1  0.30465  0.014829  3.673132  0.009  0.255336  0.004104  3.957481  0.002  0.27404  0.005555  3.969425  0.003  0.185011  0.243217  0.003148  3.94922  0.001
C  C37  1  0.73808647  0.69873870  0.77519061  1  0.305025  0.014812  3.673239  0.009  0.255748  0.004102  3.957549  0.002  0.274453  0.005554  3.969496  0.003  0.185193  0.243623  0.003146  3.949289  0.001
C  C38  1  0.76190536  0.19874479  0.27519851  1  0.304637  0.014815  3.673292  0.009  0.255314  0.004102  3.957659  0.002  0.274016  0.005554  3.969604  0.003  0.185051  0.243194  0.003147  3.949391  0.001
C  C39  1  0.26191424  0.30126578  0.22480683  1  0.304875  0.014799  3.673539  0.009  0.255609  0.004103  3.957823  0.002  0.274315  0.005551  3.969765  0.003  0.185087  0.243482  0.003145  3.949567  0.001
C  C40  1  0.11967188  0.00970131  0.66978091  1  0.195819  0.010717  3.610334  0.007  0.163331  0.002133  3.861012  0.001  0.178898  0.003582  3.874035  0.002  0.073223  0.153285  0.001149  3.852393  0.0
C  C41  1  0.61968021  0.49030608  0.83021851  1  0.195862  0.010699  3.610641  0.007  0.163395  0.002132  3.861348  0.001  0.178966  0.003582  3.874367  0.002  0.073233  0.153338  0.001148  3.852732  0.0
C  C42  1  0.88032004  0.99030533  0.33022357  1  0.195804  0.010707  3.610467  0.007  0.163369  0.002132  3.86115  0.001  0.178935  0.003581  3.87418  0.002  0.073257  0.153318  0.001148  3.852529  0.0
C  C43  1  0.38032490  0.50969519  0.16978017  1  0.19587  0.010693  3.610415  0.007  0.163405  0.002133  3.861187  0.001  0.178977  0.00358  3.874203  0.002  0.073304  0.153345  0.001149  3.852579  0.0
C  C44  1  0.21610481  0.97762376  0.58605735  1  -0.156581  -0.011672  3.672153  -0.013  -0.164372  -0.004288  3.916187  -0.005  -0.177059  -0.003665  3.93504  -0.004  -0.071431  -0.156397  -0.005081  3.903744  -0.006
C  C45  1  0.71610723  0.52237658  0.91393566  1  -0.15641  -0.011663  3.672195  -0.013  -0.164265  -0.004287  3.916265  -0.005  -0.176952  -0.003664  3.93512  -0.004  -0.071372  -0.156284  -0.005079  3.90381  -0.006
C  C46  1  0.78388565  0.02237537  0.41394262  1  -0.156522  -0.011666  3.672235  -0.013  -0.164292  -0.004288  3.916238  -0.005  -0.176979  -0.003665  3.935093  -0.004  -0.071412  -0.156316  -0.00508  3.903795  -0.006
C  C47  1  0.28389348  0.47762361  0.08605672  1  -0.156503  -0.011658  3.672192  -0.013  -0.164351  -0.004289  3.916279  -0.005  -0.177039  -0.003663  3.935134  -0.004  -0.071429  -0.156373  -0.00508  3.903826  -0.006
C  C48  1  0.32471113  0.85129671  0.57686631  1  0.202313  0.013286  3.633942  0.009  0.170744  0.004729  3.893606  0.003  0.18489  0.005208  3.905393  0.003  0.077762  0.161366  0.004284  3.885271  0.003
C  C49  1  0.82471450  0.64869610  0.92313025  1  0.202183  0.01328  3.634088  0.009  0.170707  0.004732  3.893639  0.003  0.184852  0.005209  3.90543  0.003  0.077821  0.16133  0.004289  3.885296  0.003
C  C50  1  0.67527200  0.14870565  0.42313797  1  0.20219  0.013285  3.633927  0.009  0.1706  0.004731  3.893594  0.003  0.184746  0.00521  3.905375  0.003  0.077739  0.161222  0.004285  3.885261  0.003
C  C51  1  0.17529062  0.35130302  0.07686625  1  0.202287  0.013264  3.633954  0.009  0.170749  0.004732  3.893602  0.003  0.184893  0.005207  3.905397  0.003  0.077721  0.161373  0.004287  3.885257  0.003
N  N52  1  0.95520441  0.68144958  0.49476436  1  -0.229401  -0.00856  2.92394  -0.011  -0.216043  -0.004539  3.208502  -0.006  -0.222911  -0.002762  3.220488  -0.004  -0.199627  -0.211358  -0.006443  3.200575  -0.008
N  N53  1  0.45522421  0.81853938  0.00523705  1  -0.229577  -0.008552  2.923755  -0.011  -0.216203  -0.004533  3.208337  -0.006  -0.223071  -0.002764  3.220321  -0.004  -0.199614  -0.211517  -0.006438  3.200402  -0.008
N  N54  1  0.04479631  0.31854850  0.50524180  1  -0.229332  -0.008564  2.923733  -0.011  -0.215989  -0.004539  3.208285  -0.006  -0.222851  -0.002762  3.220276  -0.004  -0.199563  -0.211301  -0.006444  3.200354  -0.008
N  N55  1  0.54477651  0.18145867  0.99475801  1  -0.229427  -0.008555  2.923662  -0.011  -0.216056  -0.004535  3.208226  -0.006  -0.222918  -0.002761  3.220211  -0.004  -0.199575  -0.21137  -0.006437  3.200292  -0.008
N  N56  1  0.85745627  0.66210991  0.57331409  1  -0.07172  -0.005898  2.90063  -0.01  -0.065127  -0.004522  3.205821  -0.008  -0.062945  -0.000488  3.21821  -0.003  -0.084882  -0.066208  -0.00785  3.197992  -0.011
N  N57  1  0.35747918  0.83788054  0.92668665  1  -0.071621  -0.005892  2.900392  -0.01  -0.065023  -0.00452  3.205583  -0.008  -0.062838  -0.000484  3.217972  -0.003  -0.084912  -0.06611  -0.007846  3.197751  -0.011
N  N58  1  0.14253418  0.33788495  0.42668915  1  -0.071557  -0.005889  2.90018  -0.01  -0.064982  -0.00452  3.205423  -0.008  -0.062797  -0.000487  3.217801  -0.003  -0.084855  -0.066063  -0.007846  3.197594  -0.011
N  N59  1  0.64252007  0.16211752  0.07331118  1  -0.071747  -0.005888  2.900237  -0.01  -0.065178  -0.00452  3.205462  -0.008  -0.062995  -0.00048  3.217854  -0.003  -0.084943  -0.066263  -0.007845  3.197626  -0.011
N  N60  1  0.69801636  0.58346966  0.55287691  1  -0.075287  -0.056081  3.231248  -0.073  -0.051985  -0.044966  3.569637  -0.062  -0.068845  -0.037074  3.589566  -0.054  -0.128123  -0.043305  -0.049064  3.559388  -0.064
N  N61  1  0.19802347  0.91652606  0.94712484  1  -0.075399  -0.056085  3.231243  -0.073  -0.0521  -0.044971  3.569624  -0.062  -0.068976  -0.037075  3.589562  -0.054  -0.128109  -0.043418  -0.049069  3.55936  -0.064
N  N62  1  0.30197556  0.41652948  0.44712861  1  -0.075348  -0.056093  3.231209  -0.073  -0.052094  -0.044971  3.569591  -0.062  -0.068948  -0.037077  3.589535  -0.054  -0.128059  -0.043422  -0.04907  3.559345  -0.064
N  N63  1  0.80197871  0.08346878  0.05287284  1  -0.075305  -0.056087  3.231167  -0.073  -0.051974  -0.044968  3.56956  -0.062  -0.06886  -0.037076  3.589497  -0.054  -0.128117  -0.043289  -0.049068  3.559292  -0.064
N  N64  1  0.69110010  0.55077048  0.46151017  1  -0.230214  -0.062303  3.256815  -0.08  -0.20793  -0.046875  3.57022  -0.064  -0.231043  -0.037485  3.593668  -0.055  -0.245131  -0.194614  -0.051751  3.557265  -0.067
N  N65  1  0.19109896  0.94922578  0.03848985  1  -0.230294  -0.062292  3.25717  -0.08  -0.207885  -0.04687  3.570519  -0.064  -0.231023  -0.037482  3.593963  -0.055  -0.245181  -0.194564  -0.05175  3.557548  -0.067
N  N66  1  0.30890208  0.44923081  0.53849337  1  -0.230163  -0.062288  3.257087  -0.08  -0.207816  -0.046868  3.570428  -0.064  -0.230927  -0.03748  3.593871  -0.055  -0.245155  -0.194493  -0.051744  3.557468  -0.067
N  N67  1  0.80890762  0.05077120  0.96150794  1  -0.23029  -0.062284  3.257169  -0.08  -0.207917  -0.046866  3.570488  -0.064  -0.231041  -0.03748  3.593939  -0.055  -0.245182  -0.1946  -0.051746  3.55752  -0.067
N  N68  1  0.33616220  0.76412570  0.64674595  1  -0.355113  -0.016943  3.150564  -0.024  -0.319665  -0.004364  3.444097  -0.008  -0.344605  -0.002149  3.459386  -0.005  -0.316007  -0.301642  -0.008793  3.433108  -0.013
N  N69  1  0.83615779  0.73586450  0.85324360  1  -0.355267  -0.016941  3.150843  -0.024  -0.319836  -0.004363  3.444348  -0.008  -0.344782  -0.002148  3.459637  -0.005  -0.316141  -0.301809  -0.008799  3.433354  -0.013
N  N70  1  0.66383412  0.23587450  0.35325337  1  -0.354995  -0.016934  3.150759  -0.024  -0.319537  -0.004361  3.444304  -0.008  -0.344468  -0.002148  3.459597  -0.005  -0.315996  -0.30152  -0.008791  3.433318  -0.013
N  N71  1  0.16384733  0.26413677  0.14675300  1  -0.355212  -0.016939  3.150747  -0.024  -0.319755  -0.004365  3.444247  -0.008  -0.34471  -0.002148  3.459539  -0.005  -0.316047  -0.301726  -0.0088  3.43325  -0.013
N  N72  1  0.13148562  0.92119357  0.73937790  1  -0.321417  -0.078478  3.282236  -0.102  -0.27106  -0.051765  3.576461  -0.072  -0.306181  -0.040925  3.595965  -0.061  -0.338138  -0.249613  -0.058136  3.564604  -0.077
N  N73  1  0.63148108  0.57880908  0.76061697  1  -0.321554  -0.078481  3.282059  -0.102  -0.271325  -0.051769  3.576433  -0.072  -0.306438  -0.040928  3.595929  -0.061  -0.338226  -0.249884  -0.058144  3.564616  -0.077
N  N74  1  0.86851803  0.07880450  0.26062341  1  -0.32144  -0.078464  3.282116  -0.102  -0.271104  -0.051757  3.57638  -0.072  -0.30622  -0.04092  3.59586  -0.061  -0.338173  -0.249669  -0.058128  3.564563  -0.077
N  N75  1  0.36851670  0.42119219  0.23937893  1  -0.321397  -0.078471  3.282311  -0.102  -0.271157  -0.051765  3.576621  -0.072  -0.306256  -0.040922  3.596124  -0.061  -0.338156  -0.249724  -0.05814  3.564803  -0.077
O  O76  1  0.74058291  0.53329875  0.27915409  1  -0.53942  -0.100549  2.02016  -0.139  -0.519462  -0.059849  2.292409  -0.091  -0.562888  -0.042639  2.288365  -0.07  -0.306687  -0.491373  -0.071095  2.295186  -0.102
O  O77  1  0.24056465  0.96670411  0.22084851  1  -0.539715  -0.100655  2.019621  -0.139  -0.519761  -0.059893  2.291948  -0.091  -0.563235  -0.042668  2.287887  -0.07  -0.306876  -0.491662  -0.071149  2.294746  -0.102
O  O78  1  0.25943393  0.46670683  0.72085450  1  -0.539279  -0.100602  2.019896  -0.139  -0.519519  -0.05987  2.292278  -0.091  -0.562963  -0.042653  2.288227  -0.07  -0.306779  -0.491398  -0.071121  2.295026  -0.102
O  O79  1  0.75944340  0.03329286  0.77914442  1  -0.539411  -0.100653  2.019505  -0.139  -0.51958  -0.059892  2.291888  -0.091  -0.563043  -0.042668  2.287833  -0.07  -0.306781  -0.491472  -0.071145  2.294659  -0.102
O  O80  1  0.02692509  0.65355868  0.28838545  1  -0.579934  -0.012695  2.01024  -0.018  -0.525136  -0.00665  2.222825  -0.01  -0.553256  -0.002884  2.215078  -0.005  -0.287286  -0.505268  -0.010482  2.227114  -0.015
O  O81  1  0.52690693  0.84644733  0.21161576  1  -0.579576  -0.01267  2.011528  -0.018  -0.524772  -0.006645  2.224174  -0.01  -0.552892  -0.002883  2.216446  -0.005  -0.28706  -0.504907  -0.01047  2.228457  -0.015
O  O82  1  0.97309761  0.34645761  0.71162364  1  -0.579701  -0.012684  2.010703  -0.018  -0.525076  -0.006648  2.2234  -0.01  -0.553197  -0.002883  2.215663  -0.005  -0.287152  -0.505222  -0.010477  2.227697  -0.015
O  O83  1  0.47309819  0.15353893  0.78837875  1  -0.579342  -0.012664  2.011858  -0.018  -0.524635  -0.006643  2.224549  -0.01  -0.552753  -0.002881  2.216819  -0.005  -0.286882  -0.504783  -0.010466  2.228825  -0.015
O  O84  1  0.60945435  0.27667932  0.63147868  1  -0.833683  0.000359  1.85528  -0.001  -0.80178  0.001443  2.03082  0.0  -0.822201  0.002006  1.996366  0.001  -0.601454  -0.786395  2.9e-05  2.054314  -0.001
O  O85  1  0.10944231  0.22332312  0.86852116  1  -0.833539  0.000359  1.855302  -0.001  -0.801627  0.001444  2.030805  0.0  -0.822039  0.002007  1.996358  0.001  -0.601431  -0.786243  3.1e-05  2.054295  -0.001
O  O86  1  0.39053757  0.72333375  0.36852956  1  -0.833713  0.000357  1.855124  -0.001  -0.801857  0.001442  2.03073  0.0  -0.822255  0.002006  1.996291  0.001  -0.601433  -0.786466  2.8e-05  2.054208  -0.001
O  O87  1  0.89055254  0.77666314  0.13147543  1  -0.833684  0.000358  1.855095  -0.001  -0.801785  0.001444  2.030752  0.0  -0.822202  0.002007  1.996282  0.001  -0.601466  -0.786388  3.1e-05  2.054221  -0.001
