# generated using pymatgen
data_Zn3H14C21(N3O)4
_symmetry_space_group_name_H-M   'P 1'
_cell_length_a   9.78611034
_cell_length_b   11.38479342
_cell_length_c   12.28920151
_cell_angle_alpha   108.24061469
_cell_angle_beta   103.70128097
_cell_angle_gamma   105.38341743
_symmetry_Int_Tables_number   1
_chemical_formula_structural   Zn3H14C21(N3O)4
_chemical_formula_sum   'Zn6 H28 C42 N24 O8'
_cell_volume   1174.79396327
_cell_formula_units_Z   2
loop_
 _symmetry_equiv_pos_site_id
 _symmetry_equiv_pos_as_xyz
  1  'x, y, z'
loop_
 _atom_site_type_symbol
 _atom_site_label
 _atom_site_symmetry_multiplicity
 _atom_site_fract_x
 _atom_site_fract_y
 _atom_site_fract_z
 _atom_site_occupancy
 _atom_site_hle17_bader_spin_density
 _atom_site_hle17_ddec_charge
 _atom_site_hle17_ddec_spin_density
 _atom_site_hle17_ddec_sum_bond_order
 _atom_site_hle17_magmom
 _atom_site_hse06_10hf_bader_spin_density
 _atom_site_hse06_10hf_ddec_charge
 _atom_site_hse06_10hf_ddec_spin_density
 _atom_site_hse06_10hf_ddec_sum_bond_order
 _atom_site_hse06_10hf_magmom
 _atom_site_hse06_bader_spin_density
 _atom_site_hse06_ddec_charge
 _atom_site_hse06_ddec_spin_density
 _atom_site_hse06_ddec_sum_bond_order
 _atom_site_hse06_magmom
 _atom_site_pbe_bader_spin_density
 _atom_site_pbe_cm5_charge
 _atom_site_pbe_ddec_charge
 _atom_site_pbe_ddec_spin_density
 _atom_site_pbe_ddec_sum_bond_order
 _atom_site_pbe_magmom
Zn  Zn0  1  0.20832961  0.85120487  0.07367181  1  0  0.969338  0  1.926391  0  0  0.773912  0  2.400376  0  0  0.816021  0  2.351023  0  0  0.732385  0.744277  0  2.434345  0
Zn  Zn1  1  0.79166952  0.14879497  0.92632768  1  0  0.969368  0  1.926345  0  0  0.773962  0  2.400297  0  0  0.816068  0  2.350942  0  0  0.732387  0.744324  0  2.434287  0
Zn  Zn2  1  0.84930530  0.72840284  0.10719036  1  0  0.969458  0  1.9233  0  0  0.776623  0  2.390934  0  0  0.817791  0  2.342545  0  0  0.742954  0.746957  0  2.425376  0
Zn  Zn3  1  0.15069530  0.27159800  0.89281133  1  0  0.969431  0  1.923319  0  0  0.776582  0  2.390955  0  0  0.81775  0  2.342567  0  0  0.742943  0.746916  0  2.425373  0
Zn  Zn4  1  0.56962299  0.83008738  0.19989809  1  0  1.046037  0  1.859029  0  0  0.863387  0  2.326819  0  0  0.906116  0  2.272263  0  0  0.72527  0.833025  0  2.364873  0
Zn  Zn5  1  0.43037739  0.16991545  0.80010414  1  0  1.046064  0  1.859009  0  0  0.863419  0  2.326809  0  0  0.906145  0  2.272252  0  0  0.725286  0.833062  0  2.364861  0
H  H6  1  0.73038682  0.65009153  0.82004222  1  0  0.106788  0  0.964359  0  0  0.113903  0  1.03282  0  0  0.116821  0  1.032192  0  0  0.099645  0.111892  0  1.033241  0
H  H7  1  0.26960836  0.34990135  0.17995858  1  0  0.106869  0  0.964264  0  0  0.113939  0  1.032775  0  0  0.116864  0  1.032136  0  0  0.099649  0.111931  0  1.033187  0
H  H8  1  0.63781875  0.46569478  0.61384917  1  0  0.074027  0  0.955121  0  0  0.087978  0  1.014097  0  0  0.090228  0  1.012402  0  0  0.097536  0.08628  0  1.015324  0
H  H9  1  0.36217853  0.53429810  0.38615039  1  0  0.074032  0  0.95508  0  0  0.087998  0  1.014037  0  0  0.090281  0  1.012304  0  0  0.097556  0.086305  0  1.015266  0
H  H10  1  0.79273533  0.32937260  0.56054389  1  0  0.09671  0  0.952658  0  0  0.107838  0  1.010677  0  0  0.110622  0  1.010613  0  0  0.098949  0.105851  0  1.010902  0
H  H11  1  0.20726594  0.67062228  0.43945619  1  0  0.096679  0  0.952729  0  0  0.107821  0  1.010731  0  0  0.110605  0  1.010666  0  0  0.098955  0.105829  0  1.010948  0
H  H12  1  0.03735044  0.37768780  0.71563562  1  0  0.074809  0  1.009223  0  0  0.083892  0  1.078469  0  0  0.086048  0  1.077605  0  0  0.095691  0.082247  0  1.079334  0
H  H13  1  0.96265185  0.62231205  0.28436529  1  0  0.074812  0  1.00924  0  0  0.083894  0  1.078487  0  0  0.086049  0  1.077625  0  0  0.095683  0.082251  0  1.079348  0
H  H14  1  0.58386134  0.66542114  0.35749544  1  0  0.105887  0  0.95501  0  0  0.116662  0  1.016432  0  0  0.119632  0  1.015419  0  0  0.101014  0.114599  0  1.016969  0
H  H15  1  0.41614074  0.33458070  0.64250600  1  0  0.105897  0  0.95492  0  0  0.116689  0  1.016328  0  0  0.11966  0  1.015313  0  0  0.101036  0.114625  0  1.016866  0
H  H16  1  0.68161781  0.67926276  0.56894275  1  0  0.077257  0  0.961979  0  0  0.091107  0  1.022027  0  0  0.092827  0  1.021266  0  0  0.097407  0.089725  0  1.022875  0
H  H17  1  0.31838743  0.32073908  0.43106090  1  0  0.077335  0  0.961963  0  0  0.091149  0  1.022036  0  0  0.092869  0  1.021277  0  0  0.097426  0.089772  0  1.022882  0
H  H18  1  0.95787150  0.79063529  0.69027030  1  0  0.094006  0  0.956838  0  0  0.104442  0  1.01698  0  0  0.107005  0  1.017233  0  0  0.095299  0.102609  0  1.016973  0
H  H19  1  0.04213372  0.20936655  0.30973173  1  0  0.093979  0  0.956767  0  0  0.104409  0  1.016917  0  0  0.10697  0  1.017175  0  0  0.095263  0.102579  0  1.016912  0
H  H20  1  0.13439176  0.88195882  0.59549978  1  0  0.089267  0  0.955735  0  0  0.099354  0  1.020887  0  0  0.102395  0  1.018593  0  0  0.099227  0.097098  0  1.022738  0
H  H21  1  0.86561136  0.11804302  0.40450104  1  0  0.089262  0  0.955714  0  0  0.09938  0  1.020831  0  0  0.102424  0  1.018532  0  0  0.099227  0.097114  0  1.022693  0
H  H22  1  0.84656641  0.29646208  0.20243118  1  0  0.080682  0  0.99446  0  0  0.090305  0  1.060756  0  0  0.09226  0  1.060419  0  0  0.096044  0.088829  0  1.061229  0
H  H23  1  0.15343712  0.70354075  0.79757001  1  0  0.080674  0  0.994455  0  0  0.090287  0  1.060771  0  0  0.092241  0  1.060434  0  0  0.096045  0.088806  0  1.061237  0
H  H24  1  0.75221788  0.46444671  0.31002152  1  0  0.090972  0  0.971396  0  0  0.10083  0  1.03394  0  0  0.10308  0  1.034829  0  0  0.093613  0.099254  0  1.03336  0
H  H25  1  0.24777891  0.53555513  0.68997406  1  0  0.090983  0  0.971505  0  0  0.100821  0  1.034075  0  0  0.103071  0  1.034964  0  0  0.093622  0.099261  0  1.033478  0
H  H26  1  0.50587502  0.38798306  0.33900064  1  0  0.07388  0  0.961867  0  0  0.087559  0  1.021899  0  0  0.08956  0  1.020539  0  0  0.0956  0.086108  0  1.022805  0
H  H27  1  0.49411800  0.61201480  0.66099063  1  0  0.073901  0  0.961904  0  0  0.087585  0  1.021935  0  0  0.089586  0  1.020572  0  0  0.095622  0.086137  0  1.022842  0
H  H28  1  0.35848613  0.14698243  0.26648592  1  0  0.098777  0  0.978259  0  0  0.103031  0  1.052747  0  0  0.106273  0  1.051544  0  0  0.095391  0.100667  0  1.053831  0
H  H29  1  0.64151110  0.85301543  0.73350695  1  0  0.098729  0  0.978162  0  0  0.102982  0  1.052665  0  0  0.106224  0  1.051461  0  0  0.095357  0.100617  0  1.05375  0
H  H30  1  0.64522860  0.96703598  0.43740479  1  0  0.394312  0  0.92872  0  0  0.351046  0  1.01181  0  0  0.362444  0  0.995849  0  0  0.289119  0.342944  0  1.023227  0
H  H31  1  0.35476926  0.03296585  0.56259587  1  0  0.394306  0  0.928728  0  0  0.351041  0  1.011816  0  0  0.362439  0  0.995855  0  0  0.2891  0.34294  0  1.023231  0
H  H32  1  0.47111979  0.94234164  0.35997234  1  0  0.40284  0  0.899351  0  0  0.363132  0  0.983329  0  0  0.373668  0  0.968162  0  0  0.29497  0.355103  0  0.994951  0
H  H33  1  0.52887661  0.05765920  0.64002938  1  0  0.402857  0  0.899312  0  0  0.363171  0  0.983262  0  0  0.373706  0  0.968097  0  0  0.294989  0.355143  0  0.994883  0
C  C34  1  0.93350868  0.61598788  0.88683660  1  0  0.331926  0  3.857577  0  0  0.313659  0  4.112896  0  0  0.328367  0  4.129129  0  0  0.074755  0.303541  0  4.101702  0
C  C35  1  0.06648753  0.38400998  0.11316340  1  0  0.331877  0  3.857727  0  0  0.313639  0  4.112988  0  0  0.328347  0  4.129222  0  0  0.074734  0.303523  0  4.101794  0
C  C36  1  0.79508051  0.58742164  0.79699117  1  0  -0.209406  0  3.740289  0  0  -0.228281  0  3.997278  0  0  -0.23669  0  4.018979  0  0  -0.115956  -0.222841  0  3.982639  0
C  C37  1  0.20491678  0.41257124  0.20300921  1  0  -0.209421  0  3.740204  0  0  -0.228285  0  3.997207  0  0  -0.236703  0  4.018917  0  0  -0.115928  -0.222845  0  3.982567  0
C  C38  1  0.74426796  0.48450563  0.68221501  1  0  -0.024715  0  3.792781  0  0  -0.040711  0  4.0444  0  0  -0.03837  0  4.065424  0  0  -0.086438  -0.041777  0  4.029709  0
C  C39  1  0.25573080  0.51548825  0.31778675  1  0  -0.024802  0  3.79273  0  0  -0.0408  0  4.044339  0  0  -0.038488  0  4.065366  0  0  -0.086503  -0.041878  0  4.029659  0
C  C40  1  0.82995235  0.40670183  0.65197865  1  0  -0.101711  0  3.779618  0  0  -0.117248  0  4.033412  0  0  -0.122628  0  4.055441  0  0  -0.110363  -0.113818  0  4.01849  0
C  C41  1  0.17004934  0.59329404  0.34802261  1  0  -0.101556  0  3.779595  0  0  -0.117099  0  4.033379  0  0  -0.12248  0  4.05542  0  0  -0.110301  -0.113657  0  4.018442  0
C  C42  1  0.96562786  0.43236436  0.73958555  1  0  -0.064568  0  3.770767  0  0  -0.091538  0  4.024831  0  0  -0.088836  0  4.044236  0  0  -0.094778  -0.093102  0  4.011765  0
C  C43  1  0.03437150  0.56763350  0.26041422  1  0  -0.064554  0  3.770849  0  0  -0.091544  0  4.024928  0  0  -0.088842  0  4.044333  0  0  -0.094759  -0.093106  0  4.011854  0
C  C44  1  0.01768468  0.53314577  0.85749772  1  0  -0.154714  0  3.784634  0  0  -0.135399  0  4.024993  0  0  -0.144321  0  4.047236  0  0  -0.03389  -0.129538  0  4.010052  0
C  C45  1  0.98231762  0.46685408  0.14250399  1  0  -0.15483  0  3.784843  0  0  -0.135489  0  4.025164  0  0  -0.144415  0  4.047408  0  0  -0.03393  -0.129641  0  4.010244  0
C  C46  1  0.16304836  0.55951706  0.94483524  1  0  0.334625  0  3.741579  0  0  0.29937  0  4.006608  0  0  0.313839  0  4.021661  0  0  0.233945  0.28952  0  3.996519  0
C  C47  1  0.83695077  0.44048279  0.05516426  1  0  0.334669  0  3.741524  0  0  0.299399  0  4.006589  0  0  0.31387  0  4.021641  0  0  0.233957  0.289554  0  3.996504  0
C  C48  1  0.80128529  0.76740887  0.35568773  1  0  0.333728  0  3.834511  0  0  0.317515  0  4.088431  0  0  0.33211  0  4.104188  0  0  0.077168  0.307695  0  4.077642  0
C  C49  1  0.19871825  0.23259396  0.64431428  1  0  0.333798  0  3.83457  0  0  0.31751  0  4.088565  0  0  0.332106  0  4.104319  0  0  0.077159  0.307672  0  4.077795  0
C  C50  1  0.70444451  0.71315488  0.41088189  1  0  -0.195017  0  3.74258  0  0  -0.210969  0  3.993817  0  0  -0.218657  0  4.014549  0  0  -0.111069  -0.205764  0  3.979626  0
C  C51  1  0.29555674  0.28684497  0.58911963  1  0  -0.195024  0  3.742594  0  0  -0.210955  0  3.993815  0  0  -0.218643  0  4.014544  0  0  -0.111056  -0.205744  0  3.97963  0
C  C52  1  0.75981598  0.72205358  0.52922273  1  0  -0.031357  0  3.792905  0  0  -0.050149  0  4.047746  0  0  -0.047762  0  4.068864  0  0  -0.09121  -0.051747  0  4.033472  0
C  C53  1  0.24018819  0.27794826  0.47077911  1  0  -0.031525  0  3.793022  0  0  -0.050296  0  4.047869  0  0  -0.047908  0  4.068986  0  0  -0.091265  -0.051893  0  4.033601  0
C  C54  1  0.91494075  0.78477832  0.59769636  1  0  -0.104552  0  3.789979  0  0  -0.122497  0  4.051175  0  0  -0.127983  0  4.073906  0  0  -0.111841  -0.118691  0  4.035901  0
C  C55  1  0.08506259  0.21522153  0.40230393  1  0  -0.104462  0  3.789838  0  0  -0.1224  0  4.051045  0  0  -0.127887  0  4.073777  0  0  -0.111802  -0.118601  0  4.035778  0
C  C56  1  0.01303530  0.83629095  0.54468996  1  0  -0.061899  0  3.752913  0  0  -0.088946  0  4.011462  0  0  -0.086486  0  4.030665  0  0  -0.091943  -0.090665  0  3.998527  0
C  C57  1  0.98696719  0.16371188  0.45531266  1  0  -0.061901  0  3.752922  0  0  -0.08899  0  4.011459  0  0  -0.086533  0  4.030662  0  0  -0.091923  -0.090693  0  3.998519  0
C  C58  1  0.95993032  0.82877631  0.42450832  1  0  -0.152084  0  3.781672  0  0  -0.135209  0  4.021258  0  0  -0.144219  0  4.045089  0  0  -0.031192  -0.12898  0  4.004909  0
C  C59  1  0.04007112  0.17122652  0.57549411  1  0  -0.152116  0  3.781762  0  0  -0.135186  0  4.021319  0  0  -0.144195  0  4.04515  0  0  -0.031174  -0.128941  0  4.00496  0
C  C60  1  0.06970098  0.87631823  0.37148383  1  0  0.317314  0  3.766035  0  0  0.286846  0  4.034322  0  0  0.299652  0  4.050702  0  0  0.232353  0.278248  0  4.023295  0
C  C61  1  0.93030086  0.12368559  0.62851652  1  0  0.317393  0  3.766055  0  0  0.286913  0  4.034324  0  0  0.299721  0  4.050703  0  0  0.232357  0.278303  0  4.023309  0
C  C62  1  0.71128941  0.03203452  0.10618393  1  0  0.344946  0  3.748661  0  0  0.311855  0  4.010079  0  0  0.327058  0  4.024266  0  0  0.235556  0.301577  0  4.000708  0
C  C63  1  0.28871183  0.96796533  0.89381678  1  0  0.344849  0  3.748574  0  0  0.31176  0  4.009999  0  0  0.326964  0  4.024189  0  0  0.235518  0.301483  0  4.000626  0
C  C64  1  0.65366302  0.12783031  0.16875226  1  0  -0.155508  0  3.785957  0  0  -0.138256  0  4.02854  0  0  -0.147597  0  4.051244  0  0  -0.037297  -0.132191  0  4.013429  0
C  C65  1  0.34633653  0.87217054  0.83124760  1  0  -0.15558  0  3.786152  0  0  -0.138325  0  4.028723  0  0  -0.147668  0  4.051431  0  0  -0.037318  -0.132258  0  4.013607  0
C  C66  1  0.73724618  0.26453337  0.21323593  1  0  -0.070671  0  3.790762  0  0  -0.095488  0  4.04309  0  0  -0.092813  0  4.063062  0  0  -0.096875  -0.09696  0  4.029565  0
C  C67  1  0.26275777  0.73547046  0.78676318  1  0  -0.070658  0  3.790952  0  0  -0.095461  0  4.043263  0  0  -0.09279  0  4.063243  0  0  -0.096867  -0.096928  0  4.029727  0
C  C68  1  0.68563659  0.35861906  0.27430495  1  0  -0.10841  0  3.794604  0  0  -0.122746  0  4.046082  0  0  -0.128513  0  4.068718  0  0  -0.114851  -0.118964  0  4.030505  0
C  C69  1  0.31435791  0.64137979  0.72569096  1  0  -0.108416  0  3.794651  0  0  -0.122737  0  4.046146  0  0  -0.128504  0  4.068779  0  0  -0.114862  -0.118974  0  4.030564  0
C  C70  1  0.54746718  0.31481504  0.29118830  1  0  -0.034409  0  3.805219  0  0  -0.047355  0  4.051818  0  0  -0.044888  0  4.072831  0  0  -0.092307  -0.048528  0  4.036949  0
C  C71  1  0.45253382  0.68518681  0.70880643  1  0  -0.034431  0  3.805353  0  0  -0.047391  0  4.051964  0  0  -0.044922  0  4.072974  0  0  -0.092326  -0.048567  0  4.037108  0
C  C72  1  0.46406102  0.17990562  0.25037000  1  0  -0.214497  0  3.756475  0  0  -0.236104  0  4.017311  0  0  -0.244697  0  4.038934  0  0  -0.120582  -0.230359  0  4.002645  0
C  C73  1  0.53593329  0.82009025  0.74962500  1  0  -0.214492  0  3.756568  0  0  -0.236102  0  4.017424  0  0  -0.244698  0  4.039053  0  0  -0.120562  -0.230348  0  4.002753  0
C  C74  1  0.51598105  0.08231234  0.19050516  1  0  0.339879  0  3.856721  0  0  0.322022  0  4.111089  0  0  0.337194  0  4.127758  0  0  0.074259  0.31163  0  4.099532  0
C  C75  1  0.48402122  0.91768752  0.80949086  1  0  0.339978  0  3.856717  0  0  0.322137  0  4.111068  0  0  0.33731  0  4.127745  0  0  0.074277  0.311738  0  4.099522  0
N  N76  1  0.25659482  0.68069594  0.02879082  1  0  -0.306892  0  3.181522  0  0  -0.246163  0  3.469678  0  0  -0.261714  0  3.481742  0  0  -0.232763  -0.235461  0  3.461394  0
N  N77  1  0.74340473  0.31930491  0.97120904  1  0  -0.306913  0  3.181593  0  0  -0.246189  0  3.469734  0  0  -0.261743  0  3.481803  0  0  -0.232762  -0.235482  0  3.46145  0
N  N78  1  0.38295259  0.66600474  0.08504709  1  0  -0.102623  0  3.234736  0  0  -0.047454  0  3.54196  0  0  -0.055349  0  3.552371  0  0  -0.103316  -0.041979  0  3.534865  0
N  N79  1  0.61704738  0.33399710  0.91495477  1  0  -0.102723  0  3.234867  0  0  -0.047527  0  3.542063  0  0  -0.055422  0  3.552475  0  0  -0.10335  -0.042052  0  3.534964  0
N  N80  1  0.37011210  0.54165551  0.04048943  1  0  -0.023833  0  2.913592  0  0  -0.034269  0  3.199943  0  0  -0.028522  0  3.21019  0  0  -0.071015  -0.037969  0  3.193371  0
N  N81  1  0.62988934  0.45834732  0.95951463  1  0  -0.023755  0  2.913535  0  0  -0.034173  0  3.199868  0  0  -0.028426  0  3.210115  0  0  -0.070936  -0.037862  0  3.193291  0
N  N82  1  0.23355127  0.47260147  0.95229439  1  0  -0.318228  0  3.166337  0  0  -0.244884  0  3.464965  0  0  -0.262745  0  3.474237  0  0  -0.223189  -0.232539  0  3.458901  0
N  N83  1  0.76644998  0.52739837  0.04770957  1  0  -0.318244  0  3.166346  0  0  -0.244956  0  3.465051  0  0  -0.262814  0  3.474316  0  0  -0.223259  -0.232619  0  3.459001  0
N  N84  1  0.04125683  0.84839855  0.25133544  1  0  -0.317083  0  3.217161  0  0  -0.257073  0  3.509047  0  0  -0.272753  0  3.521573  0  0  -0.239367  -0.246453  0  3.501016  0
N  N85  1  0.95874355  0.15160428  0.74866516  1  0  -0.317049  0  3.217222  0  0  -0.257045  0  3.509092  0  0  -0.272724  0  3.521616  0  0  -0.239345  -0.246424  0  3.501067  0
N  N86  1  0.17483694  0.89749065  0.23952959  1  0  -0.097342  0  3.225112  0  0  -0.047512  0  3.52565  0  0  -0.054227  0  3.536828  0  0  -0.10901  -0.042971  0  3.518235  0
N  N87  1  0.82516471  0.10251019  0.76047067  1  0  -0.097412  0  3.225215  0  0  -0.047558  0  3.525724  0  0  -0.054273  0  3.536905  0  0  -0.109014  -0.043017  0  3.518309  0
N  N88  1  0.28216727  0.95421481  0.34737103  1  0  -0.051863  0  3.028087  0  0  -0.031478  0  3.298066  0  0  -0.029697  0  3.309773  0  0  -0.068907  -0.032101  0  3.290576  0
N  N89  1  0.71783438  0.04578603  0.65262842  1  0  -0.051886  0  3.028185  0  0  -0.031525  0  3.29816  0  0  -0.029744  0  3.30987  0  0  -0.06895  -0.032141  0  3.290664  0
N  N90  1  0.22055943  0.94305792  0.43121349  1  0  -0.296654  0  3.029589  0  0  -0.250015  0  3.290345  0  0  -0.264373  0  3.304478  0  0  -0.195261  -0.240181  0  3.28106  0
N  N91  1  0.77944263  0.05694392  0.56878632  1  0  -0.296673  0  3.029591  0  0  -0.25002  0  3.290338  0  0  -0.264385  0  3.304479  0  0  -0.195242  -0.240186  0  3.281058  0
N  N92  1  0.79579347  0.04351149  0.03393897  1  0  -0.324448  0  3.14394  0  0  -0.25388  0  3.446452  0  0  -0.27154  0  3.454393  0  0  -0.224764  -0.241921  0  3.441398  0
N  N93  1  0.20420419  0.95648737  0.96605997  1  0  -0.324353  0  3.143751  0  0  -0.253781  0  3.446252  0  0  -0.271439  0  3.454191  0  0  -0.22474  -0.241823  0  3.441189  0
N  N94  1  0.83133522  0.93430332  0.00202503  1  0  -0.017969  0  2.893975  0  0  -0.027975  0  3.182562  0  0  -0.022069  0  3.192407  0  0  -0.071353  -0.031868  0  3.17627  0
N  N95  1  0.16866245  0.06569553  0.99797391  1  0  -0.018036  0  2.893932  0  0  -0.028053  0  3.182531  0  0  -0.022146  0  3.192375  0  0  -0.071385  -0.031944  0  3.176231  0
N  N96  1  0.77050240  0.85883695  0.05252319  1  0  -0.103031  0  3.228744  0  0  -0.048798  0  3.533048  0  0  -0.056081  0  3.544036  0  0  -0.108391  -0.043643  0  3.525766  0
N  N97  1  0.22949779  0.14116290  0.94747731  1  0  -0.103001  0  3.228765  0  0  -0.04876  0  3.533068  0  0  -0.056041  0  3.544057  0  0  -0.108365  -0.043605  0  3.525778  0
N  N98  1  0.69442571  0.91589316  0.11645177  1  0  -0.323979  0  3.222266  0  0  -0.263077  0  3.512768  0  0  -0.279153  0  3.523269  0  0  -0.238805  -0.252287  0  3.505682  0
N  N99  1  0.30557531  0.08410867  0.88355028  1  0  -0.323934  0  3.22223  0  0  -0.263031  0  3.512744  0  0  -0.279109  0  3.523249  0  0  -0.238813  -0.252249  0  3.505664  0
O  O100  1  0.98240746  0.71679632  0.99576976  1  0  -0.678242  0  2.206583  0  0  -0.59507  0  2.509362  0  0  -0.622481  0  2.496973  0  0  -0.358196  -0.575398  0  2.517151  0
O  O101  1  0.01759085  0.28320154  0.00423063  1  0  -0.678205  0  2.206539  0  0  -0.595049  0  2.509309  0  0  -0.62246  0  2.496918  0  0  -0.358183  -0.575372  0  2.517093  0
O  O102  1  0.74265966  0.76101500  0.24305750  1  0  -0.683924  0  2.161799  0  0  -0.59891  0  2.456647  0  0  -0.626526  0  2.44374  0  0  -0.357265  -0.578833  0  2.46524  0
O  O103  1  0.25734094  0.23898584  0.75694338  1  0  -0.683944  0  2.16183  0  0  -0.598927  0  2.456732  0  0  -0.626545  0  2.443828  0  0  -0.357275  -0.578842  0  2.465325  0
O  O104  1  0.55144217  0.90409304  0.36279070  1  0  -0.82077  0  2.024344  0  0  -0.745585  0  2.266805  0  0  -0.767599  0  2.229956  0  0  -0.577353  -0.729609  0  2.293107  0
O  O105  1  0.44855569  0.09590879  0.63720996  1  0  -0.820771  0  2.02433  0  0  -0.745586  0  2.266763  0  0  -0.767603  0  2.229918  0  0  -0.577343  -0.729605  0  2.29305  0
O  O106  1  0.44106408  0.95306267  0.15583697  1  0  -0.697082  0  2.203197  0  0  -0.613225  0  2.496011  0  0  -0.641723  0  2.485278  0  0  -0.358609  -0.592549  0  2.502119  0
O  O107  1  0.55893504  0.04693719  0.84415683  1  0  -0.697052  0  2.20314  0  0  -0.613248  0  2.496035  0  0  -0.641719  0  2.485236  0  0  -0.358599  -0.592576  0  2.502153  0
