# generated using pymatgen
data_ZnH13C23NO6
_symmetry_space_group_name_H-M   'P 1'
_cell_length_a   16.53009575
_cell_length_b   17.38343207
_cell_length_c   17.78839659
_cell_angle_alpha   88.63033369
_cell_angle_beta   91.12231421
_cell_angle_gamma   80.42171218
_symmetry_Int_Tables_number   1
_chemical_formula_structural   ZnH13C23NO6
_chemical_formula_sum   'Zn2 H26 C46 N2 O12'
_cell_volume   5037.35378349
_cell_formula_units_Z   2
loop_
 _symmetry_equiv_pos_site_id
 _symmetry_equiv_pos_as_xyz
  1  'x, y, z'
loop_
 _atom_site_type_symbol
 _atom_site_label
 _atom_site_symmetry_multiplicity
 _atom_site_fract_x
 _atom_site_fract_y
 _atom_site_fract_z
 _atom_site_occupancy
 _atom_site_pbe_bader_charge
 _atom_site_pbe_bader_spin_density
 _atom_site_pbe_cm5_charge
 _atom_site_pbe_ddec_charge
 _atom_site_pbe_ddec_spin_density
 _atom_site_pbe_ddec_sum_bond_order
 _atom_site_pbe_magmom
Zn  Zn0  1  0.58711705  0.49272943  0.50159473  1  1.288447  0  0.669585  0.823461  0  2.433314  0
Zn  Zn1  1  0.41525089  0.50048252  0.49812511  1  1.285328  0  0.668309  0.821376  0  2.418333  0
H  H2  1  0.88180441  0.39692600  0.42888673  1  0.082078  0  0.118855  0.128447  0  0.977734  0
H  H3  1  0.12046244  0.59363825  0.57118983  1  0.073679  0  0.118787  0.127971  0  0.97719  0
H  H4  1  0.72930954  0.40056623  0.43458893  1  0.12903  0  0.13089  0.107436  0  0.967834  0
H  H5  1  0.27317507  0.58962357  0.56695641  1  0.139544  0  0.129405  0.104948  0  0.976186  0
H  H6  1  0.69815415  0.59969802  0.56054156  1  0.14046  0  0.133656  0.111239  0  0.96146  0
H  H7  1  0.30381911  0.39628870  0.43311283  1  0.115681  0  0.135026  0.110647  0  0.954242  0
H  H8  1  0.84926226  0.60428833  0.56251712  1  0.090039  0  0.122065  0.132097  0  0.970879  0
H  H9  1  0.15259559  0.39236885  0.42940392  1  0.096403  0  0.121497  0.130607  0  0.971706  0
H  H10  1  0.36099122  0.74949827  0.57611422  1  0.100356  0  0.106712  0.110364  0  0.99154  0
H  H11  1  0.65496078  0.23032461  0.48190745  1  0.090627  0  0.106498  0.110368  0  0.993043  0
H  H12  1  0.42041170  0.00672353  0.58025429  1  0.041715  0  0.102554  0.100978  0  1.000279  0
H  H13  1  0.59674269  0.98015147  0.52201403  1  0.05759  0  0.101142  0.097128  0  1.007836  0
H  H14  1  0.65778307  0.08658843  0.49426424  1  0.063051  0  0.102418  0.100778  0  0.996531  0
H  H15  1  0.36582631  0.88867120  0.60398618  1  0.058699  0  0.102894  0.101467  0  0.995205  0
H  H16  1  0.58238074  0.87739674  0.47022389  1  0.032903  0  0.106505  0.109744  0  1.004344  0
H  H17  1  0.42596630  0.12889488  0.60641708  1  0.046994  0  0.107734  0.112563  0  0.997011  0
H  H18  1  0.62532289  0.53155582  0.87975190  1  0.077773  0  0.105002  0.106977  0  0.990679  0
H  H19  1  0.36329941  0.54360734  0.11971566  1  0.071725  0  0.104762  0.107135  0  0.990355  0
H  H20  1  0.62739807  0.51048187  0.74088252  1  0.081922  0  0.106304  0.112101  0  0.995339  0
H  H21  1  0.36792383  0.52208159  0.25957090  1  0.098946  0  0.105825  0.111074  0  0.99638  0
H  H22  1  0.36467938  0.53802407  0.73322982  1  0.088161  0  0.100815  0.103076  0  1.009352  0
H  H23  1  0.62813542  0.51819912  0.26352333  1  0.094291  0  0.101621  0.104208  0  1.006863  0
H  H24  1  0.36104308  0.55861999  0.87201241  1  0.09099  0  0.103649  0.105649  0  0.991802  0
H  H25  1  0.62470785  0.54124261  0.12387030  1  0.075904  0  0.103497  0.105888  0  0.992201  0
H  H26  1  0.39117284  0.36735370  0.67553549  1  0.620193  0  0.339987  0.381495  0  0.856752  0
H  H27  1  0.60065110  0.67526788  0.33691503  1  0.61418  0  0.341166  0.379667  0  0.857027  0
C  C28  1  0.50085355  0.50415499  0.35310842  1  1.544548  0  0.212989  0.593208  0  4.174636  0
C  C29  1  0.49804224  0.50722004  0.64667818  1  1.577051  0  0.212384  0.589586  0  4.177442  0
C  C30  1  0.56835817  0.53312724  0.84740457  1  -0.027535  0  -0.083814  -0.128309  0  3.949094  0
C  C31  1  0.42111498  0.53846157  0.15148246  1  -0.069717  0  -0.083366  -0.128768  0  3.950016  0
C  C32  1  0.56965840  0.52135268  0.77047948  1  0.042277  0  -0.082148  -0.086301  0  3.986057  0
C  C33  1  0.42361122  0.52622579  0.22900104  1  0.010979  0  -0.081665  -0.084916  0  3.984206  0
C  C34  1  0.49632828  0.52198904  0.72925611  1  -0.099586  0  -0.017794  -0.030489  0  3.960811  0
C  C35  1  0.49827461  0.51833938  0.26961196  1  -0.020285  0  -0.017487  -0.030469  0  3.957928  0
C  C36  1  0.42126606  0.53649612  0.76617209  1  -0.060797  0  -0.089667  -0.099932  0  4.009966  0
C  C37  1  0.57050390  0.52437617  0.23128701  1  -0.052828  0  -0.088188  -0.098876  0  4.008963  0
C  C38  1  0.41926541  0.54823157  0.84310798  1  -0.026257  0  -0.086062  -0.128949  0  3.957511  0
C  C39  1  0.56862957  0.53696933  0.15382122  1  -0.040701  0  -0.086219  -0.130397  0  3.958762  0
C  C40  1  0.49309175  0.54553700  0.88525305  1  0.102322  0  0.001221  0.143371  0  4.114529  0
C  C41  1  0.49384733  0.54324372  0.11245136  1  0.115961  0  0.000484  0.142705  0  4.117407  0
C  C42  1  0.49213776  0.55134191  0.96438412  1  -0.187198  0  -0.046145  -0.110929  0  4.127733  0
C  C43  1  0.49247268  0.55056571  0.03307571  1  -0.239042  0  -0.045849  -0.109778  0  4.126623  0
C  C44  1  0.84330095  0.44235849  0.45911685  1  0.057051  0  -0.070632  -0.172535  0  3.91698  0
C  C45  1  0.15894389  0.54939205  0.53958335  1  -0.002558  0  -0.070561  -0.170931  0  3.91295  0
C  C46  1  0.75929391  0.44410939  0.46194085  1  0.43568  0  0.062019  0.104754  0  3.9295  0
C  C47  1  0.24302675  0.54739640  0.53769720  1  0.488593  0  0.061797  0.105655  0  3.929873  0
C  C48  1  0.74167970  0.55560219  0.53331862  1  0.523429  0  0.067731  0.116777  0  3.90782  0
C  C49  1  0.26042983  0.43914844  0.46199885  1  0.496914  0  0.069596  0.118232  0  3.910804  0
C  C50  1  0.53177971  0.34478045  0.51602219  1  1.583544  0  0.216806  0.598822  0  4.178469  0
C  C51  1  0.47162544  0.64988727  0.50080120  1  1.577298  0  0.213252  0.593239  0  4.182722  0
C  C52  1  0.82520630  0.55799342  0.53385369  1  0.023845  0  -0.06465  -0.161557  0  3.890685  0
C  C53  1  0.17682910  0.43709801  0.46039589  1  0.018686  0  -0.064217  -0.161151  0  3.890935  0
C  C54  1  0.87813858  0.49987922  0.49669494  1  0.03541  0  0.0226  0.176444  0  4.105279  0
C  C55  1  0.12394986  0.49367051  0.49945110  1  0.137176  0  0.024317  0.177995  0  4.102978  0
C  C56  1  0.96391114  0.49841319  0.49730290  1  -0.197879  0  -0.025482  -0.087367  0  4.079223  0
C  C57  1  0.03813219  0.49535505  0.49831296  1  -0.12133  0  -0.025821  -0.089022  0  4.079456  0
C  C58  1  0.53901545  0.25950728  0.53495558  1  0.014443  0  -0.007828  -0.041859  0  3.920412  0
C  C59  1  0.46827052  0.73586382  0.50870067  1  0.025252  0  -0.007881  -0.039209  0  3.92633  0
C  C60  1  0.47572677  0.22991176  0.57247175  1  -0.033269  0  -0.003461  -0.028351  0  3.942434  0
C  C61  1  0.53056078  0.77305434  0.47864652  1  -0.038436  0  -0.005534  -0.034237  0  3.953633  0
C  C62  1  0.47648462  0.14984458  0.57828200  1  0.013665  0  -0.078744  -0.144429  0  3.909536  0
C  C63  1  0.53412508  0.85014366  0.49518856  1  0.046506  0  -0.079797  -0.143087  0  3.912868  0
C  C64  1  0.54065047  0.09669444  0.54803652  1  0.003594  0  -0.007588  0.115687  0  4.053899  0
C  C65  1  0.47552893  0.89333303  0.54115023  1  -0.036841  0  -0.007987  0.113918  0  4.048676  0
C  C66  1  0.60655113  0.12703609  0.51616966  1  0.002543  0  -0.086853  -0.132256  0  3.973939  0
C  C67  1  0.41227069  0.85612414  0.56884728  1  0.010119  0  -0.085461  -0.1291  0  3.971658  0
C  C68  1  0.60543346  0.20703954  0.50927432  1  -0.082538  0  -0.082761  -0.088466  0  4.002485  0
C  C69  1  0.40893996  0.77861360  0.55307143  1  -0.075351  0  -0.083333  -0.092056  0  4.000493  0
C  C70  1  0.54019288  0.01328648  0.54347194  1  -0.054484  0  -0.089717  -0.128892  0  3.999542  0
C  C71  1  0.47691658  0.97498531  0.55735287  1  -0.042936  0  -0.089103  -0.128339  0  3.98785  0
C  C72  1  0.40731854  0.28334350  0.60794556  1  1.53957  0  0.228107  0.591701  0  4.130103  0
C  C73  1  0.59296273  0.73224456  0.42683524  1  1.552974  0  0.230677  0.595965  0  4.124953  0
N  N74  1  0.70957987  0.49914706  0.49888127  1  -1.229366  0  -0.315954  -0.195904  0  3.509707  0
N  N75  1  0.29274509  0.49374980  0.49920807  1  -1.246288  0  -0.317027  -0.197349  0  3.513513  0
O  O76  1  0.57102858  0.49505747  0.38616378  1  -1.16175  0  -0.321948  -0.559407  0  2.330827  0
O  O77  1  0.42907039  0.50611383  0.61347108  1  -1.16691  0  -0.32312  -0.566212  0  2.351077  0
O  O78  1  0.43256411  0.50269714  0.38486797  1  -1.164962  0  -0.320309  -0.548716  0  2.322856  0
O  O79  1  0.56773237  0.49701892  0.61588809  1  -1.164857  0  -0.318092  -0.544317  0  2.315162  0
O  O80  1  0.59746398  0.37299427  0.50808913  1  -1.164244  0  -0.320165  -0.546719  0  2.298168  0
O  O81  1  0.40511205  0.62242704  0.49899641  1  -1.159753  0  -0.316324  -0.540513  0  2.277808  0
O  O82  1  0.45887944  0.38191446  0.50715834  1  -1.161417  0  -0.312209  -0.555789  0  2.362106  0
O  O83  1  0.54403224  0.61084588  0.49936411  1  -1.170669  0  -0.311769  -0.556284  0  2.38311  0
O  O84  1  0.33416514  0.28388069  0.59602419  1  -1.142734  0  -0.312854  -0.511207  0  2.048721  0
O  O85  1  0.43718891  0.32879794  0.65921382  1  -1.11516  0  -0.337022  -0.479551  0  2.238298  0
O  O86  1  0.66723838  0.72767146  0.43504011  1  -1.152339  0  -0.313108  -0.515809  0  2.051937  0
O  O87  1  0.55680268  0.70466117  0.36611956  1  -1.116126  0  -0.335426  -0.478212  0  2.224788  0
