# generated using pymatgen
data_AlH11C14O5
_symmetry_space_group_name_H-M   'P 1'
_cell_length_a   6.59165098
_cell_length_b   14.94471217
_cell_length_c   15.31364188
_cell_angle_alpha   89.97936094
_cell_angle_beta   90.40641331
_cell_angle_gamma   90.08107515
_symmetry_Int_Tables_number   1
_chemical_formula_structural   AlH11C14O5
_chemical_formula_sum   'Al4 H44 C56 O20'
_cell_volume   1508.51230934
_cell_formula_units_Z   4
loop_
 _symmetry_equiv_pos_site_id
 _symmetry_equiv_pos_as_xyz
  1  'x, y, z'
loop_
 _atom_site_type_symbol
 _atom_site_label
 _atom_site_symmetry_multiplicity
 _atom_site_fract_x
 _atom_site_fract_y
 _atom_site_fract_z
 _atom_site_occupancy
 _atom_site_pbe_bader_charge
 _atom_site_pbe_bader_spin_density
 _atom_site_pbe_cm5_charge
 _atom_site_pbe_ddec_charge
 _atom_site_pbe_ddec_spin_density
 _atom_site_pbe_ddec_sum_bond_order
 _atom_site_pbe_magmom
Al  Al0  1  0.00162492  0.99724575  0.50565710  1  2.501429  0  0.396583  1.639395  0  2.577248  0
Al  Al1  1  0.50253921  0.99888731  0.49235665  1  2.499489  0  0.399627  1.633298  0  2.57972  0
Al  Al2  1  0.00197341  0.49816176  0.00621550  1  2.501248  0  0.395434  1.640487  0  2.581085  0
Al  Al3  1  0.50308904  0.49797674  0.99207857  1  2.49862  0  0.39904  1.637089  0  2.577221  0
H  H4  1  0.74593009  0.10669772  0.53937431  1  0.631602  0  0.351204  0.42872  0  0.864631  0
H  H5  1  0.26459680  0.89187436  0.54248492  1  0.630023  0  0.347342  0.421965  0  0.875916  0
H  H6  1  0.74321856  0.38949896  0.03973880  1  0.637984  0  0.350438  0.42748  0  0.867277  0
H  H7  1  0.26103913  0.60975505  0.03140429  1  0.652053  0  0.350103  0.426236  0  0.870844  0
H  H8  1  0.92868052  0.43428043  0.79099335  1  0.118013  0  0.106472  0.111609  0  1.040847  0
H  H9  1  0.70810218  0.44644211  0.66178857  1  0.035137  0  0.102405  0.099392  0  0.99191  0
H  H10  1  0.00570666  0.22141210  0.54457085  1  0.068959  0  0.103286  0.104577  0  1.033235  0
H  H11  1  0.75311351  0.34104567  0.53624721  1  0.062925  0  0.098551  0.095504  0  1.02282  0
H  H12  1  0.42324361  0.57090830  0.19381229  1  0.090212  0  0.105072  0.107812  0  1.049245  0
H  H13  1  0.15932135  0.57206756  0.30536919  1  0.052269  0  0.104327  0.105508  0  0.981026  0
H  H14  1  0.44701775  0.79530875  0.43209248  1  0.084398  0  0.10604  0.10946  0  1.044019  0
H  H15  1  0.17336632  0.68437654  0.42625455  1  0.055794  0  0.100373  0.096753  0  1.014945  0
H  H16  1  0.09524973  0.57136339  0.80606525  1  0.106472  0  0.109082  0.114749  0  1.042474  0
H  H17  1  0.34944059  0.56932864  0.69044529  1  0.072564  0  0.103798  0.102531  0  0.989955  0
H  H18  1  0.03617107  0.78107975  0.55597682  1  0.068692  0  0.104587  0.104162  0  1.040211  0
H  H19  1  0.31648747  0.67311227  0.56284690  1  0.070937  0  0.09904  0.094307  0  1.020783  0
H  H20  1  0.00507059  0.27627099  0.04548000  1  0.067543  0  0.103464  0.104854  0  1.033213  0
H  H21  1  0.74024126  0.16142000  0.03963762  1  0.070118  0  0.097653  0.094879  0  1.026315  0
H  H22  1  0.91056134  0.06910965  0.29553061  1  0.11215  0  0.109342  0.118427  0  1.03362  0
H  H23  1  0.68380018  0.06032859  0.16798768  1  0.047069  0  0.103406  0.101862  0  0.985223  0
H  H24  1  0.54814446  0.07271602  0.81839479  1  0.029629  0  0.090574  0.121161  0  1.014085  0
H  H25  1  0.57637395  0.07058651  0.70320131  1  0.089788  0  0.097306  0.141668  0  1.041301  0
H  H26  1  0.71462854  0.14833680  0.76693696  1  0.06616  0  0.099147  0.143127  0  0.981922  0
H  H27  1  0.67770980  0.26303755  0.88409804  1  0.042945  0  0.101831  0.148749  0  0.976595  0
H  H28  1  0.47008511  0.27340740  0.95568694  1  0.067277  0  0.095025  0.131343  0  1.026826  0
H  H29  1  0.53973590  0.16664259  0.91580836  1  0.053322  0  0.088434  0.115563  0  1.027761  0
H  H30  1  0.05060217  0.93181114  0.18985595  1  0.031463  0  0.089356  0.120671  0  1.017327  0
H  H31  1  0.08558885  0.92438361  0.30482371  1  0.106217  0  0.100615  0.147241  0  1.035019  0
H  H32  1  0.21794159  0.85153390  0.23516266  1  0.05398  0  0.095796  0.139342  0  0.996814  0
H  H33  1  0.19471777  0.74066204  0.12539016  1  0.07078  0  0.095332  0.133114  0  1.004428  0
H  H34  1  0.99633081  0.72439469  0.04760171  1  0.03843  0  0.095414  0.133332  0  1.021523  0
H  H35  1  0.05510922  0.83313502  0.08611789  1  0.023156  0  0.093472  0.129321  0  1.00135  0
H  H36  1  0.44677347  0.91951982  0.81314922  1  0.023369  0  0.090941  0.12128  0  1.01434  0
H  H37  1  0.43600321  0.92640825  0.69763417  1  0.05287  0  0.09654  0.137271  0  1.043735  0
H  H38  1  0.28753247  0.84658140  0.75344637  1  0.05066  0  0.097556  0.141891  0  0.992571  0
H  H39  1  0.31160665  0.73292851  0.87087107  1  0.070674  0  0.098514  0.143675  0  0.993258  0
H  H40  1  0.50873722  0.71645248  0.94815922  1  0.063467  0  0.094564  0.131584  0  1.030382  0
H  H41  1  0.45053892  0.82572006  0.91105476  1  0.042401  0  0.089832  0.120926  0  1.011385  0
H  H42  1  0.53044411  0.33231562  0.41849087  1  0.022937  0  0.090918  0.120647  0  1.020463  0
H  H43  1  0.46576231  0.22445698  0.45762004  1  0.044835  0  0.095184  0.131942  0  1.02727  0
H  H44  1  0.67275769  0.23755543  0.38606458  1  0.053571  0  0.101303  0.146895  0  0.97934  0
H  H45  1  0.70273442  0.35721275  0.27800564  1  0.045516  0  0.098301  0.141478  0  0.984304  0
H  H46  1  0.57007449  0.42834460  0.20546761  1  0.076069  0  0.09606  0.139249  0  1.041955  0
H  H47  1  0.52060401  0.43274690  0.31903751  1  0.027842  0  0.092733  0.127869  0  1.004976  0
C  C48  1  0.24092914  0.10974624  0.38395750  1  1.556549  0  0.271558  0.651427  0  4.082035  0
C  C49  1  0.25904638  0.11305000  0.61467170  1  1.567032  0  0.268179  0.656104  0  4.074349  0
C  C50  1  0.75240144  0.88225562  0.61387271  1  1.561118  0  0.268508  0.657942  0  4.064605  0
C  C51  1  0.75247393  0.88813077  0.38244014  1  1.545792  0  0.271908  0.653775  0  4.070266  0
C  C52  1  0.25814727  0.38426231  0.11560330  1  1.555994  0  0.269135  0.658541  0  4.074046  0
C  C53  1  0.24280046  0.38673417  0.88374249  1  1.53729  0  0.271251  0.652505  0  4.08036  0
C  C54  1  0.75565360  0.60893333  0.88371874  1  1.548918  0  0.270517  0.650542  0  4.082547  0
C  C55  1  0.75221754  0.61434058  0.11269980  1  1.552072  0  0.267272  0.653582  0  4.076571  0
C  C56  1  0.23938543  0.31491947  0.81560878  1  -0.034784  0  -0.011549  -0.150706  0  3.916047  0
C  C57  1  0.09855605  0.32004999  0.74407326  1  -0.012773  0  -0.003234  0.055382  0  3.981377  0
C  C58  1  0.38489381  0.24747683  0.82054110  1  -0.000344  0  0.003642  0.106955  0  3.900358  0
C  C59  1  0.94728314  0.38762528  0.73739890  1  -0.056769  0  -0.091514  -0.129717  0  3.969633  0
C  C60  1  0.82291082  0.39403775  0.66501440  1  -0.010512  0  -0.092032  -0.076495  0  4.037229  0
C  C61  1  0.26307929  0.18568470  0.68212905  1  -0.039903  0  -0.012634  -0.150928  0  3.904921  0
C  C62  1  0.40033755  0.18277224  0.75191572  1  0.040189  0  0.00313  0.109333  0  3.896043  0
C  C63  1  0.11439738  0.25553764  0.67504817  1  -0.011867  0  -0.00406  0.057546  0  3.982039  0
C  C64  1  0.98832468  0.26642555  0.59985037  1  -0.03689  0  -0.098279  -0.142267  0  3.988281  0
C  C65  1  0.84666752  0.33405877  0.59479929  1  -0.054589  0  -0.095986  -0.083745  0  4.045881  0
C  C66  1  0.74483197  0.68672083  0.18009370  1  -0.043982  0  -0.014329  -0.151255  0  3.919072  0
C  C67  1  0.58989479  0.68492121  0.24538617  1  -0.008563  0  -0.005951  0.051061  0  3.984841  0
C  C68  1  0.89308857  0.75321913  0.17935499  1  0.042601  0  0.002268  0.10427  0  3.904154  0
C  C69  1  0.43070595  0.62038690  0.24552566  1  0.006115  0  -0.097756  -0.141746  0  3.989229  0
C  C70  1  0.28249393  0.62081131  0.30848650  1  -0.079493  0  -0.092658  -0.079813  0  4.040134  0
C  C71  1  0.75486970  0.81699990  0.31327772  1  0.000865  0  -0.009927  -0.148373  0  3.890387  0
C  C72  1  0.90245186  0.81792330  0.24832136  1  -0.019034  0  0.004468  0.11029  0  3.9003  0
C  C73  1  0.59544053  0.75106368  0.31343080  1  -0.03842  0  -0.003258  0.054682  0  3.971076  0
C  C74  1  0.44420909  0.74688031  0.37932828  1  -0.012422  0  -0.092568  -0.130706  0  3.964471  0
C  C75  1  0.29040526  0.68432016  0.37636289  1  -0.053839  0  -0.093966  -0.083567  0  4.040496  0
C  C76  1  0.76296792  0.68144512  0.81645086  1  -0.05741  0  -0.012004  -0.151368  0  3.915238  0
C  C77  1  0.91742884  0.67995050  0.75089049  1  -0.008352  0  -0.003867  0.052843  0  3.979759  0
C  C78  1  0.61326357  0.74721327  0.81715044  1  0.050384  0  0.003692  0.105488  0  3.905445  0
C  C79  1  0.08062265  0.61757511  0.75178568  1  -0.010039  0  -0.091822  -0.134578  0  3.973538  0
C  C80  1  0.22394778  0.61668451  0.68680537  1  -0.063279  0  -0.090057  -0.072561  0  4.029563  0
C  C81  1  0.74863513  0.81039780  0.68226984  1  -0.028654  0  -0.012056  -0.148781  0  3.896211  0
C  C82  1  0.60386069  0.81211279  0.74833894  1  0.002898  0  0.002386  0.107608  0  3.902316  0
C  C83  1  0.90626157  0.74399784  0.68112037  1  -0.006253  0  -0.004335  0.056884  0  3.978501  0
C  C84  1  0.05024291  0.73724022  0.61241398  1  -0.066658  0  -0.098018  -0.145939  0  3.986937  0
C  C85  1  0.20630539  0.67589229  0.61553388  1  -0.073936  0  -0.095686  -0.085515  0  4.042509  0
C  C86  1  0.26032829  0.31226854  0.18369823  1  -0.025289  0  -0.013294  -0.151079  0  3.908361  0
C  C87  1  0.11060621  0.24275076  0.17658723  1  0.003413  0  -0.003978  0.057198  0  3.981072  0
C  C88  1  0.39416403  0.31641686  0.25451597  1  0.031747  0  0.003093  0.109412  0  3.901746  0
C  C89  1  0.98386460  0.23251457  0.10149983  1  -0.070418  0  -0.097478  -0.139657  0  3.988263  0
C  C90  1  0.83542003  0.16753127  0.09781902  1  -0.074426  0  -0.099143  -0.090032  0  4.056158  0
C  C91  1  0.23515668  0.18286951  0.31707727  1  -0.022694  0  -0.010979  -0.151136  0  3.907962  0
C  C92  1  0.37961584  0.25096472  0.32257260  1  -0.008401  0  0.005277  0.109332  0  3.899773  0
C  C93  1  0.09181919  0.17898123  0.24617351  1  -0.017436  0  -0.003105  0.055849  0  3.976349  0
C  C94  1  0.93333116  0.11429850  0.24099798  1  -0.01711  0  -0.091638  -0.131442  0  3.964968  0
C  C95  1  0.80603548  0.10960300  0.16934029  1  -0.027797  0  -0.094109  -0.082218  0  4.045645  0
C  C96  1  0.56714242  0.11437945  0.75982191  1  -0.102059  0  -0.24171  -0.411281  0  3.952137  0
C  C97  1  0.52457788  0.23755984  0.89830741  1  -0.081556  0  -0.240233  -0.410925  0  3.971246  0
C  C98  1  0.07200981  0.88542538  0.24501201  1  -0.074996  0  -0.243691  -0.416394  0  3.951422  0
C  C99  1  0.04175052  0.76262013  0.10539823  1  -0.079266  0  -0.239049  -0.406404  0  3.959619  0
C  C100  1  0.43614787  0.88023944  0.75261210  1  -0.02583  0  -0.241853  -0.410668  0  3.953157  0
C  C101  1  0.46402257  0.75550574  0.89088960  1  -0.096657  0  -0.239881  -0.403543  0  3.955656  0
C  C102  1  0.51857287  0.26137774  0.40054709  1  -0.030021  0  -0.240157  -0.412402  0  3.97115  0
C  C103  1  0.55432559  0.38777887  0.26413155  1  -0.069635  0  -0.242853  -0.415351  0  3.956388  0
O  O104  1  0.07534298  0.08232672  0.41728447  1  -1.266488  0  -0.233751  -0.592888  0  2.37478  0
O  O105  1  0.42574705  0.08871935  0.57998616  1  -1.268015  0  -0.241072  -0.610051  0  2.377567  0
O  O106  1  0.58762432  0.90287069  0.57430283  1  -1.264306  0  -0.241711  -0.609833  0  2.360403  0
O  O107  1  0.91661900  0.90714073  0.42297902  1  -1.264779  0  -0.23302  -0.588146  0  2.360396  0
O  O108  1  0.92384746  0.91870481  0.59933274  1  -1.257459  0  -0.236937  -0.594131  0  2.360697  0
O  O109  1  0.58303284  0.92560396  0.39732096  1  -1.254619  0  -0.228583  -0.574857  0  2.362031  0
O  O110  1  0.41494992  0.07897489  0.40358346  1  -1.254286  0  -0.225025  -0.567334  0  2.36623  0
O  O111  1  0.08585140  0.08005575  0.59584770  1  -1.253729  0  -0.236501  -0.595312  0  2.362647  0
O  O112  1  0.75173905  0.05309174  0.50369429  1  -1.43691  0  -0.449668  -0.99167  0  2.225168  0
O  O113  1  0.25395712  0.94283406  0.50329281  1  -1.438749  0  -0.448086  -0.986686  0  2.210742  0
O  O114  1  0.08536104  0.41775785  0.09726849  1  -1.261359  0  -0.235786  -0.596528  0  2.368922  0
O  O115  1  0.41603185  0.41894820  0.90272211  1  -1.246671  0  -0.226368  -0.571007  0  2.368723  0
O  O116  1  0.58413369  0.57289708  0.89766689  1  -1.248897  0  -0.227229  -0.567759  0  2.349267  0
O  O117  1  0.92423297  0.57847255  0.09898246  1  -1.250426  0  -0.233819  -0.584817  0  2.351171  0
O  O118  1  0.91930764  0.58708876  0.92310294  1  -1.271831  0  -0.234376  -0.597621  0  2.388569  0
O  O119  1  0.58776555  0.59285588  0.07316195  1  -1.268002  0  -0.242279  -0.61931  0  2.389397  0
O  O120  1  0.42443381  0.40749237  0.07985677  1  -1.266256  0  -0.239877  -0.60731  0  2.367077  0
O  O121  1  0.07695927  0.41145582  0.91863696  1  -1.260318  0  -0.234609  -0.591799  0  2.359915  0
O  O122  1  0.75130550  0.44289482  0.00378892  1  -1.442645  0  -0.449056  -0.98931  0  2.219264  0
O  O123  1  0.25381718  0.55246035  0.00182730  1  -1.457935  0  -0.449255  -0.991987  0  2.224949  0
