# generated using pymatgen
data_LaH13C18N3O8
_symmetry_space_group_name_H-M   'P 1'
_cell_length_a   7.08511312
_cell_length_b   13.72909782
_cell_length_c   20.27902976
_cell_angle_alpha   92.90154521
_cell_angle_beta   89.99996944
_cell_angle_gamma   104.95352689
_symmetry_Int_Tables_number   1
_chemical_formula_structural   LaH13C18N3O8
_chemical_formula_sum   'La4 H52 C72 N12 O32'
_cell_volume   1903.16768560
_cell_formula_units_Z   4
loop_
 _symmetry_equiv_pos_site_id
 _symmetry_equiv_pos_as_xyz
  1  'x, y, z'
loop_
 _atom_site_type_symbol
 _atom_site_label
 _atom_site_symmetry_multiplicity
 _atom_site_fract_x
 _atom_site_fract_y
 _atom_site_fract_z
 _atom_site_occupancy
 _atom_site_pbe_bader_charge
 _atom_site_pbe_bader_spin_density
 _atom_site_pbe_cm5_charge
 _atom_site_pbe_ddec_charge
 _atom_site_pbe_ddec_spin_density
 _atom_site_pbe_ddec_sum_bond_order
 _atom_site_pbe_magmom
La  La0  1  0.26032793  0.88829319  0.95784390  1  2.259377  0  1.400392  1.915442  0  2.337719  0
La  La1  1  0.37216119  0.11175589  0.54210954  1  2.259406  0  1.400321  1.91542  0  2.337253  0
La  La2  1  0.73967522  0.11170995  0.04215492  1  2.259571  0  1.400385  1.915441  0  2.337804  0
La  La3  1  0.62783507  0.88824197  0.45789009  1  2.259346  0  1.400325  1.915443  0  2.337211  0
H  H4  1  0.88120758  0.87750365  0.84690188  1  0.629662  0  0.288664  0.346752  0  1.012355  0
H  H5  1  0.00387901  0.12272091  0.65312495  1  0.647229  0  0.288365  0.345992  0  1.013311  0
H  H6  1  0.11879773  0.12250101  0.15309895  1  0.629745  0  0.288629  0.346706  0  1.012411  0
H  H7  1  0.99612252  0.87727619  0.34687269  1  0.64721  0  0.288367  0.345982  0  1.013339  0
H  H8  1  0.79932948  0.83772608  0.91490372  1  0.661891  0  0.297873  0.392639  0  0.945898  0
H  H9  1  0.96171431  0.16244085  0.58511333  1  0.64509  0  0.297336  0.391602  0  0.9473  0
H  H10  1  0.20067357  0.16227405  0.08509598  1  0.661874  0  0.29785  0.392603  0  0.945951  0
H  H11  1  0.03828581  0.83755625  0.41488529  1  0.645103  0  0.297358  0.391618  0  0.947247  0
H  H12  1  0.06996362  0.65327818  0.91196203  1  0.612547  0  0.318013  0.398788  0  0.90658  0
H  H13  1  0.41704428  0.34685534  0.58807641  1  0.612751  0  0.31851  0.398865  0  0.906361  0
H  H14  1  0.93004130  0.34672570  0.08803336  1  0.612465  0  0.317958  0.398726  0  0.90672  0
H  H15  1  0.58295943  0.65314329  0.41192571  1  0.612677  0  0.318503  0.398844  0  0.906387  0
H  H16  1  0.00381908  0.74223389  0.87996114  1  0.645272  0  0.292446  0.375223  0  0.971809  0
H  H17  1  0.26191825  0.25787224  0.62001515  1  0.623569  0  0.292143  0.373373  0  0.974348  0
H  H18  1  0.99618557  0.25777226  0.12003679  1  0.645345  0  0.292454  0.375223  0  0.971792  0
H  H19  1  0.73808442  0.74212714  0.37998502  1  0.62355  0  0.292128  0.373336  0  0.974382  0
H  H20  1  0.84305300  0.44502720  0.00825158  1  0.061089  0  0.106956  0.071945  0  1.030803  0
H  H21  1  0.39811117  0.55510920  0.49177765  1  0.084258  0  0.106734  0.071323  0  1.030783  0
H  H22  1  0.15693979  0.55497217  0.99174761  1  0.060621  0  0.106973  0.071937  0  1.030821  0
H  H23  1  0.60189140  0.44488717  0.50822637  1  0.084213  0  0.106743  0.071361  0  1.030643  0
H  H24  1  0.72685176  0.47461314  0.89741044  1  0.103372  0  0.108705  0.119397  0  1.003752  0
H  H25  1  0.25251488  0.52519217  0.60265017  1  0.112543  0  0.108723  0.119266  0  1.00382  0
H  H26  1  0.27314921  0.52538849  0.10258882  1  0.103366  0  0.108704  0.119349  0  1.003819  0
H  H27  1  0.74746945  0.47480721  0.39735198  1  0.112599  0  0.108769  0.119288  0  1.003716  0
H  H28  1  0.57829758  0.62075115  0.88609714  1  0.096466  0  0.113508  0.114999  0  0.975336  0
H  H29  1  0.95780221  0.37902237  0.61387891  1  0.070089  0  0.113524  0.115022  0  0.975055  0
H  H30  1  0.42169907  0.37924746  0.11390153  1  0.096569  0  0.113509  0.114982  0  0.975321  0
H  H31  1  0.04218239  0.62097475  0.38612267  1  0.070197  0  0.11357  0.115065  0  0.975075  0
H  H32  1  0.78307081  0.94462311  0.18334820  1  0.064981  0  0.113486  0.113577  0  0.996016  0
H  H33  1  0.83837700  0.05544625  0.31661003  1  0.13191  0  0.113444  0.113477  0  0.995605  0
H  H34  1  0.21693299  0.05537852  0.81665106  1  0.065067  0  0.113462  0.11352  0  0.99593  0
H  H35  1  0.16159811  0.94455163  0.68339453  1  0.132213  0  0.113443  0.11357  0  0.995505  0
H  H36  1  0.61008082  0.84466035  0.27589558  1  0.141156  0  0.112333  0.130081  0  1.028361  0
H  H37  1  0.76561634  0.15545951  0.22404936  1  0.109197  0  0.112112  0.129717  0  1.028578  0
H  H38  1  0.38992129  0.15534355  0.72410424  1  0.141379  0  0.112347  0.130072  0  1.028364  0
H  H39  1  0.23436375  0.84453988  0.77595427  1  0.109233  0  0.112177  0.129759  0  1.028471  0
H  H40  1  0.49780759  0.65685341  0.25905204  1  0.086735  0  0.10906  0.079179  0  0.988554  0
H  H41  1  0.84124292  0.34328744  0.24088666  1  0.08931  0  0.109056  0.079051  0  0.988926  0
H  H42  1  0.50220120  0.34314974  0.74094826  1  0.086664  0  0.109057  0.079149  0  0.988577  0
H  H43  1  0.15876540  0.65671194  0.75911549  1  0.089242  0  0.109036  0.078988  0  0.988947  0
H  H44  1  0.72374228  0.20968536  0.89617166  1  0.171646  0  0.118257  0.123166  0  1.050217  0
H  H45  1  0.51345249  0.79047324  0.60405491  1  0.16835  0  0.117976  0.122665  0  1.050504  0
H  H46  1  0.27627083  0.79032079  0.10382380  1  0.171606  0  0.118238  0.123121  0  1.050283  0
H  H47  1  0.48653673  0.20952465  0.39595015  1  0.168221  0  0.117949  0.122637  0  1.050503  0
H  H48  1  0.93266072  0.33408216  0.82344334  1  0.075338  0  0.115166  0.124532  0  0.977744  0
H  H49  1  0.59795126  0.66611148  0.67681806  1  0.08032  0  0.115136  0.124699  0  0.977089  0
H  H50  1  0.06735012  0.66591945  0.17655000  1  0.075669  0  0.115146  0.12448  0  0.977756  0
H  H51  1  0.40204219  0.33388640  0.32318601  1  0.080308  0  0.115153  0.124679  0  0.977217  0
H  H52  1  0.02126196  0.27009713  0.71231663  1  0.072953  0  0.114702  0.073579  0  1.003594  0
H  H53  1  0.75143163  0.73024963  0.78777476  1  0.069612  0  0.114551  0.073637  0  1.004091  0
H  H54  1  0.97874700  0.72990072  0.28767857  1  0.073012  0  0.114681  0.073575  0  1.003507  0
H  H55  1  0.24856625  0.26975428  0.21222802  1  0.069636  0  0.114538  0.073591  0  1.004107  0
C  C56  1  0.78665110  0.51066018  0.00175409  1  0.531193  0  0.039018  0.086522  0  4.025516  0
C  C57  1  0.27612368  0.48941439  0.49824838  1  0.507407  0  0.039263  0.087501  0  4.023376  0
C  C58  1  0.21334630  0.48933995  0.99824660  1  0.531274  0  0.038961  0.086478  0  4.025507  0
C  C59  1  0.72387927  0.51058273  0.50175468  1  0.507501  0  0.039209  0.087409  0  4.023271  0
C  C60  1  0.72267557  0.52704846  0.93922314  1  -0.064341  0  -0.088329  -0.13997  0  3.996746  0
C  C61  1  0.19592991  0.47285009  0.56079805  1  -0.090938  0  -0.088578  -0.140437  0  3.996024  0
C  C62  1  0.27732221  0.47295242  0.06077708  1  -0.064264  0  -0.088297  -0.139854  0  3.996689  0
C  C63  1  0.80406316  0.52714702  0.43920402  1  -0.090762  0  -0.088634  -0.140446  0  3.996092  0
C  C64  1  0.63939760  0.60760585  0.93321371  1  -0.037668  0  -0.066999  -0.057676  0  3.960612  0
C  C65  1  0.03205213  0.39226830  0.56675626  1  0.023308  0  -0.066907  -0.057113  0  3.959696  0
C  C66  1  0.36060148  0.39239199  0.06678198  1  -0.038  0  -0.066969  -0.057666  0  3.960595  0
C  C67  1  0.96793557  0.60772655  0.43324525  1  0.023464  0  -0.06698  -0.05726  0  3.95987  0
C  C68  1  0.62121329  0.66745442  0.98953512  1  -0.056416  0  -0.00886  -0.108165  0  3.929985  0
C  C69  1  0.95398752  0.33251534  0.51040738  1  -0.075835  0  -0.008347  -0.108977  0  3.928977  0
C  C70  1  0.37878984  0.33254872  0.01046271  1  -0.056297  0  -0.008987  -0.108289  0  3.93029  0
C  C71  1  0.04601147  0.66747951  0.48959413  1  -0.076137  0  -0.008327  -0.108847  0  3.928674  0
C  C72  1  0.69636173  0.64661483  0.05008564  1  0.577307  0  0.131913  0.170471  0  3.969684  0
C  C73  1  0.04997149  0.35346982  0.44986274  1  0.593524  0  0.131427  0.170912  0  3.966523  0
C  C74  1  0.30364668  0.35338757  0.94991611  1  0.577382  0  0.132016  0.17063  0  3.969568  0
C  C75  1  0.95002854  0.64652428  0.55013923  1  0.593524  0  0.13141  0.17087  0  3.966695  0
C  C76  1  0.68213506  0.70671760  0.11245162  1  0.600054  0  0.129265  0.164965  0  3.964367  0
C  C77  1  0.97566803  0.29335777  0.38747034  1  0.50871  0  0.129649  0.165419  0  3.964724  0
C  C78  1  0.31786761  0.29328176  0.88754658  1  0.600018  0  0.12929  0.165061  0  3.964361  0
C  C79  1  0.02433417  0.70663784  0.61253119  1  0.508428  0  0.129714  0.165395  0  3.96474  0
C  C80  1  0.75509961  0.81268532  0.11817524  1  -0.11985  0  -0.008133  -0.125198  0  3.921103  0
C  C81  1  0.94251253  0.18739335  0.38178137  1  -0.01536  0  -0.008623  -0.125864  0  3.921705  0
C  C82  1  0.24490880  0.18731707  0.88182454  1  -0.119807  0  -0.008216  -0.125421  0  3.921391  0
C  C83  1  0.05747631  0.81260377  0.61821972  1  -0.014899  0  -0.008645  -0.125754  0  3.921586  0
C  C84  1  0.72910552  0.86278287  0.17790999  1  0.023842  0  -0.068681  -0.050516  0  3.961147  0
C  C85  1  0.86642473  0.13730375  0.32204336  1  -0.104654  0  -0.068094  -0.049905  0  3.960031  0
C  C86  1  0.27090337  0.13722330  0.82209040  1  0.023768  0  -0.068654  -0.050434  0  3.961104  0
C  C87  1  0.13355743  0.86269412  0.67795972  1  -0.104958  0  -0.06808  -0.050101  0  3.960133  0
C  C88  1  0.63619832  0.80730937  0.22949453  1  -0.016436  0  -0.089292  -0.137319  0  3.978782  0
C  C89  1  0.82917947  0.19280695  0.27043654  1  0.028103  0  -0.089495  -0.137294  0  3.979839  0
C  C90  1  0.36380764  0.19269378  0.77050577  1  -0.017019  0  -0.08932  -0.13729  0  3.978822  0
C  C91  1  0.17081549  0.80719395  0.72956566  1  0.027943  0  -0.089601  -0.137298  0  3.979828  0
C  C92  1  0.57128441  0.70264569  0.21938798  1  0.469241  0  0.041035  0.088754  0  4.012989  0
C  C93  1  0.86890511  0.29746450  0.28054090  1  0.479033  0  0.040946  0.089177  0  4.015258  0
C  C94  1  0.42872193  0.29735821  0.78061185  1  0.469512  0  0.041057  0.08879  0  4.012983  0
C  C95  1  0.13109539  0.70253337  0.71945873  1  0.479088  0  0.041073  0.089328  0  4.01529  0
C  C96  1  0.50869216  0.74512088  0.98303681  1  1.576179  0  0.207441  0.580191  0  4.223256  0
C  C97  1  0.76373298  0.25489406  0.51692968  1  1.573733  0  0.207277  0.581049  0  4.220413  0
C  C98  1  0.49130627  0.25487848  0.01696041  1  1.576196  0  0.207489  0.58021  0  4.223131  0
C  C99  1  0.23626536  0.74510230  0.48307188  1  1.573659  0  0.207332  0.581123  0  4.220396  0
C  C100  1  0.86481701  0.87315020  0.06415995  1  1.59983  0  0.239885  0.648782  0  4.162316  0
C  C101  1  0.99156040  0.12688608  0.43582988  1  1.613211  0  0.240711  0.649565  0  4.162872  0
C  C102  1  0.13518820  0.12685143  0.93583931  1  1.599905  0  0.23989  0.6488  0  4.162374  0
C  C103  1  0.00843446  0.87311179  0.56417221  1  1.61292  0  0.240679  0.649464  0  4.162879  0
C  C104  1  0.76258309  0.05353532  0.76378997  1  0.581508  0  0.138688  0.174824  0  3.936927  0
C  C105  1  0.70925143  0.94679241  0.73627210  1  0.565895  0  0.139278  0.173988  0  3.937794  0
C  C106  1  0.23741083  0.94646631  0.23620831  1  0.581555  0  0.138638  0.174739  0  3.936953  0
C  C107  1  0.29074287  0.05320999  0.26372818  1  0.565889  0  0.139313  0.174147  0  3.937552  0
C  C108  1  0.70623377  0.08271554  0.82714009  1  0.022698  0  -0.000436  -0.110125  0  3.878927  0
C  C109  1  0.62361344  0.91752578  0.67294572  1  -0.058207  0  -0.000854  -0.109973  0  3.877353  0
C  C110  1  0.29376410  0.91728835  0.17285826  1  0.022951  0  -0.000413  -0.110223  0  3.87904  0
C  C111  1  0.37638179  0.08247284  0.32705542  1  -0.058254  0  -0.000887  -0.110035  0  3.877386  0
C  C112  1  0.76909391  0.18470576  0.84839758  1  -0.111227  0  -0.052579  -0.031758  0  3.916973  0
C  C113  1  0.58403458  0.81547641  0.65178444  1  -0.015545  0  -0.053156  -0.031888  0  3.917014  0
C  C114  1  0.23091308  0.81529661  0.15159775  1  -0.11166  0  -0.052641  -0.031783  0  3.9172  0
C  C115  1  0.41595887  0.18452147  0.34821913  1  -0.015646  0  -0.053086  -0.031796  0  3.916875  0
C  C116  1  0.88173909  0.25455220  0.80754755  1  0.077477  0  -0.076059  -0.11563  0  3.962879  0
C  C117  1  0.62679826  0.74567213  0.69266996  1  0.062507  0  -0.075568  -0.116202  0  3.962532  0
C  C118  1  0.11826931  0.74545017  0.19244828  1  0.077429  0  -0.076032  -0.115574  0  3.962964  0
C  C119  1  0.37320235  0.25432876  0.30733323  1  0.062662  0  -0.075551  -0.116167  0  3.962492  0
C  C120  1  0.93074314  0.21923173  0.74626197  1  0.458147  0  0.052964  0.10554  0  3.970665  0
C  C121  1  0.71152297  0.78110366  0.75387736  1  0.444291  0  0.053721  0.106657  0  3.971204  0
C  C122  1  0.06926516  0.78076762  0.25373278  1  0.457954  0  0.053073  0.10565  0  3.970652  0
C  C123  1  0.28847763  0.21889724  0.24612582  1  0.444691  0  0.053697  0.106721  0  3.971053  0
C  C124  1  0.56885841  0.01409819  0.87145968  1  1.57563  0  0.226177  0.621841  0  4.151489  0
C  C125  1  0.55487785  0.98606142  0.62855778  1  1.576211  0  0.226048  0.621278  0  4.150647  0
C  C126  1  0.43114548  0.98590646  0.12853919  1  1.575436  0  0.226213  0.622047  0  4.151091  0
C  C127  1  0.44511625  0.01393493  0.37144279  1  1.576205  0  0.226032  0.62117  0  4.150847  0
N  N128  1  0.77870593  0.56958151  0.05585101  1  -1.189067  0  -0.320866  -0.301197  0  3.303464  0
N  N129  1  0.20923581  0.43056064  0.44412453  1  -1.178312  0  -0.320593  -0.301285  0  3.301731  0
N  N130  1  0.22129608  0.43041936  0.94414774  1  -1.189118  0  -0.320839  -0.301209  0  3.303281  0
N  N131  1  0.79076507  0.56943800  0.55587907  1  -1.178372  0  -0.320517  -0.301185  0  3.301978  0
N  N132  1  0.59192055  0.65284407  0.16235281  1  -1.185685  0  -0.316511  -0.300629  0  3.309259  0
N  N133  1  0.93932388  0.34724756  0.33758143  1  -1.19153  0  -0.316383  -0.301065  0  3.310949  0
N  N134  1  0.40808363  0.34715833  0.83764795  1  -1.185626  0  -0.316543  -0.300676  0  3.309292  0
N  N135  1  0.06067879  0.65275182  0.66242071  1  -1.191543  0  -0.316476  -0.301124  0  3.311168  0
N  N136  1  0.87550958  0.12160709  0.72525817  1  -1.228024  0  -0.302316  -0.281138  0  3.399934  0
N  N137  1  0.75414054  0.87874081  0.77481252  1  -1.233074  0  -0.303122  -0.281568  0  3.402323  0
N  N138  1  0.12449449  0.87839227  0.27473954  1  -1.227915  0  -0.302336  -0.281163  0  3.400042  0
N  N139  1  0.24585696  0.12126235  0.22518876  1  -1.23333  0  -0.303138  -0.281649  0  3.40227  0
O  O140  1  0.35105495  0.73733872  0.01461569  1  -1.188872  0  -0.346282  -0.583746  0  2.201051  0
O  O141  1  0.61397316  0.26255906  0.48524489  1  -1.185995  0  -0.346221  -0.583906  0  2.200388  0
O  O142  1  0.64894998  0.26266517  0.98538216  1  -1.18894  0  -0.346328  -0.583802  0  2.201083  0
O  O143  1  0.38602415  0.73743806  0.51475719  1  -1.185902  0  -0.346172  -0.5839  0  2.200459  0
O  O144  1  0.56953009  0.81523260  0.94284283  1  -1.192885  0  -0.336667  -0.590451  0  2.244711  0
O  O145  1  0.75432242  0.18497112  0.55728021  1  -1.194129  0  -0.33714  -0.591386  0  2.245275  0
O  O146  1  0.43046899  0.18476525  0.05715384  1  -1.192801  0  -0.336635  -0.590416  0  2.244699  0
O  O147  1  0.24567582  0.81502221  0.44271878  1  -1.194011  0  -0.337253  -0.591503  0  2.245195  0
O  O148  1  0.98506443  0.83628240  0.03113972  1  -1.201807  0  -0.385341  -0.61489  0  2.278985  0
O  O149  1  0.14881224  0.16362983  0.46879884  1  -1.204417  0  -0.386266  -0.615707  0  2.279204  0
O  O150  1  0.01493937  0.16371923  0.96885905  1  -1.201785  0  -0.385291  -0.614834  0  2.278983  0
O  O151  1  0.85118365  0.83636727  0.53120126  1  -1.204449  0  -0.386251  -0.61568  0  2.27912  0
O  O152  1  0.83341758  0.95834702  0.05546623  1  -1.201528  0  -0.392787  -0.635325  0  2.339685  0
O  O153  1  0.87469352  0.04177576  0.44456331  1  -1.208113  0  -0.392293  -0.635491  0  2.339054  0
O  O154  1  0.16658405  0.04165310  0.94453298  1  -1.201496  0  -0.39282  -0.635315  0  2.339695  0
O  O155  1  0.12530237  0.95822135  0.55543827  1  -1.207966  0  -0.392307  -0.635478  0  2.339097  0
O  O156  1  0.58888769  0.03280871  0.93455963  1  -1.217333  0  -0.406374  -0.674786  0  2.317058  0
O  O157  1  0.55639438  0.96736911  0.56546287  1  -1.214194  0  -0.406904  -0.674506  0  2.316317  0
O  O158  1  0.41111838  0.96719745  0.06543929  1  -1.217259  0  -0.406394  -0.674861  0  2.316915  0
O  O159  1  0.44360113  0.03262725  0.43453819  1  -1.214313  0  -0.406913  -0.67444  0  2.316339  0
O  O160  1  0.43013849  0.94372903  0.84747408  1  -1.178948  0  -0.340204  -0.573548  0  2.205538  0
O  O161  1  0.48639047  0.05638903  0.65251381  1  -1.178998  0  -0.33931  -0.572505  0  2.20676  0
O  O162  1  0.56986334  0.05627713  0.15252533  1  -1.178886  0  -0.34017  -0.573611  0  2.205472  0
O  O163  1  0.51360543  0.94360808  0.34748679  1  -1.179012  0  -0.339293  -0.572475  0  2.206894  0
O  O164  1  0.92222906  0.84972498  0.88829350  1  -1.308157  0  -0.601958  -0.806481  0  2.136143  0
O  O165  1  0.07262016  0.15041227  0.61170935  1  -1.306657  0  -0.600916  -0.804261  0  2.136881  0
O  O166  1  0.07777653  0.15027742  0.11170727  1  -1.308259  0  -0.601896  -0.806402  0  2.136197  0
O  O167  1  0.92738099  0.84958407  0.38828776  1  -1.30664  0  -0.60093  -0.804224  0  2.136826  0
O  O168  1  0.11898506  0.71536440  0.88914100  1  -1.260295  0  -0.607324  -0.782358  0  1.998283  0
O  O169  1  0.40395405  0.28470325  0.61082382  1  -1.240623  0  -0.607446  -0.780653  0  2.000622  0
O  O170  1  0.88101959  0.28464176  0.11085643  1  -1.260237  0  -0.607276  -0.782264  0  1.998385  0
O  O171  1  0.59605004  0.71529614  0.38917931  1  -1.240536  0  -0.607427  -0.78058  0  2.000761  0
