# generated using pymatgen
data_SnH11C5O2
_symmetry_space_group_name_H-M   'P 1'
_cell_length_a   7.93407681
_cell_length_b   7.93408508
_cell_length_c   12.93768422
_cell_angle_alpha   74.39669897
_cell_angle_beta   74.39598887
_cell_angle_gamma   73.73231323
_symmetry_Int_Tables_number   1
_chemical_formula_structural   SnH11C5O2
_chemical_formula_sum   'Sn4 H44 C20 O8'
_cell_volume   736.30403006
_cell_formula_units_Z   4
loop_
 _symmetry_equiv_pos_site_id
 _symmetry_equiv_pos_as_xyz
  1  'x, y, z'
loop_
 _atom_site_type_symbol
 _atom_site_label
 _atom_site_symmetry_multiplicity
 _atom_site_fract_x
 _atom_site_fract_y
 _atom_site_fract_z
 _atom_site_occupancy
 _atom_site_hle17_bader_spin_density
 _atom_site_hle17_ddec_charge
 _atom_site_hle17_ddec_spin_density
 _atom_site_hle17_ddec_sum_bond_order
 _atom_site_hle17_magmom
 _atom_site_hse06_10hf_bader_spin_density
 _atom_site_hse06_10hf_ddec_charge
 _atom_site_hse06_10hf_ddec_spin_density
 _atom_site_hse06_10hf_ddec_sum_bond_order
 _atom_site_hse06_10hf_magmom
 _atom_site_hse06_bader_spin_density
 _atom_site_hse06_ddec_charge
 _atom_site_hse06_ddec_spin_density
 _atom_site_hse06_ddec_sum_bond_order
 _atom_site_hse06_magmom
 _atom_site_pbe_bader_spin_density
 _atom_site_pbe_cm5_charge
 _atom_site_pbe_ddec_charge
 _atom_site_pbe_ddec_spin_density
 _atom_site_pbe_ddec_sum_bond_order
 _atom_site_pbe_magmom
Sn  Sn0  1  0.79426260  0.57140727  0.79080645  1  0  1.36696  0  2.87955  0  0  1.238034  0  3.365795  0  0  1.27677  0  3.350805  0  0  0.519514  1.211362  0  3.375731  0
Sn  Sn1  1  0.57144924  0.79423098  0.29078666  1  0  1.366806  0  2.879388  0  0  1.237839  0  3.365756  0  0  1.27658  0  3.350773  0  0  0.519518  1.211167  0  3.375685  0
Sn  Sn2  1  0.20575519  0.42856814  0.20920304  1  0  1.366931  0  2.879538  0  0  1.237997  0  3.365815  0  0  1.276736  0  3.350827  0  0  0.519541  1.211316  0  3.375745  0
Sn  Sn3  1  0.42856855  0.20576585  0.70920375  1  0  1.366768  0  2.879331  0  0  1.237863  0  3.365563  0  0  1.276596  0  3.350584  0  0  0.519486  1.211196  0  3.37549  0
H  H4  1  0.19221829  0.02421546  0.98446515  1  0  0.109637  0  0.934668  0  0  0.125477  0  0.995385  0  0  0.127354  0  0.995401  0  0  0.106479  0.124135  0  0.995482  0
H  H5  1  0.02420592  0.19223065  0.48445108  1  0  0.109626  0  0.934729  0  0  0.125485  0  0.995445  0  0  0.127359  0  0.995458  0  0  0.10645  0.12412  0  0.995572  0
H  H6  1  0.80776319  0.97579181  0.01554741  1  0  0.109685  0  0.934627  0  0  0.125502  0  0.995346  0  0  0.127375  0  0.995366  0  0  0.106493  0.124159  0  0.995441  0
H  H7  1  0.97579419  0.80775785  0.51554218  1  0  0.109663  0  0.934649  0  0  0.125514  0  0.995349  0  0  0.127393  0  0.99536  0  0  0.106464  0.124159  0  0.995463  0
H  H8  1  0.12242179  0.93928242  0.89573414  1  0  0.109845  0  0.922172  0  0  0.12923  0  0.977414  0  0  0.130812  0  0.977741  0  0  0.107705  0.128125  0  0.977227  0
H  H9  1  0.93925671  0.12241676  0.39573765  1  0  0.109833  0  0.922385  0  0  0.129178  0  0.977706  0  0  0.130762  0  0.978028  0  0  0.107681  0.128075  0  0.97751  0
H  H10  1  0.87758337  0.06071299  0.10427102  1  0  0.109984  0  0.922264  0  0  0.129268  0  0.977568  0  0  0.13085  0  0.977894  0  0  0.107713  0.12816  0  0.977379  0
H  H11  1  0.06074017  0.87757975  0.60425248  1  0  0.109669  0  0.922347  0  0  0.129054  0  0.977606  0  0  0.130638  0  0.97793  0  0  0.107597  0.127951  0  0.977414  0
H  H12  1  0.47352711  0.66066655  0.93263081  1  0  0.158342  0  0.997742  0  0  0.176318  0  1.055562  0  0  0.179238  0  1.05585  0  0  0.086937  0.17422  0  1.055428  0
H  H13  1  0.66065860  0.47353653  0.43263037  1  0  0.158444  0  0.997716  0  0  0.176382  0  1.055556  0  0  0.179302  0  1.055846  0  0  0.086999  0.174286  0  1.055429  0
H  H14  1  0.52646402  0.33933803  0.06736667  1  0  0.158381  0  0.997672  0  0  0.176334  0  1.055529  0  0  0.179254  0  1.055817  0  0  0.08696  0.174237  0  1.055397  0
H  H15  1  0.33934064  0.52645608  0.56737161  1  0  0.158481  0  0.997675  0  0  0.176411  0  1.055527  0  0  0.179333  0  1.055813  0  0  0.086996  0.174315  0  1.055399  0
H  H16  1  0.47657508  0.47137930  0.88236064  1  0  0.153779  0  0.997792  0  0  0.175213  0  1.050757  0  0  0.177401  0  1.052234  0  0  0.087634  0.173618  0  1.049801  0
H  H17  1  0.47137603  0.47657055  0.38236633  1  0  0.153768  0  0.997784  0  0  0.175236  0  1.050696  0  0  0.177428  0  1.05217  0  0  0.087659  0.173642  0  1.049744  0
H  H18  1  0.52343425  0.52862012  0.11763154  1  0  0.153806  0  0.997745  0  0  0.175256  0  1.050687  0  0  0.177447  0  1.052161  0  0  0.087677  0.17366  0  1.049734  0
H  H19  1  0.52862169  0.52343419  0.61763774  1  0  0.153809  0  0.99777  0  0  0.175255  0  1.050704  0  0  0.177448  0  1.052178  0  0  0.087667  0.173661  0  1.049751  0
H  H20  1  0.43971719  0.69136475  0.79717184  1  0  0.144946  0  1.020308  0  0  0.163327  0  1.07939  0  0  0.165876  0  1.080033  0  0  0.083433  0.161455  0  1.079053  0
H  H21  1  0.69135905  0.43971234  0.29717320  1  0  0.144873  0  1.020399  0  0  0.163285  0  1.079431  0  0  0.165831  0  1.080079  0  0  0.083418  0.161417  0  1.079088  0
H  H22  1  0.56029089  0.30864006  0.20282273  1  0  0.144907  0  1.020323  0  0  0.163315  0  1.079383  0  0  0.165862  0  1.080028  0  0  0.08343  0.161443  0  1.079044  0
H  H23  1  0.30863825  0.56028294  0.70282943  1  0  0.144921  0  1.020389  0  0  0.163314  0  1.079432  0  0  0.165861  0  1.080076  0  0  0.08343  0.161446  0  1.079089  0
H  H24  1  0.03626809  0.46344041  0.61460682  1  0  0.151731  0  1.004958  0  0  0.170908  0  1.062456  0  0  0.173076  0  1.063952  0  0  0.086926  0.169346  0  1.061492  0
H  H25  1  0.46344089  0.03624383  0.11460051  1  0  0.151645  0  1.005095  0  0  0.170876  0  1.062543  0  0  0.173046  0  1.064036  0  0  0.086932  0.169306  0  1.061578  0
H  H26  1  0.96374464  0.53656722  0.38539345  1  0  0.151731  0  1.004925  0  0  0.170878  0  1.062474  0  0  0.173047  0  1.063968  0  0  0.086923  0.169315  0  1.061505  0
H  H27  1  0.53655350  0.96375276  0.88540317  1  0  0.151688  0  1.005014  0  0  0.170896  0  1.062488  0  0  0.173071  0  1.063976  0  0  0.086915  0.169317  0  1.061535  0
H  H28  1  0.82116443  0.55940574  0.57968703  1  0  0.149378  0  0.997167  0  0  0.169028  0  1.052432  0  0  0.171809  0  1.052655  0  0  0.085208  0.167025  0  1.052371  0
H  H29  1  0.55940128  0.82114383  0.07967799  1  0  0.149468  0  0.997089  0  0  0.1691  0  1.052389  0  0  0.17188  0  1.052611  0  0  0.085244  0.167096  0  1.052326  0
H  H30  1  0.17884373  0.44060450  0.42031125  1  0  0.149363  0  0.997261  0  0  0.169035  0  1.052517  0  0  0.171816  0  1.052739  0  0  0.085204  0.167032  0  1.052457  0
H  H31  1  0.44059474  0.17885680  0.92032241  1  0  0.149468  0  0.997088  0  0  0.1691  0  1.052384  0  0  0.17188  0  1.052605  0  0  0.085239  0.167095  0  1.052318  0
H  H32  1  0.86710827  0.33531230  0.65761302  1  0  0.155117  0  0.999973  0  0  0.170791  0  1.061703  0  0  0.173999  0  1.061615  0  0  0.084557  0.168484  0  1.061852  0
H  H33  1  0.33531769  0.86708454  0.15760614  1  0  0.155105  0  1.000073  0  0  0.170765  0  1.061819  0  0  0.173974  0  1.061733  0  0  0.084549  0.168454  0  1.061969  0
H  H34  1  0.13289919  0.66468986  0.34238752  1  0  0.155105  0  1.000014  0  0  0.170781  0  1.061742  0  0  0.173989  0  1.061654  0  0  0.084552  0.168471  0  1.061893  0
H  H35  1  0.66467243  0.13291330  0.84239341  1  0  0.155061  0  1.000137  0  0  0.170728  0  1.061862  0  0  0.173935  0  1.061776  0  0  0.084531  0.168418  0  1.06201  0
H  H36  1  0.08255574  0.66740894  0.81644224  1  0  0.151389  0  1.00962  0  0  0.168176  0  1.071124  0  0  0.171121  0  1.071109  0  0  0.083986  0.166027  0  1.071259  0
H  H37  1  0.66739497  0.08255580  0.31644066  1  0  0.151371  0  1.009674  0  0  0.168168  0  1.071171  0  0  0.171116  0  1.071152  0  0  0.083962  0.16602  0  1.071303  0
H  H38  1  0.91744681  0.33259715  0.18355305  1  0  0.151382  0  1.009583  0  0  0.168151  0  1.071124  0  0  0.171107  0  1.071093  0  0  0.083982  0.165996  0  1.071263  0
H  H39  1  0.33260234  0.91745019  0.68355322  1  0  0.151397  0  1.009677  0  0  0.168185  0  1.071174  0  0  0.171134  0  1.071153  0  0  0.083983  0.166031  0  1.071313  0
H  H40  1  0.93141450  0.62831595  0.94536750  1  0  0.157676  0  0.990171  0  0  0.178123  0  1.043219  0  0  0.180773  0  1.043891  0  0  0.088045  0.176212  0  1.042815  0
H  H41  1  0.62829947  0.93140900  0.44536351  1  0  0.157691  0  0.990137  0  0  0.17816  0  1.043146  0  0  0.18081  0  1.04382  0  0  0.088075  0.176251  0  1.042747  0
H  H42  1  0.06859294  0.37168618  0.05462995  1  0  0.157649  0  0.990157  0  0  0.178103  0  1.043204  0  0  0.180747  0  1.043886  0  0  0.088052  0.176191  0  1.042801  0
H  H43  1  0.37170084  0.06860111  0.55463303  1  0  0.157658  0  0.990228  0  0  0.178118  0  1.043239  0  0  0.180766  0  1.043916  0  0  0.088068  0.176208  0  1.042839  0
H  H44  1  0.88183792  0.83480572  0.84843843  1  0  0.151642  0  0.99889  0  0  0.171794  0  1.053511  0  0  0.173839  0  1.055208  0  0  0.08497  0.170287  0  1.052422  0
H  H45  1  0.83479835  0.88182876  0.34843569  1  0  0.151569  0  0.999079  0  0  0.171729  0  1.053686  0  0  0.173774  0  1.055385  0  0  0.084955  0.170221  0  1.052599  0
H  H46  1  0.11816599  0.16520044  0.15156280  1  0  0.151522  0  0.998982  0  0  0.171739  0  1.053529  0  0  0.173784  0  1.055226  0  0  0.084941  0.170229  0  1.052442  0
H  H47  1  0.16519766  0.11817722  0.65155918  1  0  0.151661  0  0.998897  0  0  0.171761  0  1.053579  0  0  0.173806  0  1.055276  0  0  0.08496  0.170256  0  1.052488  0
C  C48  1  0.01990706  0.21893921  0.88730945  1  0  0.698683  0  3.812402  0  0  0.646929  0  4.113887  0  0  0.680959  0  4.105638  0  0  0.230144  0.623871  0  4.118723  0
C  C49  1  0.21895158  0.01992263  0.38727900  1  0  0.698687  0  3.812708  0  0  0.646776  0  4.114443  0  0  0.680795  0  4.1062  0  0  0.229997  0.623724  0  4.119272  0
C  C50  1  0.98007891  0.78106001  0.11270062  1  0  0.698528  0  3.812558  0  0  0.646757  0  4.114026  0  0  0.68079  0  4.105778  0  0  0.230101  0.623691  0  4.118862  0
C  C51  1  0.78104078  0.98007655  0.61271531  1  0  0.698369  0  3.813375  0  0  0.646523  0  4.11503  0  0  0.68054  0  4.106796  0  0  0.229915  0.623475  0  4.119855  0
C  C52  1  0.07407413  0.03083780  0.95349220  1  0  -0.246016  0  3.692594  0  0  -0.289964  0  3.951105  0  0  -0.294793  0  3.958703  0  0  -0.161205  -0.286647  0  3.945787  0
C  C53  1  0.03081736  0.07409328  0.45348455  1  0  -0.246004  0  3.692345  0  0  -0.289934  0  3.950938  0  0  -0.294756  0  3.958548  0  0  -0.161206  -0.286595  0  3.945609  0
C  C54  1  0.92591059  0.96916681  0.04651949  1  0  -0.246126  0  3.692747  0  0  -0.289908  0  3.951205  0  0  -0.294735  0  3.958802  0  0  -0.161223  -0.286579  0  3.945874  0
C  C55  1  0.96917695  0.92590859  0.54650511  1  0  -0.245904  0  3.692261  0  0  -0.28978  0  3.950776  0  0  -0.294609  0  3.958387  0  0  -0.161138  -0.28644  0  3.945434  0
C  C56  1  0.51195633  0.60225768  0.85969334  1  0  -0.713714  0  3.503618  0  0  -0.752934  0  3.727941  0  0  -0.766892  0  3.735029  0  0  -0.338217  -0.743183  0  3.723124  0
C  C57  1  0.60225799  0.51193394  0.35969877  1  0  -0.713658  0  3.503661  0  0  -0.752897  0  3.727986  0  0  -0.766859  0  3.735076  0  0  -0.338267  -0.743154  0  3.723175  0
C  C58  1  0.48805048  0.39774714  0.14030376  1  0  -0.713702  0  3.503525  0  0  -0.752972  0  3.727892  0  0  -0.766933  0  3.734979  0  0  -0.338272  -0.743223  0  3.723079  0
C  C59  1  0.39774229  0.48806543  0.64030422  1  0  -0.713745  0  3.503684  0  0  -0.752951  0  3.728017  0  0  -0.766914  0  3.735103  0  0  -0.338244  -0.743208  0  3.723203  0
C  C60  1  0.89216553  0.46964926  0.64271389  1  0  -0.716927  0  3.529616  0  0  -0.761009  0  3.765184  0  0  -0.774244  0  3.770536  0  0  -0.335813  -0.751846  0  3.761596  0
C  C61  1  0.46965546  0.89214485  0.14270674  1  0  -0.716882  0  3.529682  0  0  -0.761006  0  3.765199  0  0  -0.77424  0  3.770549  0  0  -0.335869  -0.751835  0  3.761612  0
C  C62  1  0.10784425  0.53035429  0.35728834  1  0  -0.716787  0  3.529659  0  0  -0.760891  0  3.765175  0  0  -0.774126  0  3.770526  0  0  -0.335783  -0.751724  0  3.761585  0
C  C63  1  0.53033501  0.10785704  0.85729207  1  0  -0.716907  0  3.529704  0  0  -0.760998  0  3.765254  0  0  -0.774237  0  3.770596  0  0  -0.33582  -0.751814  0  3.761675  0
C  C64  1  0.94109099  0.69071623  0.85808624  1  0  -0.712464  0  3.511033  0  0  -0.755583  0  3.740861  0  0  -0.769098  0  3.747275  0  0  -0.338101  -0.746157  0  3.736545  0
C  C65  1  0.69071023  0.94109161  0.35808312  1  0  -0.71241  0  3.511305  0  0  -0.75553  0  3.741033  0  0  -0.769049  0  3.74745  0  0  -0.338111  -0.746105  0  3.736724  0
C  C66  1  0.05891586  0.30929398  0.14191150  1  0  -0.712374  0  3.511158  0  0  -0.755512  0  3.740931  0  0  -0.769038  0  3.747336  0  0  -0.338106  -0.746076  0  3.736627  0
C  C67  1  0.30928642  0.05891169  0.64191210  1  0  -0.712438  0  3.511122  0  0  -0.755505  0  3.740896  0  0  -0.769024  0  3.747311  0  0  -0.338099  -0.746072  0  3.736591  0
O  O68  1  0.85306756  0.29905225  0.90332885  1  0  -0.61188  0  1.995618  0  0  -0.53801  0  2.228306  0  0  -0.564564  0  2.222104  0  0  -0.277739  -0.519625  0  2.231946  0
O  O69  1  0.29903382  0.85309366  0.40330530  1  0  -0.611875  0  1.995357  0  0  -0.538027  0  2.228193  0  0  -0.564585  0  2.221998  0  0  -0.27776  -0.519629  0  2.231821  0
O  O70  1  0.14693346  0.70094990  0.09668205  1  0  -0.611762  0  1.995215  0  0  -0.53795  0  2.227951  0  0  -0.56451  0  2.221755  0  0  -0.277714  -0.519552  0  2.23158  0
O  O71  1  0.70096502  0.14690021  0.59668727  1  0  -0.61172  0  1.995758  0  0  -0.537901  0  2.228601  0  0  -0.564454  0  2.222405  0  0  -0.27771  -0.51952  0  2.232243  0
O  O72  1  0.13838912  0.29308945  0.81777358  1  0  -0.658095  0  2.060179  0  0  -0.585809  0  2.301727  0  0  -0.613393  0  2.2967  0  0  -0.284393  -0.566678  0  2.304557  0
O  O73  1  0.29306726  0.13838287  0.31777057  1  0  -0.658109  0  2.061165  0  0  -0.585663  0  2.302749  0  0  -0.613239  0  2.297716  0  0  -0.284315  -0.566537  0  2.305582  0
O  O74  1  0.86160629  0.70690318  0.18223833  1  0  -0.658107  0  2.060626  0  0  -0.585773  0  2.302177  0  0  -0.613358  0  2.297151  0  0  -0.284378  -0.566643  0  2.305009  0
O  O75  1  0.70694069  0.86159503  0.68223166  1  0  -0.657992  0  2.061241  0  0  -0.585658  0  2.302837  0  0  -0.613237  0  2.29781  0  0  -0.284312  -0.56653  0  2.305666  0
