# generated using pymatgen
data_ZnH6C8BrN7
_symmetry_space_group_name_H-M   'P 1'
_cell_length_a   7.29657407
_cell_length_b   8.51437944
_cell_length_c   17.08428761
_cell_angle_alpha   89.99997919
_cell_angle_beta   93.72091021
_cell_angle_gamma   90.00013557
_symmetry_Int_Tables_number   1
_chemical_formula_structural   ZnH6C8BrN7
_chemical_formula_sum   'Zn4 H24 C32 Br4 N28'
_cell_volume   1059.13766177
_cell_formula_units_Z   4
loop_
 _symmetry_equiv_pos_site_id
 _symmetry_equiv_pos_as_xyz
  1  'x, y, z'
loop_
 _atom_site_type_symbol
 _atom_site_label
 _atom_site_symmetry_multiplicity
 _atom_site_fract_x
 _atom_site_fract_y
 _atom_site_fract_z
 _atom_site_occupancy
 _atom_site_hle17_bader_spin_density
 _atom_site_hle17_ddec_charge
 _atom_site_hle17_ddec_spin_density
 _atom_site_hle17_ddec_sum_bond_order
 _atom_site_hle17_magmom
 _atom_site_hse06_10hf_bader_spin_density
 _atom_site_hse06_10hf_ddec_charge
 _atom_site_hse06_10hf_ddec_spin_density
 _atom_site_hse06_10hf_ddec_sum_bond_order
 _atom_site_hse06_10hf_magmom
 _atom_site_hse06_bader_spin_density
 _atom_site_hse06_ddec_charge
 _atom_site_hse06_ddec_spin_density
 _atom_site_hse06_ddec_sum_bond_order
 _atom_site_hse06_magmom
 _atom_site_pbe_bader_spin_density
 _atom_site_pbe_cm5_charge
 _atom_site_pbe_ddec_charge
 _atom_site_pbe_ddec_spin_density
 _atom_site_pbe_ddec_sum_bond_order
 _atom_site_pbe_magmom
Zn  Zn0  1  0.23871365  0.80374636  0.19674911  1  0  0.817958  0  2.063303  0  0  0.620633  0  2.550892  0  0  0.660912  0  2.504954  0  0  0.645234  0.592893  0  2.582499  0
Zn  Zn1  1  0.76128748  0.30374682  0.30325151  1  0  0.81794  0  2.063302  0  0  0.620622  0  2.550888  0  0  0.660901  0  2.504949  0  0  0.645245  0.592881  0  2.582491  0
Zn  Zn2  1  0.76128708  0.19625318  0.80325142  1  0  0.817948  0  2.063313  0  0  0.620617  0  2.550904  0  0  0.660897  0  2.504962  0  0  0.645223  0.592875  0  2.582506  0
Zn  Zn3  1  0.23871324  0.69625390  0.69674843  1  0  0.81799  0  2.063246  0  0  0.620673  0  2.550836  0  0  0.660949  0  2.504895  0  0  0.645261  0.592934  0  2.582443  0
H  H4  1  0.43440072  0.76085299  0.86147496  1  0  0.109412  0  0.974001  0  0  0.118546  0  1.043076  0  0  0.120728  0  1.041816  0  0  0.107345  0.116927  0  1.044037  0
H  H5  1  0.56559841  0.26085317  0.63852602  1  0  0.109408  0  0.974017  0  0  0.118534  0  1.043088  0  0  0.120718  0  1.041826  0  0  0.107342  0.116913  0  1.044048  0
H  H6  1  0.56560001  0.23914773  0.13852557  1  0  0.109418  0  0.974018  0  0  0.118528  0  1.043097  0  0  0.120712  0  1.041835  0  0  0.107333  0.116906  0  1.044064  0
H  H7  1  0.43439956  0.73914872  0.36147385  1  0  0.109431  0  0.974006  0  0  0.118539  0  1.043086  0  0  0.120722  0  1.041825  0  0  0.107334  0.116918  0  1.044051  0
H  H8  1  0.42829364  0.93745655  0.91668137  1  0  0.119924  0  0.913511  0  0  0.127479  0  0.982909  0  0  0.129584  0  0.980682  0  0  0.125897  0.125959  0  0.984454  0
H  H9  1  0.57170596  0.43745797  0.58331901  1  0  0.119936  0  0.913497  0  0  0.127476  0  0.982888  0  0  0.129576  0  0.980671  0  0  0.125896  0.125955  0  0.984432  0
H  H10  1  0.57170297  0.06254181  0.08331905  1  0  0.119907  0  0.913545  0  0  0.127457  0  0.982926  0  0  0.129562  0  0.980698  0  0  0.125897  0.125935  0  0.984473  0
H  H11  1  0.42829751  0.56254392  0.41668159  1  0  0.11995  0  0.913493  0  0  0.127485  0  0.982882  0  0  0.129588  0  0.980659  0  0  0.125907  0.125965  0  0.984426  0
H  H12  1  0.25891843  0.21233601  0.91472758  1  0  0.091798  0  0.98438  0  0  0.096582  0  1.057437  0  0  0.099397  0  1.05607  0  0  0.093486  0.094433  0  1.058601  0
H  H13  1  0.74107918  0.71233783  0.58527220  1  0  0.091804  0  0.98443  0  0  0.096586  0  1.057485  0  0  0.099401  0  1.056119  0  0  0.093503  0.094434  0  1.058653  0
H  H14  1  0.74107679  0.78766236  0.08527164  1  0  0.091781  0  0.984376  0  0  0.096559  0  1.057433  0  0  0.099373  0  1.056069  0  0  0.093479  0.094392  0  1.058615  0
H  H15  1  0.25891740  0.28766406  0.41472588  1  0  0.091758  0  0.984414  0  0  0.096534  0  1.057478  0  0  0.099347  0  1.056115  0  0  0.093467  0.094384  0  1.058642  0
H  H16  1  0.33039883  0.47554730  0.86222461  1  0  0.109072  0  0.978838  0  0  0.110962  0  1.055686  0  0  0.114635  0  1.053067  0  0  0.096334  0.108231  0  1.05774  0
H  H17  1  0.66959538  0.97554776  0.63777563  1  0  0.109152  0  0.978662  0  0  0.111042  0  1.055524  0  0  0.114716  0  1.052903  0  0  0.096376  0.108312  0  1.057579  0
H  H18  1  0.66959639  0.52445224  0.13777461  1  0  0.109142  0  0.978723  0  0  0.111041  0  1.055569  0  0  0.114714  0  1.052951  0  0  0.096366  0.108311  0  1.057626  0
H  H19  1  0.33039984  0.02445178  0.36222359  1  0  0.109069  0  0.978756  0  0  0.110986  0  1.05559  0  0  0.11466  0  1.052971  0  0  0.09637  0.108257  0  1.057649  0
H  H20  1  0.15224524  0.40434313  0.14189346  1  0  0.115461  0  0.956822  0  0  0.121419  0  1.021992  0  0  0.12425  0  1.020769  0  0  0.098876  0.119289  0  1.023061  0
H  H21  1  0.84775480  0.90434497  0.35810770  1  0  0.115446  0  0.956876  0  0  0.121404  0  1.022047  0  0  0.124235  0  1.020823  0  0  0.098864  0.119284  0  1.023113  0
H  H22  1  0.84775412  0.59565640  0.85810703  1  0  0.115456  0  0.956828  0  0  0.12141  0  1.022002  0  0  0.124239  0  1.020781  0  0  0.09888  0.119277  0  1.023076  0
H  H23  1  0.15224867  0.09565809  0.64189290  1  0  0.115437  0  0.956876  0  0  0.121408  0  1.022027  0  0  0.124236  0  1.020809  0  0  0.0989  0.119297  0  1.023071  0
H  H24  1  0.17033037  0.17561718  0.04986334  1  0  0.097791  0  0.959132  0  0  0.102517  0  1.03001  0  0  0.105313  0  1.028908  0  0  0.099071  0.100451  0  1.030973  0
H  H25  1  0.82966905  0.67561891  0.45013785  1  0  0.097769  0  0.959172  0  0  0.10249  0  1.030064  0  0  0.105287  0  1.028961  0  0  0.099074  0.100422  0  1.031028  0
H  H26  1  0.82966761  0.82438236  0.95013712  1  0  0.097788  0  0.959137  0  0  0.102518  0  1.03001  0  0  0.105316  0  1.02891  0  0  0.099097  0.10045  0  1.030974  0
H  H27  1  0.17033029  0.32438297  0.54986148  1  0  0.097776  0  0.959143  0  0  0.102491  0  1.030053  0  0  0.105289  0  1.028951  0  0  0.099075  0.100424  0  1.031014  0
C  C28  1  0.34802931  0.83415124  0.89707243  1  0  -0.107656  0  3.650575  0  0  -0.177657  0  3.884364  0  0  -0.175439  0  3.89212  0  0  -0.03644  -0.178862  0  3.879059  0
C  C29  1  0.65196864  0.33415045  0.60292793  1  0  -0.107733  0  3.650568  0  0  -0.177649  0  3.884341  0  0  -0.175433  0  3.892094  0  0  -0.036439  -0.178851  0  3.879026  0
C  C30  1  0.65196866  0.16584830  0.10292745  1  0  -0.107716  0  3.650635  0  0  -0.177653  0  3.884334  0  0  -0.175435  0  3.89209  0  0  -0.036459  -0.178853  0  3.879023  0
C  C31  1  0.34803209  0.66585026  0.39707260  1  0  -0.107789  0  3.650707  0  0  -0.177684  0  3.884392  0  0  -0.175469  0  3.892147  0  0  -0.036471  -0.178887  0  3.879082  0
C  C32  1  0.23145113  0.56862533  0.05254291  1  0  0.124612  0  3.809455  0  0  0.120023  0  4.058433  0  0  0.120885  0  4.082479  0  0  0.098693  0.119309  0  4.042201  0
C  C33  1  0.76854662  0.06862688  0.44745825  1  0  0.124578  0  3.809521  0  0  0.119996  0  4.058486  0  0  0.120859  0  4.082532  0  0  0.098721  0.11928  0  4.042259  0
C  C34  1  0.76854822  0.43137303  0.94745759  1  0  0.124622  0  3.809501  0  0  0.120031  0  4.058477  0  0  0.12089  0  4.082522  0  0  0.098702  0.119317  0  4.042243  0
C  C35  1  0.23145410  0.93137619  0.55254169  1  0  0.124584  0  3.809446  0  0  0.119989  0  4.058428  0  0  0.120848  0  4.082471  0  0  0.098669  0.119272  0  4.042203  0
C  C36  1  0.27796365  0.58750956  0.97403230  1  0  0.091177  0  3.78671  0  0  0.066289  0  4.029389  0  0  0.069134  0  4.052909  0  0  0.106408  0.064609  0  4.013291  0
C  C37  1  0.72203776  0.08751132  0.52596877  1  0  0.091237  0  3.786559  0  0  0.066375  0  4.029283  0  0  0.069221  0  4.052799  0  0  0.106394  0.064695  0  4.013184  0
C  C38  1  0.72203845  0.41248763  0.02596826  1  0  0.091196  0  3.786654  0  0  0.06632  0  4.029322  0  0  0.069166  0  4.05284  0  0  0.106417  0.06464  0  4.013228  0
C  C39  1  0.27796296  0.91249056  0.47403117  1  0  0.091123  0  3.786694  0  0  0.06624  0  4.029391  0  0  0.069086  0  4.05291  0  0  0.106345  0.06456  0  4.013295  0
C  C40  1  0.25319852  0.31466053  0.95260334  1  0  -0.038396  0  3.724168  0  0  -0.062392  0  3.987269  0  0  -0.063253  0  4.00865  0  0  -0.088568  -0.061546  0  3.97265  0
C  C41  1  0.74680487  0.81466122  0.54739774  1  0  -0.038426  0  3.724226  0  0  -0.062415  0  3.987312  0  0  -0.063275  0  4.008695  0  0  -0.088606  -0.061562  0  3.972684  0
C  C42  1  0.74680358  0.68533783  0.04739722  1  0  -0.03839  0  3.724197  0  0  -0.062375  0  3.987288  0  0  -0.063233  0  4.008675  0  0  -0.088579  -0.061509  0  3.97267  0
C  C43  1  0.25319722  0.18533949  0.45260165  1  0  -0.038407  0  3.724173  0  0  -0.062378  0  3.987258  0  0  -0.063237  0  4.008644  0  0  -0.088567  -0.061529  0  3.972637  0
C  C44  1  0.29176569  0.46108699  0.92233955  1  0  -0.13708  0  3.738308  0  0  -0.154078  0  3.998572  0  0  -0.158046  0  4.018889  0  0  -0.091776  -0.151351  0  3.98473  0
C  C45  1  0.70822985  0.96108758  0.57766014  1  0  -0.137178  0  3.738087  0  0  -0.154176  0  3.998359  0  0  -0.158145  0  4.018674  0  0  -0.091802  -0.15145  0  3.984518  0
C  C46  1  0.70823229  0.53891137  0.07766033  1  0  -0.137165  0  3.738148  0  0  -0.154188  0  3.998423  0  0  -0.158158  0  4.018741  0  0  -0.091833  -0.151464  0  3.984583  0
C  C47  1  0.29176673  0.03891313  0.42233853  1  0  -0.137055  0  3.738166  0  0  -0.154097  0  3.998448  0  0  -0.158066  0  4.018766  0  0  -0.091821  -0.151376  0  3.984614  0
C  C48  1  0.19089939  0.41940125  0.08195174  1  0  -0.12302  0  3.715989  0  0  -0.140665  0  3.967809  0  0  -0.141976  0  3.987302  0  0  -0.089166  -0.139631  0  3.954655  0
C  C49  1  0.80910069  0.91940414  0.41804884  1  0  -0.123051  0  3.716112  0  0  -0.140698  0  3.96793  0  0  -0.142009  0  3.987423  0  0  -0.089167  -0.139676  0  3.95477  0
C  C50  1  0.80910133  0.58059594  0.91804821  1  0  -0.122989  0  3.71594  0  0  -0.140626  0  3.967751  0  0  -0.141935  0  3.987248  0  0  -0.089127  -0.139592  0  3.954593  0
C  C51  1  0.19090140  0.08059892  0.58195056  1  0  -0.122974  0  3.716043  0  0  -0.140627  0  3.967874  0  0  -0.141936  0  3.987369  0  0  -0.089133  -0.139607  0  3.954706  0
C  C52  1  0.20235827  0.29400048  0.03058299  1  0  -0.059474  0  3.718734  0  0  -0.078639  0  3.979523  0  0  -0.081417  0  4.001381  0  0  -0.093106  -0.076722  0  3.964548  0
C  C53  1  0.79764283  0.79400331  0.46941705  1  0  -0.059373  0  3.718774  0  0  -0.078537  0  3.979555  0  0  -0.081314  0  4.001408  0  0  -0.093071  -0.076619  0  3.964583  0
C  C54  1  0.79764107  0.70599788  0.96941633  1  0  -0.059439  0  3.718699  0  0  -0.078626  0  3.979529  0  0  -0.081392  0  4.001352  0  0  -0.093127  -0.076708  0  3.964548  0
C  C55  1  0.20235925  0.20599975  0.53058176  1  0  -0.059409  0  3.718752  0  0  -0.078588  0  3.979551  0  0  -0.081359  0  4.001387  0  0  -0.093098  -0.076672  0  3.964576  0
C  C56  1  0.17976876  0.88628172  0.84937915  1  0  0.305636  0  3.72552  0  0  0.283141  0  4.004641  0  0  0.292579  0  4.021082  0  0  0.220116  0.276862  0  3.993441  0
C  C57  1  0.82023069  0.38628242  0.65062064  1  0  0.305632  0  3.725551  0  0  0.283109  0  4.004663  0  0  0.292547  0  4.021105  0  0  0.220099  0.276828  0  3.993463  0
C  C58  1  0.82023058  0.11371664  0.15062075  1  0  0.305569  0  3.72551  0  0  0.283031  0  4.004644  0  0  0.292469  0  4.021084  0  0  0.220086  0.276753  0  3.993445  0
C  C59  1  0.17977004  0.61371947  0.34938047  1  0  0.305638  0  3.725605  0  0  0.28305  0  4.004805  0  0  0.292487  0  4.021247  0  0  0.220129  0.276773  0  3.993601  0
Br  Br60  1  0.54158180  0.87310931  0.23794732  1  0  -0.517071  0  1.044076  0  0  -0.458659  0  1.363538  0  0  -0.476018  0  1.340203  0  0  -0.257401  -0.446118  0  1.379554  0
Br  Br61  1  0.45841951  0.37311036  0.26205212  1  0  -0.51706  0  1.044044  0  0  -0.458657  0  1.363515  0  0  -0.47601  0  1.340168  0  0  -0.257403  -0.446114  0  1.379528  0
Br  Br62  1  0.45841893  0.12689258  0.76205321  1  0  -0.517044  0  1.044045  0  0  -0.458641  0  1.363511  0  0  -0.476011  0  1.340192  0  0  -0.2574  -0.446108  0  1.379535  0
Br  Br63  1  0.54158120  0.62689153  0.73794724  1  0  -0.517078  0  1.044046  0  0  -0.458681  0  1.363515  0  0  -0.476033  0  1.34017  0  0  -0.257409  -0.446143  0  1.379534  0
N  N64  1  0.28219730  0.82131791  0.03403024  1  0  -0.052667  0  2.842556  0  0  -0.072123  0  3.114887  0  0  -0.064356  0  3.123399  0  0  -0.068161  -0.076786  0  3.109057  0
N  N65  1  0.71780114  0.32131934  0.46597031  1  0  -0.052837  0  2.842622  0  0  -0.072249  0  3.114977  0  0  -0.064479  0  3.123491  0  0  -0.068198  -0.076912  0  3.109145  0
N  N66  1  0.71780343  0.17868045  0.96597029  1  0  -0.052693  0  2.84267  0  0  -0.072144  0  3.114994  0  0  -0.064379  0  3.123503  0  0  -0.068173  -0.076807  0  3.109163  0
N  N67  1  0.28220096  0.67868372  0.53403025  1  0  -0.052714  0  2.842684  0  0  -0.072176  0  3.115014  0  0  -0.06441  0  3.123522  0  0  -0.068191  -0.076841  0  3.109184  0
N  N68  1  0.23804700  0.71612404  0.08612100  1  0  -0.245581  0  3.224883  0  0  -0.181425  0  3.533765  0  0  -0.194055  0  3.543788  0  0  -0.212539  -0.172761  0  3.52682  0
N  N69  1  0.76195251  0.21612559  0.41387901  1  0  -0.245487  0  3.22492  0  0  -0.18132  0  3.533775  0  0  -0.193955  0  3.543804  0  0  -0.212509  -0.17266  0  3.526839  0
N  N70  1  0.76195647  0.28387433  0.91387960  1  0  -0.245595  0  3.22498  0  0  -0.181439  0  3.533845  0  0  -0.194064  0  3.543864  0  0  -0.212549  -0.172769  0  3.526886  0
N  N71  1  0.23804821  0.78387747  0.58612093  1  0  -0.245504  0  3.224937  0  0  -0.181343  0  3.533811  0  0  -0.193965  0  3.543824  0  0  -0.212471  -0.172676  0  3.52686  0
N  N72  1  0.30554766  0.74596389  0.96667458  1  0  0.033081  0  3.527155  0  0  0.145919  0  3.713945  0  0  0.135439  0  3.737493  0  0  -0.111519  0.151939  0  3.699521  0
N  N73  1  0.69445004  0.24596441  0.53332519  1  0  0.033222  0  3.526991  0  0  0.145921  0  3.71391  0  0  0.135444  0  3.737454  0  0  -0.111537  0.15194  0  3.699486  0
N  N74  1  0.69445443  0.25403448  0.03332540  1  0  0.03313  0  3.527158  0  0  0.145957  0  3.713913  0  0  0.135479  0  3.737458  0  0  -0.11148  0.151973  0  3.699496  0
N  N75  1  0.30554793  0.75403630  0.46667468  1  0  0.033129  0  3.527236  0  0  0.145955  0  3.713985  0  0  0.135477  0  3.737531  0  0  -0.111497  0.151976  0  3.69956  0
N  N76  1  0.12864923  0.84097481  0.77504332  1  0  -0.311071  0  3.231517  0  0  -0.237541  0  3.532801  0  0  -0.254623  0  3.543598  0  0  -0.235007  -0.226125  0  3.525564  0
N  N77  1  0.87135148  0.34097438  0.72495651  1  0  -0.311016  0  3.231539  0  0  -0.237437  0  3.532768  0  0  -0.25452  0  3.543568  0  0  -0.234947  -0.226018  0  3.525526  0
N  N78  1  0.87134876  0.15902355  0.22495772  1  0  -0.310931  0  3.231401  0  0  -0.237398  0  3.532692  0  0  -0.254482  0  3.543491  0  0  -0.23497  -0.225979  0  3.52545  0
N  N79  1  0.12865199  0.65902516  0.27504350  1  0  -0.310976  0  3.231618  0  0  -0.2374  0  3.532878  0  0  -0.254483  0  3.543679  0  0  -0.234965  -0.225984  0  3.525639  0
N  N80  1  0.06385928  0.99438695  0.87347863  1  0  -0.266416  0  2.904347  0  0  -0.256744  0  3.182833  0  0  -0.264765  0  3.196333  0  0  -0.207161  -0.251297  0  3.173742  0
N  N81  1  0.93614047  0.49438672  0.62652174  1  0  -0.266435  0  2.904355  0  0  -0.25676  0  3.182846  0  0  -0.264782  0  3.196343  0  0  -0.207148  -0.251314  0  3.173756  0
N  N82  1  0.93613870  0.00561024  0.12652182  1  0  -0.266404  0  2.904258  0  0  -0.25672  0  3.18275  0  0  -0.26474  0  3.19625  0  0  -0.207136  -0.25127  0  3.173654  0
N  N83  1  0.06386162  0.50561164  0.37347882  1  0  -0.266348  0  2.904394  0  0  -0.256651  0  3.182899  0  0  -0.264673  0  3.196399  0  0  -0.207115  -0.251204  0  3.173805  0
N  N84  1  0.97904505  0.92422779  0.75213980  1  0  -0.055556  0  2.903333  0  0  -0.05812  0  3.178472  0  0  -0.054085  0  3.190671  0  0  -0.086896  -0.06056  0  3.170286  0
N  N85  1  0.02095726  0.42422796  0.74786006  1  0  -0.055633  0  2.903364  0  0  -0.058208  0  3.17848  0  0  -0.054174  0  3.190679  0  0  -0.086909  -0.060649  0  3.170295  0
N  N86  1  0.02095568  0.07577057  0.24786131  1  0  -0.055624  0  2.903348  0  0  -0.058192  0  3.178489  0  0  -0.054154  0  3.190689  0  0  -0.086886  -0.06063  0  3.170303  0
N  N87  1  0.97904621  0.57577158  0.25213995  1  0  -0.055677  0  2.903434  0  0  -0.05825  0  3.178567  0  0  -0.054215  0  3.190766  0  0  -0.08695  -0.060691  0  3.170382  0
N  N88  1  0.94279646  0.01495184  0.81180194  1  0  -0.101955  0  3.280494  0  0  -0.035484  0  3.593183  0  0  -0.044849  0  3.604529  0  0  -0.113727  -0.029157  0  3.585594  0
N  N89  1  0.05720474  0.51495219  0.68819797  1  0  -0.101908  0  3.280446  0  0  -0.035435  0  3.593129  0  0  -0.044795  0  3.604473  0  0  -0.113781  -0.029109  0  3.585544  0
N  N90  1  0.05720427  0.98504653  0.18819859  1  0  -0.101938  0  3.280404  0  0  -0.035468  0  3.593098  0  0  -0.044836  0  3.604447  0  0  -0.113775  -0.029141  0  3.585511  0
N  N91  1  0.94279599  0.48504735  0.31180256  1  0  -0.101946  0  3.280556  0  0  -0.035471  0  3.593232  0  0  -0.044833  0  3.604577  0  0  -0.113749  -0.029143  0  3.585642  0
