# generated using pymatgen
data_ZnH9C14(N2O)3
_symmetry_space_group_name_H-M   'P 1'
_cell_length_a   8.80874544
_cell_length_b   9.31611823
_cell_length_c   17.10833703
_cell_angle_alpha   89.99995800
_cell_angle_beta   89.99995091
_cell_angle_gamma   105.70120470
_symmetry_Int_Tables_number   1
_chemical_formula_structural   ZnH9C14(N2O)3
_chemical_formula_sum   'Zn4 H36 C56 N24 O12'
_cell_volume   1351.57929492
_cell_formula_units_Z   4
loop_
 _symmetry_equiv_pos_site_id
 _symmetry_equiv_pos_as_xyz
  1  'x, y, z'
loop_
 _atom_site_type_symbol
 _atom_site_label
 _atom_site_symmetry_multiplicity
 _atom_site_fract_x
 _atom_site_fract_y
 _atom_site_fract_z
 _atom_site_occupancy
 _atom_site_hle17_bader_spin_density
 _atom_site_hle17_ddec_charge
 _atom_site_hle17_ddec_spin_density
 _atom_site_hle17_ddec_sum_bond_order
 _atom_site_hle17_magmom
 _atom_site_hse06_10hf_bader_spin_density
 _atom_site_hse06_10hf_ddec_charge
 _atom_site_hse06_10hf_ddec_spin_density
 _atom_site_hse06_10hf_ddec_sum_bond_order
 _atom_site_hse06_10hf_magmom
 _atom_site_hse06_bader_spin_density
 _atom_site_hse06_ddec_charge
 _atom_site_hse06_ddec_spin_density
 _atom_site_hse06_ddec_sum_bond_order
 _atom_site_hse06_magmom
 _atom_site_pbe_bader_spin_density
 _atom_site_pbe_cm5_charge
 _atom_site_pbe_ddec_charge
 _atom_site_pbe_ddec_spin_density
 _atom_site_pbe_ddec_sum_bond_order
 _atom_site_pbe_magmom
Zn  Zn0  1  0.00070105  0.43829887  0.67616849  1  0  0.954383  0  1.917081  0  0  0.752546  0  2.400075  0  0  0.79457  0  2.351716  0  0  0.737199  0.721888  0  2.435105  0
Zn  Zn1  1  0.49930057  0.06170116  0.17616896  1  0  0.95436  0  1.917166  0  0  0.752496  0  2.400174  0  0  0.79452  0  2.351824  0  0  0.737164  0.721828  0  2.43519  0
Zn  Zn2  1  0.99930037  0.56170075  0.32383126  1  0  0.954377  0  1.917126  0  0  0.752516  0  2.40013  0  0  0.794543  0  2.351775  0  0  0.737234  0.72191  0  2.435137  0
Zn  Zn3  1  0.50069971  0.93829847  0.82383138  1  0  0.954333  0  1.917128  0  0  0.752492  0  2.400104  0  0  0.79452  0  2.351751  0  0  0.737183  0.721845  0  2.435132  0
H  H4  1  0.38018727  0.80544879  0.40684994  1  0  0.095582  0  0.954188  0  0  0.1057  0  1.016395  0  0  0.10798  0  1.016042  0  0  0.101054  0.104792  0  1.015137  0
H  H5  1  0.11981308  0.69455260  0.90685244  1  0  0.095579  0  0.954204  0  0  0.105708  0  1.016388  0  0  0.107991  0  1.016028  0  0  0.101024  0.104791  0  1.015122  0
H  H6  1  0.61981268  0.19454972  0.59314865  1  0  0.095572  0  0.954213  0  0  0.105689  0  1.016426  0  0  0.107971  0  1.016065  0  0  0.101053  0.104782  0  1.015163  0
H  H7  1  0.88018638  0.30544814  0.09314965  1  0  0.095566  0  0.954184  0  0  0.105681  0  1.016392  0  0  0.107964  0  1.016031  0  0  0.10105  0.104761  0  1.015131  0
H  H8  1  0.35295736  0.94244984  0.52580303  1  0  0.093307  0  0.966719  0  0  0.102317  0  1.032387  0  0  0.104988  0  1.031601  0  0  0.103396  0.100786  0  1.032038  0
H  H9  1  0.14704125  0.55755117  0.02580423  1  0  0.093398  0  0.966637  0  0  0.102394  0  1.032308  0  0  0.10507  0  1.031526  0  0  0.103395  0.100861  0  1.031944  0
H  H10  1  0.64704179  0.05754979  0.47419614  1  0  0.0934  0  0.966642  0  0  0.102397  0  1.032313  0  0  0.105073  0  1.031531  0  0  0.103421  0.100867  0  1.031958  0
H  H11  1  0.85295821  0.44244957  0.97419669  1  0  0.093389  0  0.966705  0  0  0.102392  0  1.032374  0  0  0.105066  0  1.031591  0  0  0.103403  0.100855  0  1.032015  0
H  H12  1  0.06728480  0.17595880  0.39882188  1  0  0.095871  0  0.97108  0  0  0.100145  0  1.045179  0  0  0.103237  0  1.043352  0  0  0.101411  0.098125  0  1.046107  0
H  H13  1  0.43271501  0.32404416  0.89882244  1  0  0.095804  0  0.97109  0  0  0.100105  0  1.045171  0  0  0.103189  0  1.043351  0  0  0.101366  0.098083  0  1.046085  0
H  H14  1  0.93271580  0.82404195  0.60117729  1  0  0.095861  0  0.971065  0  0  0.100147  0  1.045153  0  0  0.103239  0  1.043323  0  0  0.101411  0.098129  0  1.046076  0
H  H15  1  0.56728509  0.67595881  0.10117790  1  0  0.09588  0  0.971074  0  0  0.100151  0  1.045176  0  0  0.103243  0  1.043349  0  0  0.101414  0.09813  0  1.046094  0
H  H16  1  0.09725270  0.03831738  0.27955666  1  0  0.099372  0  0.94777  0  0  0.109065  0  1.009652  0  0  0.112459  0  1.00757  0  0  0.103668  0.106624  0  1.01126  0
H  H17  1  0.40274656  0.46168692  0.77955835  1  0  0.099377  0  0.947762  0  0  0.109032  0  1.009682  0  0  0.112424  0  1.0076  0  0  0.103629  0.106581  0  1.011288  0
H  H18  1  0.90274790  0.96168336  0.72044251  1  0  0.09937  0  0.947776  0  0  0.10906  0  1.009657  0  0  0.112455  0  1.007572  0  0  0.10367  0.106623  0  1.011261  0
H  H19  1  0.59725386  0.53831717  0.22044375  1  0  0.099383  0  0.947772  0  0  0.109073  0  1.009652  0  0  0.112468  0  1.007568  0  0  0.103655  0.106626  0  1.011256  0
H  H20  1  0.04424027  0.30914094  0.51140907  1  0  0.125222  0  0.941278  0  0  0.133144  0  1.002787  0  0  0.136002  0  1.00116  0  0  0.125481  0.130978  0  1.004049  0
H  H21  1  0.45576025  0.19085830  0.01140950  1  0  0.125216  0  0.941255  0  0  0.133149  0  1.002764  0  0  0.136007  0  1.001135  0  0  0.12548  0.130972  0  1.004028  0
H  H22  1  0.95575936  0.69085646  0.48859010  1  0  0.1252  0  0.941275  0  0  0.133133  0  1.002785  0  0  0.135991  0  1.001157  0  0  0.125474  0.130963  0  1.004047  0
H  H23  1  0.54424035  0.80914245  0.98859083  1  0  0.125219  0  0.941268  0  0  0.13315  0  1.002774  0  0  0.136008  0  1.001146  0  0  0.125461  0.130968  0  1.004031  0
H  H24  1  0.23262148  0.22490695  0.72812269  1  0  0.102089  0  0.966815  0  0  0.112563  0  1.028211  0  0  0.115604  0  1.024247  0  0  0.137166  0.110212  0  1.031239  0
H  H25  1  0.26738083  0.27509187  0.22812375  1  0  0.102086  0  0.966778  0  0  0.11255  0  1.028189  0  0  0.115592  0  1.024225  0  0  0.137143  0.110194  0  1.031225  0
H  H26  1  0.76738252  0.77509379  0.27187590  1  0  0.10211  0  0.966762  0  0  0.112557  0  1.028188  0  0  0.115597  0  1.024225  0  0  0.137162  0.11021  0  1.031213  0
H  H27  1  0.73261767  0.72490553  0.77187659  1  0  0.102079  0  0.966804  0  0  0.112571  0  1.028181  0  0  0.115614  0  1.024215  0  0  0.137154  0.110214  0  1.031217  0
H  H28  1  0.28083904  0.61095053  0.53370160  1  0  0.122681  0  0.947966  0  0  0.129305  0  1.014923  0  0  0.133415  0  1.011693  0  0  0.106872  0.126065  0  1.018024  0
H  H29  1  0.21915891  0.88904824  0.03370206  1  0  0.122681  0  0.947976  0  0  0.129303  0  1.014939  0  0  0.133413  0  1.011709  0  0  0.106876  0.126077  0  1.018025  0
H  H30  1  0.71915978  0.38904799  0.46629815  1  0  0.122674  0  0.947973  0  0  0.129293  0  1.014944  0  0  0.133404  0  1.011713  0  0  0.10687  0.126061  0  1.018034  0
H  H31  1  0.78084023  0.11095139  0.96629770  1  0  0.122711  0  0.947934  0  0  0.129294  0  1.01494  0  0  0.133403  0  1.011713  0  0  0.106873  0.126068  0  1.01803  0
H  H32  1  0.29264111  0.04474454  0.63237056  1  0  0.288638  0  0.935343  0  0  0.259309  0  1.018693  0  0  0.267837  0  1.011545  0  0  0.312353  0.253201  0  1.023539  0
H  H33  1  0.20735914  0.45525446  0.13237158  1  0  0.288629  0  0.93534  0  0  0.25928  0  1.018727  0  0  0.267805  0  1.011583  0  0  0.31234  0.25317  0  1.023573  0
H  H34  1  0.70735998  0.95525397  0.36762860  1  0  0.288644  0  0.935335  0  0  0.259296  0  1.018723  0  0  0.267821  0  1.011579  0  0  0.312351  0.253188  0  1.023566  0
H  H35  1  0.79264000  0.54474517  0.86762875  1  0  0.288638  0  0.935409  0  0  0.259322  0  1.018748  0  0  0.267848  0  1.011604  0  0  0.312364  0.25321  0  1.023593  0
H  H36  1  0.58889855  0.61726660  0.67201129  1  0  0.361978  0  0.937492  0  0  0.336097  0  1.014609  0  0  0.347502  0  1.002375  0  0  0.289413  0.328022  0  1.023063  0
H  H37  1  0.91110073  0.88273291  0.17201167  1  0  0.361981  0  0.937479  0  0  0.336102  0  1.01459  0  0  0.347506  0  1.002356  0  0  0.289414  0.328025  0  1.023049  0
H  H38  1  0.41110027  0.38273191  0.32798846  1  0  0.361945  0  0.937507  0  0  0.336066  0  1.014624  0  0  0.34747  0  1.002391  0  0  0.289406  0.327994  0  1.023076  0
H  H39  1  0.08889955  0.11726672  0.82798809  1  0  0.361979  0  0.937475  0  0  0.336092  0  1.014605  0  0  0.347497  0  1.002369  0  0  0.289416  0.328014  0  1.023063  0
C  C40  1  0.31360036  0.88836625  0.40461652  1  0  -0.077047  0  3.7411  0  0  -0.100352  0  3.992908  0  0  -0.10047  0  4.012718  0  0  -0.084409  -0.100332  0  3.97771  0
C  C41  1  0.18639951  0.61163739  0.90461903  1  0  -0.077098  0  3.741143  0  0  -0.10038  0  3.992955  0  0  -0.100502  0  4.012777  0  0  -0.084398  -0.100362  0  3.977749  0
C  C42  1  0.68639878  0.11163338  0.59538207  1  0  -0.077026  0  3.741111  0  0  -0.100294  0  3.992897  0  0  -0.100417  0  4.012729  0  0  -0.084419  -0.100273  0  3.977697  0
C  C43  1  0.81360205  0.38836670  0.09538306  1  0  -0.076972  0  3.74106  0  0  -0.100265  0  3.992853  0  0  -0.100381  0  4.012664  0  0  -0.084423  -0.100249  0  3.977653  0
C  C44  1  0.29774937  0.96641534  0.47213388  1  0  -0.098638  0  3.712816  0  0  -0.118562  0  3.959996  0  0  -0.121757  0  3.980253  0  0  -0.087207  -0.116622  0  3.945494  0
C  C45  1  0.20225084  0.53358593  0.97213525  1  0  -0.09876  0  3.712835  0  0  -0.118644  0  3.960016  0  0  -0.121848  0  3.980281  0  0  -0.087241  -0.116701  0  3.945501  0
C  C46  1  0.70224977  0.03358428  0.52786529  1  0  -0.098748  0  3.712758  0  0  -0.118633  0  3.959938  0  0  -0.121838  0  3.980198  0  0  -0.087232  -0.116693  0  3.945431  0
C  C47  1  0.79775121  0.46641593  0.02786568  1  0  -0.098805  0  3.712937  0  0  -0.118723  0  3.960105  0  0  -0.121926  0  3.980369  0  0  -0.087264  -0.116791  0  3.945593  0
C  C48  1  0.20915277  0.07123108  0.47164485  1  0  0.042056  0  3.808825  0  0  0.05915  0  4.038479  0  0  0.060684  0  4.061622  0  0  -0.001365  0.057938  0  4.023192  0
C  C49  1  0.29084656  0.42877062  0.97164543  1  0  0.042073  0  3.808761  0  0  0.059102  0  4.03849  0  0  0.060637  0  4.061632  0  0  -0.001348  0.0579  0  4.023221  0
C  C50  1  0.79084637  0.92876855  0.52835549  1  0  0.042091  0  3.808735  0  0  0.05911  0  4.038465  0  0  0.060645  0  4.061606  0  0  -0.001377  0.057895  0  4.023179  0
C  C51  1  0.70915468  0.57123235  0.02835550  1  0  0.042079  0  3.808837  0  0  0.059175  0  4.038476  0  0  0.06071  0  4.06162  0  0  -0.001339  0.057968  0  4.023191  0
C  C52  1  0.13863621  0.09699728  0.40100386  1  0  -0.083513  0  3.707377  0  0  -0.104942  0  3.957936  0  0  -0.107663  0  3.978714  0  0  -0.084678  -0.103109  0  3.943889  0
C  C53  1  0.36136360  0.40300567  0.90100442  1  0  -0.083308  0  3.707197  0  0  -0.104754  0  3.957783  0  0  -0.107468  0  3.978564  0  0  -0.084572  -0.102926  0  3.943734  0
C  C54  1  0.86136471  0.90300457  0.59899531  1  0  -0.083462  0  3.707282  0  0  -0.104905  0  3.957907  0  0  -0.107625  0  3.978681  0  0  -0.084665  -0.10308  0  3.943859  0
C  C55  1  0.63863618  0.59699619  0.09899592  1  0  -0.083479  0  3.707371  0  0  -0.104917  0  3.957953  0  0  -0.10764  0  3.978732  0  0  -0.084661  -0.103079  0  3.943907  0
C  C56  1  0.15521119  0.01979610  0.33347539  1  0  -0.089054  0  3.738063  0  0  -0.111065  0  3.990297  0  0  -0.111738  0  4.009687  0  0  -0.088142  -0.11075  0  3.977071  0
C  C57  1  0.34479103  0.48020697  0.83347651  1  0  -0.089134  0  3.738082  0  0  -0.111082  0  3.990299  0  0  -0.111762  0  4.009706  0  0  -0.088181  -0.110777  0  3.977078  0
C  C58  1  0.84478941  0.98020464  0.66652436  1  0  -0.089054  0  3.738023  0  0  -0.111041  0  3.990272  0  0  -0.111714  0  4.009662  0  0  -0.088154  -0.110721  0  3.977048  0
C  C59  1  0.65521247  0.51979600  0.16652500  1  0  -0.08912  0  3.738074  0  0  -0.111128  0  3.990292  0  0  -0.111801  0  4.009682  0  0  -0.088173  -0.110831  0  3.97709  0
C  C60  1  0.24170967  0.91344375  0.33472897  1  0  -0.026966  0  3.813659  0  0  -0.007322  0  4.052288  0  0  -0.01057  0  4.075117  0  0  -0.015733  -0.004802  0  4.036667  0
C  C61  1  0.25829116  0.58655890  0.83473087  1  0  -0.026877  0  3.813668  0  0  -0.007312  0  4.052397  0  0  -0.010548  0  4.075198  0  0  -0.015679  -0.004807  0  4.036782  0
C  C62  1  0.75828979  0.08655700  0.66527020  1  0  -0.026989  0  3.813701  0  0  -0.007412  0  4.052444  0  0  -0.010666  0  4.075279  0  0  -0.015703  -0.004901  0  4.03684  0
C  C63  1  0.74171089  0.41344295  0.16527122  1  0  -0.026912  0  3.813584  0  0  -0.007264  0  4.052216  0  0  -0.010508  0  4.075039  0  0  -0.015682  -0.004755  0  4.036605  0
C  C64  1  0.25072350  0.82450232  0.26452637  1  0  0.316974  0  3.759818  0  0  0.284293  0  4.022747  0  0  0.298094  0  4.038318  0  0  0.237294  0.274753  0  4.012484  0
C  C65  1  0.24927604  0.67549935  0.76452765  1  0  0.316961  0  3.759842  0  0  0.284307  0  4.022797  0  0  0.298104  0  4.038373  0  0  0.237252  0.27478  0  4.012523  0
C  C66  1  0.74927710  0.17549843  0.73547280  1  0  0.316926  0  3.759881  0  0  0.284247  0  4.022881  0  0  0.298047  0  4.038452  0  0  0.237232  0.27472  0  4.01261  0
C  C67  1  0.75072375  0.32450250  0.23547327  1  0  0.31691  0  3.75984  0  0  0.284213  0  4.022805  0  0  0.298012  0  4.038377  0  0  0.237276  0.274694  0  4.012515  0
C  C68  1  0.18664308  0.15103534  0.54191175  1  0  0.118546  0  3.748243  0  0  0.108184  0  3.997848  0  0  0.109346  0  4.022223  0  0  0.088138  0.107385  0  3.981234  0
C  C69  1  0.31335624  0.34896384  0.04191276  1  0  0.118508  0  3.7482  0  0  0.108167  0  3.997812  0  0  0.109329  0  4.022186  0  0  0.088146  0.107363  0  3.981195  0
C  C70  1  0.81335574  0.84896317  0.45808742  1  0  0.11848  0  3.748269  0  0  0.108157  0  3.997865  0  0  0.109317  0  4.022241  0  0  0.08815  0.107368  0  3.981247  0
C  C71  1  0.68664404  0.65103579  0.95808758  1  0  0.118571  0  3.748201  0  0  0.108225  0  3.997807  0  0  0.109387  0  4.022181  0  0  0.088165  0.107421  0  3.981186  0
C  C72  1  0.10765816  0.25931300  0.55298178  1  0  -0.013524  0  3.650648  0  0  -0.052645  0  3.913801  0  0  -0.051788  0  3.93525  0  0  0.014958  -0.053326  0  3.898996  0
C  C73  1  0.39234114  0.24068615  0.05298281  1  0  -0.013491  0  3.650618  0  0  -0.052637  0  3.913779  0  0  -0.051781  0  3.935231  0  0  0.014949  -0.053325  0  3.898969  0
C  C74  1  0.89234180  0.74068551  0.44701739  1  0  -0.013479  0  3.650658  0  0  -0.05263  0  3.913819  0  0  -0.051773  0  3.935272  0  0  0.014976  -0.053313  0  3.899018  0
C  C75  1  0.60765800  0.75931348  0.94701812  1  0  -0.013556  0  3.650636  0  0  -0.05269  0  3.913784  0  0  -0.051833  0  3.935234  0  0  0.014928  -0.05338  0  3.89897  0
C  C76  1  0.20352038  0.22209392  0.66653518  1  0  0.227181  0  3.644679  0  0  0.164  0  3.912762  0  0  0.178669  0  3.924  0  0  0.146968  0.154283  0  3.905022  0
C  C77  1  0.29648062  0.27790390  0.16653623  1  0  0.227175  0  3.644711  0  0  0.163997  0  3.91278  0  0  0.178664  0  3.924022  0  0  0.146964  0.154275  0  3.905056  0
C  C78  1  0.79648071  0.77790459  0.33346399  1  0  0.227174  0  3.644685  0  0  0.16401  0  3.91276  0  0  0.17868  0  3.924001  0  0  0.146995  0.154297  0  3.905013  0
C  C79  1  0.70351902  0.72209350  0.83346411  1  0  0.227154  0  3.64464  0  0  0.16397  0  3.912728  0  0  0.178637  0  3.923968  0  0  0.146944  0.154244  0  3.905009  0
C  C80  1  0.37747927  0.56331257  0.51933900  1  0  -0.164321  0  3.719932  0  0  -0.197551  0  3.979692  0  0  -0.198659  0  3.996757  0  0  -0.103784  -0.196565  0  3.968569  0
C  C81  1  0.12252130  0.93668733  0.01933773  1  0  -0.164345  0  3.719982  0  0  -0.197588  0  3.979746  0  0  -0.198699  0  3.996813  0  0  -0.103793  -0.196601  0  3.968609  0
C  C82  1  0.62251923  0.43668482  0.48066134  1  0  -0.164313  0  3.71993  0  0  -0.197553  0  3.979714  0  0  -0.198663  0  3.99678  0  0  -0.103785  -0.196582  0  3.968581  0
C  C83  1  0.87747784  0.06331230  0.98066027  1  0  -0.164383  0  3.719885  0  0  -0.197582  0  3.979669  0  0  -0.19869  0  3.996733  0  0  -0.103809  -0.196596  0  3.968532  0
C  C84  1  0.49595972  0.56700972  0.57381300  1  0  0.306796  0  3.816017  0  0  0.293275  0  4.081274  0  0  0.304175  0  4.09747  0  0  0.071649  0.285268  0  4.07096  0
C  C85  1  0.00404235  0.93298785  0.07381178  1  0  0.306838  0  3.81598  0  0  0.293303  0  4.081272  0  0  0.304203  0  4.097469  0  0  0.071666  0.285299  0  4.070944  0
C  C86  1  0.50403910  0.43298879  0.42618792  1  0  0.306816  0  3.815973  0  0  0.293308  0  4.081222  0  0  0.304209  0  4.097417  0  0  0.071676  0.285302  0  4.070897  0
C  C87  1  0.99596101  0.06701066  0.92618739  1  0  0.3068  0  3.816025  0  0  0.293278  0  4.081252  0  0  0.304178  0  4.097448  0  0  0.071643  0.285267  0  4.07094  0
C  C88  1  0.62044335  0.50371846  0.55369823  1  0  -0.190865  0  3.806992  0  0  -0.174785  0  4.049742  0  0  -0.184296  0  4.071396  0  0  -0.039251  -0.168381  0  4.034803  0
C  C89  1  0.87955327  0.99627905  0.05369799  1  0  -0.190836  0  3.80696  0  0  -0.174759  0  4.049712  0  0  -0.184269  0  4.071365  0  0  -0.03919  -0.168351  0  4.034759  0
C  C90  1  0.37955692  0.49628116  0.44630211  1  0  -0.190841  0  3.806996  0  0  -0.174764  0  4.049746  0  0  -0.184273  0  4.071398  0  0  -0.039219  -0.168365  0  4.034806  0
C  C91  1  0.12044587  0.00372058  0.94630177  1  0  -0.190893  0  3.807065  0  0  -0.174757  0  4.049722  0  0  -0.184267  0  4.071376  0  0  -0.039216  -0.168357  0  4.034796  0
C  C92  1  0.75054933  0.51233775  0.60973170  1  0  0.638866  0  3.91024  0  0  0.588148  0  4.20152  0  0  0.623092  0  4.192471  0  0  0.197986  0.564818  0  4.20536  0
C  C93  1  0.74944863  0.98766077  0.10973093  1  0  0.63885  0  3.910288  0  0  0.588126  0  4.201576  0  0  0.623069  0  4.192528  0  0  0.197981  0.564797  0  4.20541  0
C  C94  1  0.24944949  0.48766076  0.39026864  1  0  0.638881  0  3.910243  0  0  0.588147  0  4.201545  0  0  0.62309  0  4.192496  0  0  0.197995  0.564817  0  4.205387  0
C  C95  1  0.25055165  0.01233886  0.89026882  1  0  0.63887  0  3.910213  0  0  0.588142  0  4.201468  0  0  0.623084  0  4.192421  0  0  0.197976  0.564817  0  4.205312  0
N  N96  1  0.15919461  0.68662298  0.24940864  1  0  -0.319844  0  3.215062  0  0  -0.252014  0  3.521607  0  0  -0.269486  0  3.530488  0  0  -0.233134  -0.240337  0  3.515913  0
N  N97  1  0.34080495  0.81337872  0.74940808  1  0  -0.319903  0  3.215047  0  0  -0.252095  0  3.521597  0  0  -0.269569  0  3.530481  0  0  -0.233119  -0.240403  0  3.515893  0
N  N98  1  0.84080566  0.31337665  0.75059111  1  0  -0.319872  0  3.215024  0  0  -0.252058  0  3.521603  0  0  -0.269526  0  3.530477  0  0  -0.233149  -0.240376  0  3.5159  0
N  N99  1  0.65919483  0.18662314  0.25059226  1  0  -0.319858  0  3.215121  0  0  -0.252019  0  3.521665  0  0  -0.269491  0  3.530546  0  0  -0.233107  -0.240331  0  3.515953  0
N  N100  1  0.20753674  0.64501590  0.18010617  1  0  -0.06525  0  3.009324  0  0  -0.051505  0  3.303064  0  0  -0.051153  0  3.313097  0  0  -0.073802  -0.051323  0  3.296344  0
N  N101  1  0.29246234  0.85498370  0.68010502  1  0  -0.065185  0  3.009268  0  0  -0.051416  0  3.302988  0  0  -0.051062  0  3.313019  0  0  -0.073783  -0.051242  0  3.296281  0
N  N102  1  0.79246208  0.35498262  0.81989417  1  0  -0.065156  0  3.009291  0  0  -0.051411  0  3.303031  0  0  -0.051058  0  3.313064  0  0  -0.073783  -0.051236  0  3.296311  0
N  N103  1  0.70753794  0.14501592  0.31989414  1  0  -0.065182  0  3.009344  0  0  -0.05144  0  3.303083  0  0  -0.051087  0  3.313118  0  0  -0.073795  -0.051265  0  3.296376  0
N  N104  1  0.32324681  0.75218286  0.15328937  1  0  -0.051922  0  2.921361  0  0  -0.046948  0  3.211583  0  0  -0.045412  0  3.221849  0  0  -0.07739  -0.048071  0  3.205449  0
N  N105  1  0.17675428  0.74781567  0.65328949  1  0  -0.051975  0  2.921476  0  0  -0.046999  0  3.211693  0  0  -0.045462  0  3.22196  0  0  -0.077421  -0.048132  0  3.205577  0
N  N106  1  0.67675283  0.24781453  0.84671038  1  0  -0.052076  0  2.92146  0  0  -0.047097  0  3.211699  0  0  -0.045562  0  3.221968  0  0  -0.07745  -0.048218  0  3.20557  0
N  N107  1  0.82324713  0.25218395  0.34671026  1  0  -0.052033  0  2.921451  0  0  -0.047055  0  3.211687  0  0  -0.045522  0  3.22196  0  0  -0.077455  -0.048197  0  3.205586  0
N  N108  1  0.35305624  0.86617435  0.20524354  1  0  -0.333657  0  3.220751  0  0  -0.263158  0  3.534501  0  0  -0.281183  0  3.542309  0  0  -0.23933  -0.250814  0  3.530333  0
N  N109  1  0.14694424  0.63382632  0.70524372  1  0  -0.333637  0  3.220755  0  0  -0.263161  0  3.534521  0  0  -0.281187  0  3.54233  0  0  -0.239322  -0.250817  0  3.530351  0
N  N110  1  0.64694404  0.13382528  0.79475563  1  0  -0.333524  0  3.220771  0  0  -0.263028  0  3.534508  0  0  -0.281053  0  3.542317  0  0  -0.239264  -0.250704  0  3.530354  0
N  N111  1  0.85305636  0.36617443  0.29475662  1  0  -0.333558  0  3.220724  0  0  -0.263066  0  3.534496  0  0  -0.281091  0  3.542305  0  0  -0.23931  -0.250745  0  3.53034  0
N  N112  1  0.11960983  0.30228716  0.63031074  1  0  -0.388768  0  3.317529  0  0  -0.303554  0  3.618663  0  0  -0.323965  0  3.632914  0  0  -0.361628  -0.289479  0  3.608667  0
N  N113  1  0.38039043  0.19771185  0.13031120  1  0  -0.388773  0  3.317597  0  0  -0.303541  0  3.618716  0  0  -0.323955  0  3.632976  0  0  -0.361641  -0.289472  0  3.608726  0
N  N114  1  0.88039045  0.69771247  0.36968843  1  0  -0.388785  0  3.317532  0  0  -0.30356  0  3.618663  0  0  -0.323974  0  3.63292  0  0  -0.361682  -0.289494  0  3.608672  0
N  N115  1  0.61960921  0.80228555  0.86968914  1  0  -0.38874  0  3.31751  0  0  -0.303516  0  3.618625  0  0  -0.323929  0  3.632883  0  0  -0.361619  -0.289448  0  3.608637  0
N  N116  1  0.24640025  0.13067579  0.61503223  1  0  -0.314432  0  3.430575  0  0  -0.248236  0  3.666635  0  0  -0.2649  0  3.682143  0  0  -0.369721  -0.236888  0  3.655298  0
N  N117  1  0.25360004  0.36932325  0.11503326  1  0  -0.314412  0  3.430535  0  0  -0.248197  0  3.666573  0  0  -0.264857  0  3.682081  0  0  -0.36972  -0.236848  0  3.655238  0
N  N118  1  0.75360084  0.86932272  0.38496694  1  0  -0.314418  0  3.430592  0  0  -0.248208  0  3.666622  0  0  -0.264867  0  3.682127  0  0  -0.369729  -0.236861  0  3.655278  0
N  N119  1  0.74639992  0.63067527  0.88496766  1  0  -0.314408  0  3.430561  0  0  -0.248252  0  3.666655  0  0  -0.264916  0  3.682163  0  0  -0.369741  -0.236903  0  3.655318  0
O  O120  1  0.86683673  0.46324944  0.58717835  1  0  -0.616138  0  2.045204  0  0  -0.53837  0  2.314563  0  0  -0.56475  0  2.300004  0  0  -0.324908  -0.519709  0  2.323773  0
O  O121  1  0.63316121  0.03674843  0.08717840  1  0  -0.61615  0  2.04523  0  0  -0.538375  0  2.314596  0  0  -0.564755  0  2.300038  0  0  -0.324932  -0.5197  0  2.3238  0
O  O122  1  0.13316323  0.53674907  0.41282199  1  0  -0.616153  0  2.04528  0  0  -0.538363  0  2.31462  0  0  -0.564745  0  2.300063  0  0  -0.324915  -0.51971  0  2.323841  0
O  O123  1  0.36683761  0.96325009  0.91282252  1  0  -0.616101  0  2.045143  0  0  -0.53835  0  2.314529  0  0  -0.564733  0  2.299975  0  0  -0.324888  -0.519681  0  2.323728  0
O  O124  1  0.74393344  0.56681083  0.67766874  1  0  -0.63287  0  1.984558  0  0  -0.584197  0  2.214143  0  0  -0.607265  0  2.204166  0  0  -0.324261  -0.567163  0  2.220092  0
O  O125  1  0.75606615  0.93318979  0.17766858  1  0  -0.632829  0  1.98451  0  0  -0.584139  0  2.214081  0  0  -0.607205  0  2.204105  0  0  -0.324234  -0.567124  0  2.220032  0
O  O126  1  0.25606571  0.43318880  0.32233101  1  0  -0.632861  0  1.984503  0  0  -0.584176  0  2.214085  0  0  -0.607246  0  2.204109  0  0  -0.324253  -0.567146  0  2.220035  0
O  O127  1  0.24393785  0.06681095  0.82233117  1  0  -0.632882  0  1.984501  0  0  -0.584201  0  2.214077  0  0  -0.607268  0  2.2041  0  0  -0.324271  -0.567169  0  2.220016  0
O  O128  1  0.49029530  0.62970781  0.64486840  1  0  -0.522763  0  2.122935  0  0  -0.482025  0  2.345088  0  0  -0.502582  0  2.340853  0  0  -0.366229  -0.467418  0  2.348091  0
O  O129  1  0.00970126  0.87029075  0.14486838  1  0  -0.52276  0  2.122913  0  0  -0.482039  0  2.345106  0  0  -0.502598  0  2.340872  0  0  -0.366249  -0.467447  0  2.348115  0
O  O130  1  0.50970352  0.37029070  0.35513135  1  0  -0.522728  0  2.122894  0  0  -0.482006  0  2.345055  0  0  -0.502564  0  2.340821  0  0  -0.366228  -0.467392  0  2.348049  0
O  O131  1  0.99029674  0.12970888  0.85513138  1  0  -0.522727  0  2.122892  0  0  -0.482002  0  2.345065  0  0  -0.50256  0  2.340829  0  0  -0.366222  -0.467395  0  2.348069  0
