# generated using pymatgen
data_AgH6C5(NO)3
_symmetry_space_group_name_H-M   'P 1'
_cell_length_a   7.43299725
_cell_length_b   10.38000826
_cell_length_c   10.95939720
_cell_angle_alpha   69.57352099
_cell_angle_beta   71.33800567
_cell_angle_gamma   89.59968934
_symmetry_Int_Tables_number   1
_chemical_formula_structural   AgH6C5(NO)3
_chemical_formula_sum   'Ag4 H24 C20 N12 O12'
_cell_volume   745.49957211
_cell_formula_units_Z   4
loop_
 _symmetry_equiv_pos_site_id
 _symmetry_equiv_pos_as_xyz
  1  'x, y, z'
loop_
 _atom_site_type_symbol
 _atom_site_label
 _atom_site_symmetry_multiplicity
 _atom_site_fract_x
 _atom_site_fract_y
 _atom_site_fract_z
 _atom_site_occupancy
 _atom_site_pbe_bader_spin_density
 _atom_site_pbe_cm5_charge
 _atom_site_pbe_ddec_charge
 _atom_site_pbe_ddec_spin_density
 _atom_site_pbe_ddec_sum_bond_order
 _atom_site_pbe_magmom
Ag  Ag0  1  0.61739971  0.53750495  0.01032020  1  0  0.458695  0.328604  0  1.876093  0
Ag  Ag1  1  0.45272952  0.56025992  0.56759069  1  0  0.44354  0.436523  0  1.718567  0
Ag  Ag2  1  0.05378275  0.06133827  0.08429427  1  0  0.444825  0.441039  0  1.696123  0
Ag  Ag3  1  0.15607450  0.54350559  0.05014408  1  0  0.466344  0.327534  0  1.945444  0
H  H4  1  0.46299200  0.76986427  0.09165399  1  0  0.10882  0.09493  0  1.052898  0
H  H5  1  0.42872211  0.11194377  0.74113184  1  0  0.10869  0.124791  0  1.014192  0
H  H6  1  0.52828575  0.95980582  0.59993938  1  0  0.107835  0.118001  0  1.017798  0
H  H7  1  0.60356959  0.72195517  0.71158680  1  0  0.112925  0.090259  0  1.012695  0
H  H8  1  0.68566627  0.58713623  0.24607514  1  0  0.112284  0.101751  0  1.031542  0
H  H9  1  0.77256685  0.20892551  0.53707839  1  0  0.108358  0.119095  0  1.000913  0
H  H10  1  0.75013938  0.09061253  0.37617426  1  0  0.105832  0.112736  0  1.032459  0
H  H11  1  0.69117327  0.22845282  0.15804676  1  0  0.108937  0.085349  0  1.036177  0
H  H12  1  0.94815021  0.77865432  0.09469088  1  0  0.109284  0.096369  0  1.064193  0
H  H13  1  0.91313505  0.06318320  0.71082606  1  0  0.107518  0.116794  0  1.013269  0
H  H14  1  0.05345409  0.89113853  0.60138074  1  0  0.106559  0.114251  0  1.03409  0
H  H15  1  0.13985546  0.67221991  0.74617570  1  0  0.110136  0.088589  0  1.027504  0
H  H16  1  0.17341738  0.59833801  0.29261558  1  0  0.111823  0.096109  0  1.033045  0
H  H17  1  0.22031690  0.22263558  0.60637297  1  0  0.109741  0.124768  0  1.003554  0
H  H18  1  0.26547157  0.10585944  0.43331444  1  0  0.110993  0.120369  0  0.9963  0
H  H19  1  0.25052689  0.24255984  0.19899132  1  0  0.114101  0.097121  0  1.008096  0
H  H20  1  0.41266429  0.98821251  0.10351827  1  0  0.290594  0.285338  0  0.990119  0
H  H21  1  0.44311513  0.13094069  0.96539626  1  0  0.290155  0.286208  0  0.996252  0
H  H22  1  0.82333079  0.57769308  0.43051751  1  0  0.286161  0.276722  0  1.022719  0
H  H23  1  0.78317066  0.42653122  0.56844812  1  0  0.292023  0.286245  0  0.985702  0
H  H24  1  0.72840559  0.97923184  0.07116501  1  0  0.289599  0.283848  0  1.002132  0
H  H25  1  0.80840119  0.11034737  0.91660866  1  0  0.291345  0.283598  0  0.999418  0
H  H26  1  0.10066796  0.58089803  0.52427410  1  0  0.291384  0.290629  0  0.99581  0
H  H27  1  0.08272162  0.43115192  0.65341442  1  0  0.294209  0.285409  0  0.990797  0
C  C28  1  0.47604849  0.81524012  0.98268242  1  0  0.01709  -0.059067  0  3.937165  0
C  C29  1  0.43881895  0.95205286  0.92766855  1  0  0.090418  0.252963  0  4.029089  0
C  C30  1  0.45798053  0.00609986  0.78682815  1  0  -0.080469  -0.148154  0  3.910121  0
C  C31  1  0.51459478  0.92282456  0.70887330  1  0  -0.083293  -0.10094  0  3.978052  0
C  C32  1  0.55406717  0.78864823  0.77041144  1  0  0.032072  0.064325  0  3.941564  0
C  C33  1  0.70377471  0.47738546  0.27667930  1  0  0.023983  -0.04602  0  3.930875  0
C  C34  1  0.73262471  0.40802385  0.40274873  1  0  0.087237  0.24237  0  4.034536  0
C  C35  1  0.74855796  0.26603211  0.44032912  1  0  -0.079696  -0.139265  0  3.913979  0
C  C36  1  0.73593541  0.20048647  0.35162014  1  0  -0.083753  -0.105037  0  3.990691  0
C  C37  1  0.70600143  0.27652907  0.22854512  1  0  0.028164  0.055818  0  3.966593  0
C  C38  1  0.96791200  0.80572791  0.98539499  1  0  0.021191  -0.054791  0  3.938385  0
C  C39  1  0.91772948  0.93215823  0.91198913  1  0  0.08588  0.245149  0  4.034895  0
C  C40  1  0.95158084  0.96576744  0.77064057  1  0  -0.079851  -0.144172  0  3.919949  0
C  C41  1  0.03061342  0.87183933  0.70977552  1  0  -0.081472  -0.096803  0  3.976826  0
C  C42  1  0.07670991  0.74804183  0.78982258  1  0  0.030834  0.065606  0  3.932142  0
C  C43  1  0.19250003  0.48888069  0.32775925  1  0  0.023692  -0.035882  0  3.9099  0
C  C44  1  0.19001748  0.41954792  0.46320123  1  0  0.091481  0.249116  0  4.03827  0
C  C45  1  0.21787643  0.27883904  0.50244399  1  0  -0.081032  -0.150786  0  3.911463  0
C  C46  1  0.24177632  0.21441255  0.40725597  1  0  -0.080905  -0.097145  0  3.985292  0
C  C47  1  0.23598558  0.28949672  0.27572262  1  0  0.028495  0.056744  0  3.947605  0
N  N48  1  0.53383331  0.73609256  0.90570729  1  0  -0.355903  -0.195618  0  3.708373  0
N  N49  1  0.38215150  0.02954562  0.01334698  1  0  -0.612646  -0.585631  0  3.444461  0
N  N50  1  0.72682918  0.35065727  0.83920816  1  0  0.092843  0.700183  0  4.419931  0
N  N51  1  0.69012675  0.41316129  0.19199791  1  0  -0.349964  -0.18913  0  3.668489  0
N  N52  1  0.74119106  0.48275600  0.48682097  1  0  -0.615656  -0.582926  0  3.480015  0
N  N53  1  0.50291883  0.84182710  0.33671230  1  0  0.095502  0.704558  0  4.441889  0
N  N54  1  0.23412816  0.36095645  0.87272445  1  0  0.08877  0.703742  0  4.402287  0
N  N55  1  0.04666557  0.71615169  0.92568738  1  0  -0.352947  -0.187993  0  3.678789  0
N  N56  1  0.84304475  0.02310667  0.98112016  1  0  -0.616836  -0.584074  0  3.461598  0
N  N57  1  0.98134795  0.82098677  0.37241164  1  0  0.097132  0.705475  0  4.430429  0
N  N58  1  0.21232959  0.42495874  0.23726710  1  0  -0.359123  -0.198831  0  3.715179  0
N  N59  1  0.16197064  0.49103318  0.55392177  1  0  -0.616021  -0.589677  0  3.482934  0
O  O60  1  0.81102001  0.47049873  0.80162259  1  0  -0.18191  -0.406117  0  1.995472  0
O  O61  1  0.59032145  0.29985124  0.95357761  1  0  -0.182756  -0.425924  0  2.004467  0
O  O62  1  0.78047104  0.27934604  0.76226841  1  0  -0.202342  -0.466661  0  1.946128  0
O  O63  1  0.49769791  0.81913684  0.45945449  1  0  -0.193624  -0.432999  0  2.021902  0
O  O64  1  0.53634628  0.96556937  0.24935768  1  0  -0.193686  -0.449632  0  1.970614  0
O  O65  1  0.47535764  0.74201263  0.30096857  1  0  -0.198645  -0.454857  0  2.00301  0
O  O66  1  0.31530622  0.48545958  0.81992657  1  0  -0.194693  -0.439218  0  2.153146  0
O  O67  1  0.12865719  0.31488416  0.00014170  1  0  -0.194633  -0.431329  0  2.14258  0
O  O68  1  0.25696211  0.28625620  0.80149160  1  0  -0.183197  -0.438419  0  2.007392  0
O  O69  1  0.01725373  0.95224875  0.32710013  1  0  -0.197072  -0.435056  0  2.052419  0
O  O70  1  0.94465004  0.76187254  0.29745214  1  0  -0.197026  -0.464277  0  2.011541  0
O  O71  1  0.98192892  0.74947810  0.49197119  1  0  -0.178341  -0.422598  0  1.968517  0
