# generated using pymatgen
data_MnH16C26(N4O)2
_symmetry_space_group_name_H-M   'P 1'
_cell_length_a   7.05559213
_cell_length_b   7.31837626
_cell_length_c   13.73821260
_cell_angle_alpha   78.68827960
_cell_angle_beta   84.18112984
_cell_angle_gamma   68.45237760
_symmetry_Int_Tables_number   1
_chemical_formula_structural   MnH16C26(N4O)2
_chemical_formula_sum   'Mn1 H16 C26 N8 O2'
_cell_volume   646.65060746
_cell_formula_units_Z   1
loop_
 _symmetry_equiv_pos_site_id
 _symmetry_equiv_pos_as_xyz
  1  'x, y, z'
loop_
 _atom_site_type_symbol
 _atom_site_label
 _atom_site_symmetry_multiplicity
 _atom_site_fract_x
 _atom_site_fract_y
 _atom_site_fract_z
 _atom_site_occupancy
 _atom_site_pbe_cm5_charge
 _atom_site_pbe_ddec_charge
 _atom_site_pbe_ddec_spin_density
 _atom_site_pbe_ddec_sum_bond_order
 _atom_site_pbe_magmom
Mn  Mn0  1  0.00000785  0.99999872  0.99999876  1  0.69117  1.005666  4.586342  2.589268  4.387
H  H1  1  0.80091115  0.42269526  0.98809166  1  0.344674  0.372816  0.002692  0.862391  0.002
H  H2  1  0.19911205  0.57730061  0.01191011  1  0.344652  0.372786  0.002691  0.862446  0.002
H  H3  1  0.88580972  0.78669991  0.66574617  1  0.105571  0.117148  0.000357  1.010755  0.0
H  H4  1  0.11419965  0.21328717  0.33425132  1  0.10558  0.117093  0.000357  1.010852  0.0
H  H5  1  0.84149401  0.68893534  0.51131074  1  0.107027  0.117545  2e-06  1.014869  0.0
H  H6  1  0.15849266  0.31106423  0.48868617  1  0.107021  0.117538  2e-06  1.014927  0.0
H  H7  1  0.18671618  0.89112703  0.56922551  1  0.106601  0.111452  -2.9e-05  1.010031  0.0
H  H8  1  0.81327595  0.10888031  0.43077905  1  0.10661  0.111461  -2.9e-05  1.01007  0.0
H  H9  1  0.23002591  0.99021607  0.72226304  1  0.105108  0.11655  -0.0001  1.014322  0.0
H  H10  1  0.76997381  0.00978090  0.27774533  1  0.105124  0.116655  -0.000101  1.014244  0.0
H  H11  1  0.93832281  0.54246825  0.83410313  1  0.092216  0.089696  0.000738  1.031425  0.001
H  H12  1  0.06169027  0.45752029  0.16589550  1  0.092192  0.089675  0.000738  1.03145  0.001
H  H13  1  0.72016637  0.48149945  0.81575904  1  0.094399  0.096015  0.000421  0.994667  0.001
H  H14  1  0.27983158  0.51850766  0.18424459  1  0.09441  0.096048  0.000421  0.994678  0.001
H  H15  1  0.97313812  0.30987961  0.80024144  1  0.10646  0.116945  0.00019  1.008874  0.0
H  H16  1  0.02684378  0.69011279  0.19975721  1  0.106449  0.116954  0.00019  1.008872  0.0
C  C17  1  0.56138255  0.89515743  0.70636969  1  0.006816  0.108104  0.004126  4.054277  0.003
C  C18  1  0.43861601  0.10484809  0.29363264  1  0.00683  0.108071  0.00413  4.054453  0.003
C  C19  1  0.73257960  0.81116273  0.64425858  1  -0.088334  -0.135826  0.001656  3.960246  0.001
C  C20  1  0.26741703  0.18882788  0.35574190  1  -0.088372  -0.135801  0.001656  3.960405  0.001
C  C21  1  0.70837974  0.75454218  0.55784246  1  -0.075435  -0.098004  0.00123  3.922643  0.001
C  C22  1  0.29161030  0.24546352  0.44215872  1  -0.075401  -0.097918  0.001234  3.92271  0.001
C  C23  1  0.51072037  0.77894753  0.52897033  1  0.006554  0.089791  0.000851  4.032633  0.001
C  C24  1  0.48926989  0.22105797  0.47102795  1  0.006482  0.089635  0.000852  4.032649  0.001
C  C25  1  0.33939391  0.86765985  0.59058956  1  -0.076527  -0.098651  0.001056  3.961381  0.001
C  C26  1  0.66060011  0.13234601  0.40941582  1  -0.07641  -0.098472  0.00106  3.961002  0.001
C  C27  1  0.36435484  0.92240423  0.67699621  1  -0.09056  -0.13777  0.00113  3.968143  0.001
C  C28  1  0.63563597  0.07761287  0.32299780  1  -0.090629  -0.13799  0.00113  3.967914  0.001
C  C29  1  0.58448562  0.94176090  0.80104151  1  -0.036209  -0.191756  0.009605  4.193022  0.005
C  C30  1  0.41552591  0.05822339  0.19895986  1  -0.036205  -0.191651  0.009608  4.193004  0.005
C  C31  1  0.76537429  0.94255511  0.83286413  1  0.209912  0.31946  0.047041  4.06473  0.042
C  C32  1  0.23462755  0.05744561  0.16713425  1  0.209958  0.319511  0.047025  4.065047  0.042
C  C33  1  0.42292056  0.97439188  0.87094633  1  0.208588  0.323349  0.028376  4.066876  0.027
C  C34  1  0.57708830  0.02561314  0.12905275  1  0.208525  0.323185  0.028361  4.067372  0.027
C  C35  1  0.48222133  0.71662857  0.44164323  1  0.00274  -0.087808  0.003631  4.104043  0.003
C  C36  1  0.51778526  0.28337495  0.55835465  1  0.002725  -0.087694  0.003644  4.103786  0.003
C  C37  1  0.64433911  0.61858072  0.37951250  1  0.177059  0.24286  -0.000355  4.08542  0.0
C  C38  1  0.35564107  0.38143822  0.62048243  1  0.177226  0.242902  -0.000356  4.085228  0.0
C  C39  1  0.28575892  0.73974936  0.41425105  1  0.178208  0.238298  -0.000402  4.084697  0.0
C  C40  1  0.71423665  0.26025740  0.58574615  1  0.178162  0.23831  -0.000403  4.085104  0.0
C  C41  1  0.87598397  0.42316697  0.84293770  1  -0.145725  -0.120739  0.004254  3.885089  0.004
C  C42  1  0.12401637  0.57682947  0.15706270  1  -0.145724  -0.12077  0.004254  3.885068  0.004
N  N43  1  0.91135539  0.94490523  0.86644492  1  -0.347804  -0.456686  0.026153  3.110059  0.003
N  N44  1  0.08865591  0.05509239  0.13355565  1  -0.347804  -0.456676  0.026162  3.110335  0.003
N  N45  1  0.28556187  0.99350289  0.92888294  1  -0.344779  -0.453998  0.030936  3.1539  0.008
N  N46  1  0.71445546  0.00648012  0.07112418  1  -0.34477  -0.453927  0.030938  3.15421  0.008
N  N47  1  0.77310922  0.53216423  0.32678934  1  -0.30306  -0.364727  0.001485  2.762497  0.001
N  N48  1  0.22689255  0.46783654  0.67320977  1  -0.303168  -0.364769  0.00149  2.762755  0.001
N  N49  1  0.12336770  0.75776064  0.39132151  1  -0.298969  -0.356605  0.001683  2.76989  0.002
N  N50  1  0.87661890  0.24225211  0.60867243  1  -0.298945  -0.356638  0.001689  2.770083  0.002
O  O51  1  0.88088731  0.32698158  0.94604509  1  -0.390126  -0.460334  0.040092  2.46463  0.027
O  O52  1  0.11910655  0.67300902  0.05395405  1  -0.390091  -0.460304  0.040091  2.46459  0.027
