# generated using pymatgen
data_CdH10C10(NCl)2
_symmetry_space_group_name_H-M   'P 1'
_cell_length_a   3.82158767
_cell_length_b   8.52471274
_cell_length_c   17.59821646
_cell_angle_alpha   90.00042252
_cell_angle_beta   97.20114418
_cell_angle_gamma   90.00060269
_symmetry_Int_Tables_number   1
_chemical_formula_structural   CdH10C10(NCl)2
_chemical_formula_sum   'Cd2 H20 C20 N4 Cl4'
_cell_volume   568.79140432
_cell_formula_units_Z   2
loop_
 _symmetry_equiv_pos_site_id
 _symmetry_equiv_pos_as_xyz
  1  'x, y, z'
loop_
 _atom_site_type_symbol
 _atom_site_label
 _atom_site_symmetry_multiplicity
 _atom_site_fract_x
 _atom_site_fract_y
 _atom_site_fract_z
 _atom_site_occupancy
 _atom_site_hle17_bader_spin_density
 _atom_site_hle17_ddec_charge
 _atom_site_hle17_ddec_spin_density
 _atom_site_hle17_ddec_sum_bond_order
 _atom_site_hle17_magmom
 _atom_site_hse06_10hf_bader_spin_density
 _atom_site_hse06_10hf_ddec_charge
 _atom_site_hse06_10hf_ddec_spin_density
 _atom_site_hse06_10hf_ddec_sum_bond_order
 _atom_site_hse06_10hf_magmom
 _atom_site_hse06_bader_spin_density
 _atom_site_hse06_ddec_charge
 _atom_site_hse06_ddec_spin_density
 _atom_site_hse06_ddec_sum_bond_order
 _atom_site_hse06_magmom
 _atom_site_pbe_bader_spin_density
 _atom_site_pbe_cm5_charge
 _atom_site_pbe_ddec_charge
 _atom_site_pbe_ddec_spin_density
 _atom_site_pbe_ddec_sum_bond_order
 _atom_site_pbe_magmom
Cd  Cd0  1  0.99999569  0.00000026  0.00000213  1  0  0.932806  0  1.944449  0  0  0.762316  0  2.400248  0  0  0.808779  0  2.361718  0  0  0.594838  0.729538  0  2.426648  0
Cd  Cd1  1  0.49999991  0.49999483  0.49999996  1  0  0.932762  0  1.944423  0  0  0.762277  0  2.400203  0  0  0.808733  0  2.36168  0  0  0.594834  0.729498  0  2.426609  0
H  H2  1  0.15368775  0.06514179  0.82887535  1  0  0.070587  0  0.975151  0  0  0.077623  0  1.046164  0  0  0.079819  0  1.04411  0  0  0.100664  0.075941  0  1.047778  0
H  H3  1  0.34635084  0.56514157  0.67113321  1  0  0.070529  0  0.975304  0  0  0.07757  0  1.046307  0  0  0.079763  0  1.04426  0  0  0.100643  0.075888  0  1.047919  0
H  H4  1  0.84633752  0.93485373  0.17113296  1  0  0.070525  0  0.975299  0  0  0.077568  0  1.046289  0  0  0.079759  0  1.044246  0  0  0.100626  0.07589  0  1.04791  0
H  H5  1  0.65366516  0.43486099  0.32886869  1  0  0.070512  0  0.975294  0  0  0.077549  0  1.046299  0  0  0.079743  0  1.044249  0  0  0.100629  0.075865  0  1.047914  0
H  H6  1  0.13231934  0.27863911  0.72844111  1  0  0.106147  0  0.971894  0  0  0.114061  0  1.035802  0  0  0.117204  0  1.034851  0  0  0.095801  0.111811  0  1.036615  0
H  H7  1  0.36772841  0.77864633  0.77156333  1  0  0.106149  0  0.9719  0  0  0.114119  0  1.035748  0  0  0.117264  0  1.034793  0  0  0.095849  0.111869  0  1.036559  0
H  H8  1  0.86769753  0.72135524  0.27156478  1  0  0.106153  0  0.971987  0  0  0.114074  0  1.035889  0  0  0.117216  0  1.034937  0  0  0.095819  0.111823  0  1.036705  0
H  H9  1  0.63228885  0.22136444  0.22843233  1  0  0.106035  0  0.972041  0  0  0.114007  0  1.035899  0  0  0.11715  0  1.034947  0  0  0.095814  0.111756  0  1.036715  0
H  H10  1  0.93207398  0.54627861  0.76231642  1  0  0.084701  0  0.963288  0  0  0.098267  0  1.021906  0  0  0.10007  0  1.021461  0  0  0.103435  0.09695  0  1.022238  0
H  H11  1  0.56794657  0.04628527  0.73768144  1  0  0.084607  0  0.963426  0  0  0.098221  0  1.021999  0  0  0.100023  0  1.021557  0  0  0.103405  0.096904  0  1.022329  0
H  H12  1  0.06792657  0.45371808  0.23768692  1  0  0.084771  0  0.963278  0  0  0.098307  0  1.021917  0  0  0.100108  0  1.021477  0  0  0.103475  0.096989  0  1.022248  0
H  H13  1  0.43204849  0.95372433  0.26230872  1  0  0.084635  0  0.963366  0  0  0.09825  0  1.021947  0  0  0.100054  0  1.021503  0  0  0.103433  0.096933  0  1.022283  0
H  H14  1  0.74686172  0.59086709  0.89261161  1  0  0.106245  0  0.985585  0  0  0.112284  0  1.053352  0  0  0.115547  0  1.052179  0  0  0.091857  0.10986  0  1.054492  0
H  H15  1  0.75311949  0.09086929  0.60738177  1  0  0.106304  0  0.985537  0  0  0.112348  0  1.05331  0  0  0.115611  0  1.052139  0  0  0.091828  0.109921  0  1.054451  0
H  H16  1  0.25312253  0.40912843  0.10738917  1  0  0.106206  0  0.985587  0  0  0.112253  0  1.053362  0  0  0.115516  0  1.052191  0  0  0.09184  0.109827  0  1.054506  0
H  H17  1  0.24686203  0.90913444  0.39260645  1  0  0.106229  0  0.985645  0  0  0.112278  0  1.053394  0  0  0.115542  0  1.05222  0  0  0.091865  0.10985  0  1.054539  0
H  H18  1  0.76755592  0.36242140  0.98369344  1  0  0.07429  0  0.962396  0  0  0.082004  0  1.030195  0  0  0.08409  0  1.028753  0  0  0.10293  0.080412  0  1.031331  0
H  H19  1  0.73241335  0.86241246  0.51630138  1  0  0.074243  0  0.962322  0  0  0.081952  0  1.030149  0  0  0.084038  0  1.028702  0  0  0.102879  0.080362  0  1.031291  0
H  H20  1  0.23242269  0.63757763  0.01630554  1  0  0.074272  0  0.962379  0  0  0.081991  0  1.030168  0  0  0.084077  0  1.028727  0  0  0.102915  0.0804  0  1.031299  0
H  H21  1  0.26757744  0.13757954  0.48369325  1  0  0.074233  0  0.962408  0  0  0.081963  0  1.030195  0  0  0.084048  0  1.028756  0  0  0.102922  0.080373  0  1.031333  0
C  C22  1  0.06206475  0.18338726  0.83950285  1  0  0.115632  0  3.725775  0  0  0.083655  0  3.97893  0  0  0.090246  0  3.998538  0  0  0.037921  0.079445  0  3.96551  0
C  C23  1  0.43796055  0.68338266  0.66050480  1  0  0.115568  0  3.726011  0  0  0.0836  0  3.979128  0  0  0.090188  0  3.998749  0  0  0.037729  0.079391  0  3.965705  0
C  C24  1  0.93794998  0.81661295  0.16050527  1  0  0.115519  0  3.726188  0  0  0.083572  0  3.979308  0  0  0.090163  0  3.998922  0  0  0.037829  0.079351  0  3.9659  0
C  C25  1  0.56204955  0.31661989  0.33949414  1  0  0.115455  0  3.726027  0  0  0.083492  0  3.979165  0  0  0.090082  0  3.998778  0  0  0.03773  0.079285  0  3.965738  0
C  C26  1  0.05388856  0.30187294  0.78484862  1  0  -0.131079  0  3.74117  0  0  -0.139874  0  3.988591  0  0  -0.147329  0  4.010856  0  0  -0.089097  -0.135064  0  3.973572  0
C  C27  1  0.44615710  0.80187975  0.71515587  1  0  -0.131064  0  3.741535  0  0  -0.139897  0  3.988938  0  0  -0.147362  0  4.011222  0  0  -0.089068  -0.135083  0  3.973905  0
C  C28  1  0.94612580  0.69812375  0.21515780  1  0  -0.131163  0  3.741502  0  0  -0.13995  0  3.988895  0  0  -0.147414  0  4.011174  0  0  -0.08916  -0.135131  0  3.973865  0
C  C29  1  0.55385514  0.19812985  0.28484084  1  0  -0.130842  0  3.741749  0  0  -0.139667  0  3.989149  0  0  -0.147131  0  4.011436  0  0  -0.088989  -0.134846  0  3.974111  0
C  C30  1  0.94172212  0.45091854  0.80374729  1  0  -0.00284  0  3.720299  0  0  -0.020069  0  3.961567  0  0  -0.017039  0  3.98141  0  0  -0.068382  -0.021698  0  3.947891  0
C  C31  1  0.55829814  0.95091718  0.69625557  1  0  -0.002802  0  3.720653  0  0  -0.020075  0  3.961959  0  0  -0.017049  0  3.981808  0  0  -0.068446  -0.0217  0  3.94827  0
C  C32  1  0.05827366  0.54908050  0.19625824  1  0  -0.002852  0  3.720445  0  0  -0.020064  0  3.961747  0  0  -0.017034  0  3.981588  0  0  -0.06837  -0.02169  0  3.948069  0
C  C33  1  0.44170244  0.04909007  0.30373582  1  0  -0.002803  0  3.720531  0  0  -0.020104  0  3.961903  0  0  -0.017076  0  3.981744  0  0  -0.068459  -0.021738  0  3.948232  0
C  C34  1  0.83877681  0.47619121  0.87597951  1  0  -0.12143  0  3.729336  0  0  -0.129482  0  3.973694  0  0  -0.13694  0  3.995953  0  0  -0.086782  -0.124671  0  3.958702  0
C  C35  1  0.66121934  0.97619285  0.62401849  1  0  -0.121503  0  3.729084  0  0  -0.129571  0  3.973449  0  0  -0.137032  0  3.99571  0  0  -0.086701  -0.124757  0  3.958457  0
C  C36  1  0.16121333  0.52380666  0.12402421  1  0  -0.121326  0  3.729106  0  0  -0.129395  0  3.973447  0  0  -0.136855  0  3.99571  0  0  -0.086779  -0.124587  0  3.958457  0
C  C37  1  0.33876807  0.02380971  0.37597268  1  0  -0.12142  0  3.728957  0  0  -0.129484  0  3.973357  0  0  -0.136942  0  3.995614  0  0  -0.08677  -0.124666  0  3.958368  0
C  C38  1  0.85117922  0.35065893  0.92692730  1  0  0.124646  0  3.701335  0  0  0.094586  0  3.948289  0  0  0.101139  0  3.968183  0  0  0.041528  0.090446  0  3.934581  0
C  C39  1  0.64881184  0.85064803  0.57307240  1  0  0.124758  0  3.701336  0  0  0.094717  0  3.948238  0  0  0.101275  0  3.968139  0  0  0.041606  0.090575  0  3.934541  0
C  C40  1  0.14881055  0.64934597  0.07307471  1  0  0.124548  0  3.701113  0  0  0.094532  0  3.948045  0  0  0.101084  0  3.967946  0  0  0.041529  0.0904  0  3.934326  0
C  C41  1  0.35118434  0.14934983  0.42692290  1  0  0.124616  0  3.701418  0  0  0.094593  0  3.948319  0  0  0.101145  0  3.968221  0  0  0.04154  0.090453  0  3.934613  0
N  N42  1  0.96211028  0.20700499  0.90919816  1  0  -0.329548  0  3.28727  0  0  -0.250427  0  3.548066  0  0  -0.271178  0  3.570625  0  0  -0.332126  -0.236242  0  3.532248  0
N  N43  1  0.53789408  0.70699963  0.59080518  1  0  -0.329455  0  3.287363  0  0  -0.25036  0  3.548225  0  0  -0.271086  0  3.570718  0  0  -0.331979  -0.236179  0  3.532422  0
N  N44  1  0.03788575  0.79300109  0.09080851  1  0  -0.329312  0  3.287238  0  0  -0.250284  0  3.548132  0  0  -0.271012  0  3.570636  0  0  -0.331984  -0.236103  0  3.532317  0
N  N45  1  0.46211050  0.29299941  0.40919254  1  0  -0.329326  0  3.287312  0  0  -0.250248  0  3.54815  0  0  -0.270979  0  3.570667  0  0  -0.331976  -0.23607  0  3.532339  0
Cl  Cl46  1  0.44904258  0.85082719  0.92122889  1  0  -0.563741  0  0.97988  0  0  -0.503774  0  1.257863  0  0  -0.520012  0  1.236818  0  0  -0.295158  -0.491952  0  1.272567  0
Cl  Cl47  1  0.05094865  0.35082322  0.57877373  1  0  -0.563729  0  0.979797  0  0  -0.503778  0  1.25778  0  0  -0.52001  0  1.236723  0  0  -0.295175  -0.49195  0  1.272484  0
Cl  Cl48  1  0.55095835  0.14917185  0.07877616  1  0  -0.563726  0  0.979847  0  0  -0.503768  0  1.257836  0  0  -0.519997  0  1.236779  0  0  -0.295158  -0.491945  0  1.272544  0
Cl  Cl49  1  0.94905165  0.64917112  0.42122846  1  0  -0.563725  0  0.979885  0  0  -0.503759  0  1.257857  0  0  -0.519998  0  1.236813  0  0  -0.295149  -0.491932  0  1.272567  0
