# generated using pymatgen
data_AgH16C13N5O4
_symmetry_space_group_name_H-M   'P 1'
_cell_length_a   6.62999613
_cell_length_b   10.29988823
_cell_length_c   23.80004487
_cell_angle_alpha   89.99968549
_cell_angle_beta   89.99950131
_cell_angle_gamma   90.98752908
_symmetry_Int_Tables_number   1
_chemical_formula_structural   AgH16C13N5O4
_chemical_formula_sum   'Ag4 H64 C52 N20 O16'
_cell_volume   1625.02127786
_cell_formula_units_Z   4
loop_
 _symmetry_equiv_pos_site_id
 _symmetry_equiv_pos_as_xyz
  1  'x, y, z'
loop_
 _atom_site_type_symbol
 _atom_site_label
 _atom_site_symmetry_multiplicity
 _atom_site_fract_x
 _atom_site_fract_y
 _atom_site_fract_z
 _atom_site_occupancy
 _atom_site_pbe_bader_charge
 _atom_site_pbe_bader_spin_density
 _atom_site_pbe_cm5_charge
 _atom_site_pbe_ddec_charge
 _atom_site_pbe_ddec_spin_density
 _atom_site_pbe_ddec_sum_bond_order
 _atom_site_pbe_magmom
Ag  Ag0  1  0.89255307  0.24886605  0.23784806  1  0.552855  0  0.442389  0.34176  0  1.711588  0
Ag  Ag1  1  0.39255576  0.74885720  0.26214406  1  0.552705  0  0.442453  0.341858  0  1.71163  0
Ag  Ag2  1  0.10744938  0.75113643  0.76215355  1  0.552959  0  0.442398  0.341721  0  1.711826  0
Ag  Ag3  1  0.60745984  0.25113829  0.73785167  1  0.552795  0  0.442425  0.341824  0  1.711622  0
H  H4  1  0.36880753  0.15614468  0.26733460  1  0.104091  0  0.120259  0.097767  0  1.007832  0
H  H5  1  0.86881261  0.65615093  0.23265931  1  0.10409  0  0.120276  0.097751  0  1.007905  0
H  H6  1  0.63117237  0.84385910  0.73267416  1  0.104071  0  0.120261  0.097781  0  1.007864  0
H  H7  1  0.13119847  0.34384463  0.76733348  1  0.103786  0  0.120297  0.097823  0  1.007785  0
H  H8  1  0.38062532  0.27034145  0.20923009  1  0.065836  0  0.118878  0.095505  0  0.999831  0
H  H9  1  0.88061278  0.77033650  0.29076341  1  0.066087  0  0.118948  0.095604  0  0.999695  0
H  H10  1  0.61935717  0.72965550  0.79077320  1  0.066025  0  0.118883  0.095428  0  0.999983  0
H  H11  1  0.11940066  0.22964834  0.70923274  1  0.065888  0  0.11897  0.095577  0  0.999726  0
H  H12  1  0.18587846  0.20557772  0.34994321  1  0.114277  0  0.118186  0.092497  0  1.014621  0
H  H13  1  0.68590587  0.70559194  0.15004807  1  0.114564  0  0.118148  0.092447  0  1.014719  0
H  H14  1  0.81410511  0.79443670  0.65006428  1  0.114092  0  0.11816  0.092434  0  1.014644  0
H  H15  1  0.31410857  0.29440940  0.84994598  1  0.114514  0  0.11821  0.092493  0  1.01465  0
H  H16  1  0.06352043  0.35880952  0.35687992  1  0.025004  0  0.110617  0.069034  0  0.984724  0
H  H17  1  0.56354423  0.85881915  0.14311338  1  0.024998  0  0.110608  0.068987  0  0.984556  0
H  H18  1  0.93648309  0.64121044  0.64312715  1  0.025163  0  0.110637  0.068982  0  0.984788  0
H  H19  1  0.43647509  0.14118796  0.85688403  1  0.024919  0  0.110607  0.069035  0  0.984697  0
H  H20  1  0.69315271  0.34364252  0.35943695  1  0.034954  0  0.108623  0.06533  0  0.993471  0
H  H21  1  0.19317142  0.84366621  0.14056450  1  0.034831  0  0.108636  0.065352  0  0.99344  0
H  H22  1  0.30684974  0.65635997  0.64056550  1  0.034918  0  0.108636  0.065283  0  0.993432  0
H  H23  1  0.80684435  0.15633219  0.85943333  1  0.034971  0  0.108632  0.06536  0  0.993506  0
H  H24  1  0.54540893  0.19690570  0.35063372  1  0.102738  0  0.117217  0.095352  0  1.022344  0
H  H25  1  0.04543968  0.69692216  0.14935956  1  0.10269  0  0.117185  0.095359  0  1.022254  0
H  H26  1  0.45458597  0.80309690  0.64937083  1  0.102847  0  0.11718  0.095292  0  1.022314  0
H  H27  1  0.95457778  0.30307914  0.85063491  1  0.102972  0  0.117201  0.095381  0  1.022282  0
H  H28  1  0.57632274  0.46839834  0.21957810  1  0.116539  0  0.119556  0.095365  0  1.009922  0
H  H29  1  0.07630562  0.96839700  0.28042529  1  0.116492  0  0.119552  0.095402  0  1.009774  0
H  H30  1  0.42366397  0.53159369  0.78042309  1  0.116392  0  0.119572  0.095336  0  1.009847  0
H  H31  1  0.92370323  0.03158694  0.71957590  1  0.116664  0  0.119594  0.095425  0  1.009753  0
H  H32  1  0.70796578  0.49958790  0.28394425  1  0.032831  0  0.111629  0.066292  0  1.007745  0
H  H33  1  0.20796293  0.99959703  0.21606143  1  0.034918  0  0.111616  0.066326  0  1.00772  0
H  H34  1  0.29203927  0.50040775  0.71605400  1  0.032838  0  0.111619  0.066297  0  1.007685  0
H  H35  1  0.79205562  0.00039746  0.78394144  1  0.032562  0  0.111631  0.066301  0  1.007842  0
H  H36  1  0.07868559  0.51276966  0.28209605  1  0.042174  0  0.114492  0.07585  0  0.993609  0
H  H37  1  0.57869191  0.01276828  0.21790265  1  0.042181  0  0.114495  0.075906  0  0.993651  0
H  H38  1  0.92132782  0.48723947  0.71791187  1  0.042025  0  0.114445  0.075791  0  0.993538  0
H  H39  1  0.42132971  0.98722713  0.78209813  1  0.041974  0  0.114488  0.075904  0  0.993473  0
H  H40  1  0.20903904  0.47684605  0.21845695  1  0.098061  0  0.117709  0.093062  0  1.027311  0
H  H41  1  0.70902289  0.97683852  0.28154156  1  0.098083  0  0.117716  0.093102  0  1.027316  0
H  H42  1  0.79095020  0.52316245  0.78154845  1  0.097946  0  0.117712  0.093031  0  1.027218  0
H  H43  1  0.29099084  0.02315118  0.71845711  1  0.098076  0  0.11763  0.092995  0  1.027383  0
H  H44  1  0.52891050  0.54874203  0.36783647  1  0.076043  0  0.11822  0.086598  0  0.95344  0
H  H45  1  0.02893561  0.04876367  0.13216772  1  0.075831  0  0.118172  0.086573  0  0.953618  0
H  H46  1  0.47110991  0.45125826  0.63216515  1  0.076161  0  0.11821  0.086634  0  0.953495  0
H  H47  1  0.97109252  0.95123942  0.86783557  1  0.075984  0  0.118206  0.086664  0  0.953447  0
H  H48  1  0.26068708  0.55649366  0.36716994  1  0.100245  0  0.117651  0.09169  0  0.979008  0
H  H49  1  0.76070000  0.05651611  0.13282938  1  0.100042  0  0.117597  0.091707  0  0.978983  0
H  H50  1  0.73933706  0.44351823  0.63283503  1  0.100346  0  0.117601  0.091673  0  0.979005  0
H  H51  1  0.23932686  0.94349089  0.86717181  1  0.100477  0  0.117617  0.091731  0  0.978995  0
H  H52  1  0.70776689  0.23655382  0.04813238  1  0.086921  0  0.106893  0.114312  0  0.995469  0
H  H53  1  0.20782549  0.73650256  0.45185791  1  0.086474  0  0.106791  0.114107  0  0.995459  0
H  H54  1  0.29220083  0.76344820  0.95186924  1  0.086806  0  0.106887  0.114316  0  0.995388  0
H  H55  1  0.79216236  0.26350791  0.54813488  1  0.085971  0  0.106823  0.114154  0  0.995561  0
H  H56  1  0.64506312  0.28409749  0.94543223  1  0.112603  0  0.111684  0.117841  0  0.99868  0
H  H57  1  0.14509625  0.78405165  0.55456052  1  0.112815  0  0.111575  0.117867  0  0.998803  0
H  H58  1  0.35491648  0.71590143  0.05456938  1  0.112673  0  0.111677  0.117833  0  0.998778  0
H  H59  1  0.85485652  0.21595252  0.44542974  1  0.112375  0  0.111604  0.117929  0  0.998699  0
H  H60  1  0.78990458  0.68644989  0.97458641  1  0.118303  0  0.114804  0.12238  0  0.989401  0
H  H61  1  0.28984670  0.18642830  0.52539664  1  0.118354  0  0.114709  0.122185  0  0.989232  0
H  H62  1  0.21009709  0.31353997  0.02541521  1  0.118098  0  0.114809  0.122376  0  0.989458  0
H  H63  1  0.71011377  0.81357868  0.47459993  1  0.118293  0  0.114749  0.122161  0  0.989321  0
H  H64  1  0.85541987  0.63823154  0.07598864  1  0.092636  0  0.104805  0.10734  0  1.039024  0
H  H65  1  0.35536148  0.13819805  0.42399317  1  0.093032  0  0.104706  0.107328  0  1.039313  0
H  H66  1  0.14458765  0.36175533  0.92401087  1  0.092829  0  0.104773  0.107293  0  1.039055  0
H  H67  1  0.64462317  0.86180954  0.57600550  1  0.093146  0  0.10473  0.10737  0  1.039177  0
C  C68  1  0.37730599  0.25874800  0.25504724  1  0.521671  0  0.014046  -0.0079  0  3.808431  0
C  C69  1  0.87730709  0.75875394  0.24494544  1  0.521034  0  0.014046  -0.008029  0  3.80884  0
C  C70  1  0.62267373  0.74125287  0.74495899  1  0.521385  0  0.014065  -0.007919  0  3.808616  0
C  C71  1  0.12270218  0.24123679  0.75504945  1  0.521497  0  0.01393  -0.007944  0  3.808426  0
C  C72  1  0.19607488  0.30934891  0.33992938  1  0.565421  0  0.013959  0.00086  0  3.894355  0
C  C73  1  0.69609943  0.80935802  0.16006361  1  0.565637  0  0.014072  0.001053  0  3.89456  0
C  C74  1  0.80391912  0.69066341  0.66007518  1  0.565495  0  0.014042  0.001177  0  3.894347  0
C  C75  1  0.30392123  0.19064615  0.83993170  1  0.565307  0  0.014014  0.001037  0  3.894377  0
C  C76  1  0.55488005  0.30110118  0.34107241  1  0.544866  0  0.012173  -0.005565  0  3.901147  0
C  C77  1  0.05490211  0.80111651  0.15892594  1  0.544792  0  0.012269  -0.005331  0  3.900951  0
C  C78  1  0.44511944  0.69890232  0.65893130  1  0.545041  0  0.012249  -0.005308  0  3.900837  0
C  C79  1  0.94511059  0.19888097  0.84107105  1  0.544625  0  0.012298  -0.005428  0  3.900932  0
C  C80  1  0.57097609  0.45624410  0.26530156  1  0.556446  0  0.010811  -0.010456  0  3.887776  0
C  C81  1  0.07096762  0.95624595  0.23469976  1  0.55442  0  0.010895  -0.010456  0  3.887835  0
C  C82  1  0.42902605  0.54375353  0.73470047  1  0.556192  0  0.010869  -0.010442  0  3.887596  0
C  C83  1  0.92905081  0.04374659  0.76530143  1  0.556453  0  0.01088  -0.010441  0  3.887803  0
C  C84  1  0.21001021  0.46419142  0.26412240  1  0.581021  0  0.009147  -0.010754  0  3.872452  0
C  C85  1  0.71000759  0.96419282  0.23587651  1  0.580916  0  0.009126  -0.010919  0  3.872577  0
C  C86  1  0.78999248  0.53581495  0.73588174  1  0.581041  0  0.009298  -0.010405  0  3.872151  0
C  C87  1  0.29000794  0.03580170  0.76412258  1  0.581434  0  0.009282  -0.010599  0  3.872259  0
C  C88  1  0.39060346  0.50492541  0.35008327  1  0.539912  0  0.017637  0.010578  0  3.894122  0
C  C89  1  0.89062154  0.00494533  0.14991618  1  0.54053  0  0.017728  0.010579  0  3.894397  0
C  C90  1  0.60941122  0.49507982  0.64992086  1  0.539446  0  0.017711  0.010635  0  3.894153  0
C  C91  1  0.10940502  0.99505681  0.85008544  1  0.539929  0  0.017694  0.010563  0  3.894241  0
C  C92  1  0.82179339  0.40608655  0.12988562  1  1.602559  0  0.181707  0.545485  0  4.284069  0
C  C93  1  0.32177790  0.90604462  0.37010348  1  1.602491  0  0.181632  0.544823  0  4.284612  0
C  C94  1  0.17819797  0.59390735  0.87011557  1  1.602483  0  0.181672  0.545416  0  4.283949  0
C  C95  1  0.67820838  0.09396490  0.62989141  1  1.602502  0  0.181518  0.544512  0  4.284965  0
C  C96  1  0.78482620  0.43422252  0.06811700  1  -0.078166  0  -0.009028  -0.010793  0  3.921095  0
C  C97  1  0.28482718  0.93418142  0.43187748  1  -0.078506  0  -0.008965  -0.010106  0  3.920404  0
C  C98  1  0.21515478  0.56577445  0.93188504  1  -0.077882  0  -0.009023  -0.010766  0  3.92091  0
C  C99  1  0.71515898  0.06582615  0.56811993  1  -0.078438  0  -0.008846  -0.009896  0  3.920014  0
C  C100  1  0.72683321  0.33420418  0.03117440  1  0.016751  0  -0.082342  -0.089461  0  3.958369  0
C  C101  1  0.22685096  0.83416272  0.46881709  1  0.016011  0  -0.082323  -0.089276  0  3.958067  0
C  C102  1  0.27316429  0.66579157  0.96882511  1  0.017109  0  -0.08237  -0.089504  0  3.957869  0
C  C103  1  0.77313080  0.16584687  0.53117612  1  0.016638  0  -0.082402  -0.08944  0  3.958204  0
C  C104  1  0.69183840  0.35990379  0.97468286  1  -0.040906  0  -0.078425  -0.114327  0  3.973035  0
C  C105  1  0.19186276  0.85985992  0.52531253  1  -0.04151  0  -0.07825  -0.11467  0  3.973108  0
C  C106  1  0.30814252  0.64009220  0.02532085  1  -0.041346  0  -0.078326  -0.114271  0  3.972902  0
C  C107  1  0.80810061  0.14014507  0.47468279  1  -0.040993  0  -0.078183  -0.114547  0  3.97285  0
C  C108  1  0.71477292  0.48746909  0.95553203  1  0.199422  0  0.078076  0.057773  0  3.962834  0
C  C109  1  0.21476272  0.98743777  0.54445322  1  0.198034  0  0.078071  0.058158  0  3.962815  0
C  C110  1  0.28522157  0.51252670  0.04447042  1  0.199443  0  0.078028  0.057815  0  3.96302  0
C  C111  1  0.78519601  0.01256534  0.45553957  1  0.197775  0  0.078014  0.058159  0  3.962558  0
C  C112  1  0.77297114  0.58869517  0.99131244  1  -0.027788  0  -0.076372  -0.112581  0  3.983778  0
C  C113  1  0.27294642  0.08866097  0.50867652  1  -0.026033  0  -0.076176  -0.112129  0  3.983571  0
C  C114  1  0.22703638  0.41129170  0.00868791  1  -0.027319  0  -0.076343  -0.112659  0  3.983784  0
C  C115  1  0.72703040  0.91134188  0.49132341  1  -0.025978  0  -0.076229  -0.112211  0  3.983954  0
C  C116  1  0.80831005  0.56102794  0.04745356  1  0.064852  0  -0.083552  -0.094536  0  3.967392  0
C  C117  1  0.30828741  0.06099018  0.45252983  1  0.064984  0  -0.083564  -0.095148  0  3.967586  0
C  C118  1  0.19168704  0.43896102  0.95254848  1  0.0646  0  -0.083458  -0.094337  0  3.967264  0
C  C119  1  0.69168477  0.93901080  0.54746338  1  0.065018  0  -0.083615  -0.095225  0  3.967461  0
N  N120  1  0.56508445  0.31623809  0.27903468  1  -0.969683  0  -0.345874  -0.162594  0  3.414808  0
N  N121  1  0.06509509  0.81624201  0.22096529  1  -0.969569  0  -0.346017  -0.162798  0  3.415088  0
N  N122  1  0.43490570  0.68376069  0.72096861  1  -0.9697  0  -0.345955  -0.162481  0  3.414793  0
N  N123  1  0.93492334  0.18375053  0.77903255  1  -0.969712  0  -0.346098  -0.162829  0  3.414977  0
N  N124  1  0.19402614  0.32367780  0.27754338  1  -0.986266  0  -0.350621  -0.156592  0  3.444129  0
N  N125  1  0.69403204  0.82368046  0.22245048  1  -0.985924  0  -0.35072  -0.156646  0  3.444502  0
N  N126  1  0.80596605  0.67632969  0.72246286  1  -0.986141  0  -0.350761  -0.1569  0  3.444142  0
N  N127  1  0.30598657  0.17631499  0.77754609  1  -0.986017  0  -0.350594  -0.156758  0  3.444275  0
N  N128  1  0.37911058  0.36669890  0.36483826  1  -0.996255  0  -0.355729  -0.215295  0  3.405556  0
N  N129  1  0.87913456  0.86671751  0.13515956  1  -0.996498  0  -0.355732  -0.215324  0  3.406032  0
N  N130  1  0.62089669  0.63330837  0.63516629  1  -0.996386  0  -0.355753  -0.215484  0  3.405816  0
N  N131  1  0.12088308  0.13328671  0.86483869  1  -0.996597  0  -0.355732  -0.21542  0  3.405668  0
N  N132  1  0.39443018  0.52404205  0.28818086  1  -0.996072  0  -0.354082  -0.15931  0  3.460342  0
N  N133  1  0.89443352  0.02404576  0.21181984  1  -0.996156  0  -0.354098  -0.159342  0  3.460383  0
N  N134  1  0.60557986  0.47596130  0.71182285  1  -0.995496  0  -0.354189  -0.159575  0  3.460435  0
N  N135  1  0.10558810  0.97594965  0.78818178  1  -0.995778  0  -0.354228  -0.159543  0  3.460906  0
N  N136  1  0.67591016  0.51743938  0.89660291  1  0.343919  0  0.055696  0.516367  0  4.186976  0
N  N137  1  0.17591149  0.01741462  0.60338343  1  0.343631  0  0.055474  0.516124  0  4.186323  0
N  N138  1  0.32408874  0.48255441  0.10339829  1  0.343962  0  0.055766  0.516479  0  4.186794  0
N  N139  1  0.82407274  0.98258619  0.39661188  1  0.343627  0  0.05546  0.515997  0  4.186589  0
O  O140  1  0.77224716  0.29220663  0.14638489  1  -1.158168  0  -0.345422  -0.55207  0  2.271461  0
O  O141  1  0.27227321  0.79216557  0.35360828  1  -1.157414  0  -0.345289  -0.551644  0  2.271524  0
O  O142  1  0.22773352  0.70778548  0.85361672  1  -1.158495  0  -0.345358  -0.551962  0  2.271393  0
O  O143  1  0.72772832  0.20784665  0.64638619  1  -1.157424  0  -0.345293  -0.551508  0  2.2715  0
O  O144  1  0.89708088  0.49641714  0.15958151  1  -1.196175  0  -0.339952  -0.582806  0  2.183966  0
O  O145  1  0.39704038  0.99638326  0.34040033  1  -1.196435  0  -0.339965  -0.58273  0  2.184434  0
O  O146  1  0.10292073  0.50357175  0.84041716  1  -1.196045  0  -0.339991  -0.582877  0  2.183965  0
O  O147  1  0.60296996  0.00362495  0.65959541  1  -1.196457  0  -0.339957  -0.582646  0  2.184401  0
O  O148  1  0.70092435  0.63127671  0.88061045  1  -0.4627  0  -0.119044  -0.323935  0  1.964311  0
O  O149  1  0.20091137  0.13125264  0.61937159  1  -0.463093  0  -0.118875  -0.323765  0  1.964141  0
O  O150  1  0.29907606  0.36871706  0.11939200  1  -0.462884  0  -0.11915  -0.324054  0  1.964178  0
O  O151  1  0.79909681  0.86874491  0.38062414  1  -0.463123  0  -0.118864  -0.323678  0  1.964101  0
O  O152  1  0.61786670  0.42728092  0.86522165  1  -0.500768  0  -0.12646  -0.350114  0  2.009089  0
O  O153  1  0.11788496  0.92725233  0.63477023  1  -0.499464  0  -0.12648  -0.350236  0  2.008765  0
O  O154  1  0.38213551  0.57271768  0.13477913  1  -0.50075  0  -0.126472  -0.350167  0  2.008845  0
O  O155  1  0.88211122  0.07274636  0.36522677  1  -0.49967  0  -0.126476  -0.350191  0  2.008933  0
