# generated using pymatgen
data_Cu2H27C27S3I2N3
_symmetry_space_group_name_H-M   'P 1'
_cell_length_a   9.21836108
_cell_length_b   14.39813189
_cell_length_c   16.88343735
_cell_angle_alpha   113.27797412
_cell_angle_beta   89.68823047
_cell_angle_gamma   99.76615090
_symmetry_Int_Tables_number   1
_chemical_formula_structural   Cu2H27C27S3I2N3
_chemical_formula_sum   'Cu4 H54 C54 S6 I4 N6'
_cell_volume   2023.94698177
_cell_formula_units_Z   2
loop_
 _symmetry_equiv_pos_site_id
 _symmetry_equiv_pos_as_xyz
  1  'x, y, z'
loop_
 _atom_site_type_symbol
 _atom_site_label
 _atom_site_symmetry_multiplicity
 _atom_site_fract_x
 _atom_site_fract_y
 _atom_site_fract_z
 _atom_site_occupancy
 _atom_site_hle17_bader_spin_density
 _atom_site_hle17_ddec_charge
 _atom_site_hle17_ddec_spin_density
 _atom_site_hle17_ddec_sum_bond_order
 _atom_site_hle17_magmom
 _atom_site_hse06_10hf_bader_spin_density
 _atom_site_hse06_10hf_ddec_charge
 _atom_site_hse06_10hf_ddec_spin_density
 _atom_site_hse06_10hf_ddec_sum_bond_order
 _atom_site_hse06_10hf_magmom
 _atom_site_hse06_bader_spin_density
 _atom_site_hse06_ddec_charge
 _atom_site_hse06_ddec_spin_density
 _atom_site_hse06_ddec_sum_bond_order
 _atom_site_hse06_magmom
 _atom_site_pbe_bader_spin_density
 _atom_site_pbe_cm5_charge
 _atom_site_pbe_ddec_charge
 _atom_site_pbe_ddec_spin_density
 _atom_site_pbe_ddec_sum_bond_order
 _atom_site_pbe_magmom
Cu  Cu0  1  0.98538589  0.94518912  0.67339541  1  0  0.294762  0  2.142794  0  0  0.192035  0  2.641285  0  0  0.196785  0  2.590862  0  0  0.34923  0.193022  0  2.672105  0
Cu  Cu1  1  0.01461428  0.05481116  0.32660531  1  0  0.294739  0  2.142797  0  0  0.192025  0  2.641311  0  0  0.196791  0  2.590896  0  0  0.349215  0.192965  0  2.672079  0
Cu  Cu2  1  0.13271865  0.00230573  0.56493705  1  0  0.25552  0  2.195509  0  0  0.175508  0  2.68753  0  0  0.18967  0  2.629453  0  0  0.239863  0.167852  0  2.725477  0
Cu  Cu3  1  0.86728082  0.99769609  0.43506419  1  0  0.255534  0  2.195494  0  0  0.175525  0  2.687528  0  0  0.189657  0  2.629446  0  0  0.239847  0.167859  0  2.725465  0
H  H4  1  0.09215332  0.75559628  0.05401091  1  0  0.101138  0  0.965107  0  0  0.113119  0  1.022448  0  0  0.116515  0  1.021283  0  0  0.103296  0.110636  0  1.023556  0
H  H5  1  0.90784862  0.24440247  0.94598929  1  0  0.101157  0  0.965135  0  0  0.113171  0  1.022445  0  0  0.11657  0  1.021276  0  0  0.103306  0.110689  0  1.023554  0
H  H6  1  0.29672105  0.68714962  0.63235157  1  0  0.101156  0  0.989471  0  0  0.117042  0  1.051598  0  0  0.118172  0  1.051801  0  0  0.09157  0.116124  0  1.051555  0
H  H7  1  0.70327586  0.31285066  0.36764856  1  0  0.101167  0  0.989442  0  0  0.117021  0  1.051594  0  0  0.11815  0  1.051798  0  0  0.091563  0.116103  0  1.051552  0
H  H8  1  0.25011569  0.56995763  0.54150250  1  0  0.083397  0  0.994745  0  0  0.092535  0  1.067509  0  0  0.094404  0  1.066354  0  0  0.087399  0.091122  0  1.068491  0
H  H9  1  0.74988339  0.43004265  0.45849704  1  0  0.083355  0  0.994807  0  0  0.09247  0  1.067578  0  0  0.094338  0  1.066422  0  0  0.087372  0.091056  0  1.068559  0
H  H10  1  0.66744323  0.17005786  0.58786500  1  0  0.103945  0  1.015754  0  0  0.114549  0  1.079278  0  0  0.117337  0  1.079239  0  0  0.083956  0.112409  0  1.079641  0
H  H11  1  0.33255694  0.82994243  0.41213453  1  0  0.10396  0  1.015745  0  0  0.114565  0  1.07927  0  0  0.117354  0  1.07923  0  0  0.083964  0.112425  0  1.079635  0
H  H12  1  0.67414020  0.88059523  0.59607530  1  0  0.074328  0  0.958565  0  0  0.081689  0  1.025517  0  0  0.083909  0  1.023913  0  0  0.100653  0.079917  0  1.026905  0
H  H13  1  0.32586125  0.11940583  0.40392687  1  0  0.074347  0  0.958558  0  0  0.081706  0  1.025508  0  0  0.083927  0  1.023906  0  0  0.100656  0.079928  0  1.026897  0
H  H14  1  0.46452918  0.74117008  0.57695030  1  0  0.103364  0  1.001583  0  0  0.110936  0  1.069622  0  0  0.1141  0  1.06902  0  0  0.090596  0.108627  0  1.070239  0
H  H15  1  0.53546960  0.25883328  0.42305146  1  0  0.10336  0  1.001589  0  0  0.110932  0  1.069625  0  0  0.114095  0  1.069024  0  0  0.090599  0.10862  0  1.070244  0
H  H16  1  0.45796355  0.03641665  0.58397840  1  0  0.073447  0  0.952907  0  0  0.07936  0  1.023182  0  0  0.082292  0  1.020305  0  0  0.10085  0.0771  0  1.025419  0
H  H17  1  0.54203357  0.96358440  0.41602080  1  0  0.073397  0  0.95291  0  0  0.079324  0  1.023177  0  0  0.082254  0  1.020305  0  0  0.10085  0.077065  0  1.025407  0
H  H18  1  0.74898157  0.61317408  0.69518472  1  0  0.102405  0  0.978097  0  0  0.107511  0  1.049855  0  0  0.110618  0  1.049596  0  0  0.096041  0.105285  0  1.050216  0
H  H19  1  0.25101752  0.38682621  0.30481482  1  0  0.102388  0  0.97811  0  0  0.10749  0  1.049878  0  0  0.110599  0  1.049614  0  0  0.09603  0.105263  0  1.05024  0
H  H20  1  0.95036497  0.75493735  0.70261356  1  0  0.06983  0  0.951689  0  0  0.075397  0  1.024459  0  0  0.077946  0  1.02209  0  0  0.103388  0.073445  0  1.026328  0
H  H21  1  0.04963609  0.24506217  0.29738572  1  0  0.069826  0  0.951665  0  0  0.07537  0  1.024457  0  0  0.077918  0  1.022088  0  0  0.103383  0.073416  0  1.026326  0
H  H22  1  0.10166967  0.33250647  0.52829314  1  0  0.114839  0  0.943015  0  0  0.137903  0  1.0031  0  0  0.138423  0  1.004118  0  0  0.09343  0.137395  0  1.00253  0
H  H23  1  0.89833070  0.66749458  0.47170666  1  0  0.114813  0  0.943027  0  0  0.137878  0  1.00311  0  0  0.138397  0  1.004129  0  0  0.09341  0.137373  0  1.002542  0
H  H24  1  0.14236315  0.43530316  0.49538709  1  0  0.107478  0  0.974241  0  0  0.128441  0  1.034681  0  0  0.129642  0  1.035357  0  0  0.086805  0.127571  0  1.034244  0
H  H25  1  0.85763722  0.56469789  0.50461270  1  0  0.107467  0  0.974159  0  0  0.128431  0  1.034605  0  0  0.129633  0  1.03528  0  0  0.086802  0.127561  0  1.034171  0
H  H26  1  0.95761130  0.37657366  0.49457039  1  0  0.111733  0  0.964172  0  0  0.131451  0  1.030222  0  0  0.132684  0  1.030593  0  0  0.08667  0.130459  0  1.030078  0
H  H27  1  0.04238887  0.62342663  0.50542915  1  0  0.111723  0  0.96419  0  0  0.13143  0  1.030246  0  0  0.132663  0  1.030617  0  0  0.086661  0.13044  0  1.030099  0
H  H28  1  0.15346104  0.71134273  0.92176431  1  0  0.095214  0  0.941815  0  0  0.112939  0  0.994953  0  0  0.114042  0  0.994294  0  0  0.101771  0.112126  0  0.995466  0
H  H29  1  0.84654021  0.28865756  0.07823641  1  0  0.095217  0  0.941826  0  0  0.112939  0  0.994967  0  0  0.114041  0  0.994309  0  0  0.101773  0.112131  0  0.99548  0
H  H30  1  0.99254156  0.62828668  0.92843553  1  0  0.095199  0  0.941106  0  0  0.113021  0  0.99493  0  0  0.114005  0  0.994539  0  0  0.101459  0.112302  0  0.995231  0
H  H31  1  0.00745949  0.37171284  0.07156493  1  0  0.095189  0  0.941123  0  0  0.113014  0  0.994944  0  0  0.113998  0  0.994553  0  0  0.101439  0.112295  0  0.995246  0
H  H32  1  0.10782684  0.86455158  0.20939893  1  0  0.070342  0  0.97656  0  0  0.078507  0  1.042184  0  0  0.081971  0  1.038192  0  0  0.095583  0.075837  0  1.045204  0
H  H33  1  0.89217639  0.13544795  0.79060153  1  0  0.070369  0  0.976487  0  0  0.078521  0  1.042116  0  0  0.081984  0  1.038126  0  0  0.09562  0.075852  0  1.045132  0
H  H34  1  0.84233747  0.05171129  0.17422020  1  0  0.070598  0  0.955922  0  0  0.076639  0  1.026936  0  0  0.079869  0  1.023306  0  0  0.105699  0.074126  0  1.029786  0
H  H35  1  0.15766102  0.94828669  0.82578093  1  0  0.070611  0  0.955929  0  0  0.076654  0  1.026936  0  0  0.079886  0  1.023307  0  0  0.105685  0.074141  0  1.029784  0
H  H36  1  0.85671418  0.44132019  0.84556167  1  0  0.106525  0  0.926961  0  0  0.129861  0  0.982266  0  0  0.130769  0  0.982514  0  0  0.091238  0.129188  0  0.982117  0
H  H37  1  0.14328599  0.55868009  0.15443846  1  0  0.106571  0  0.926883  0  0  0.129882  0  0.98222  0  0  0.130791  0  0.982467  0  0  0.09125  0.129211  0  0.982072  0
H  H38  1  0.71948028  0.44321701  0.77310867  1  0  0.106219  0  0.980918  0  0  0.124701  0  1.044671  0  0  0.126524  0  1.044244  0  0  0.086537  0.123351  0  1.045009  0
H  H39  1  0.28051990  0.55678328  0.22689028  1  0  0.106193  0  0.980951  0  0  0.124667  0  1.044709  0  0  0.126486  0  1.044285  0  0  0.086524  0.123326  0  1.045038  0
H  H40  1  0.78944309  0.55624190  0.86361260  1  0  0.103347  0  0.962953  0  0  0.123448  0  1.024235  0  0  0.125082  0  1.023602  0  0  0.087319  0.122302  0  1.024659  0
H  H41  1  0.21055600  0.44375838  0.13638635  1  0  0.10332  0  0.96296  0  0  0.123413  0  1.024252  0  0  0.125046  0  1.023616  0  0  0.087291  0.122267  0  1.024675  0
H  H42  1  0.80937626  0.31651336  0.68048046  1  0  0.102237  0  0.943114  0  0  0.117081  0  1.002651  0  0  0.118077  0  1.00257  0  0  0.098142  0.116311  0  1.002773  0
H  H43  1  0.19062519  0.68348770  0.31951992  1  0  0.102257  0  0.943123  0  0  0.117105  0  1.002646  0  0  0.118102  0  1.002564  0  0  0.098155  0.116336  0  1.002768  0
H  H44  1  0.87322723  0.29429240  0.57637657  1  0  0.099929  0  0.974246  0  0  0.110395  0  1.044246  0  0  0.111928  0  1.043967  0  0  0.088848  0.109116  0  1.044671  0
H  H45  1  0.12677294  0.70570789  0.42362356  1  0  0.099938  0  0.974266  0  0  0.110402  0  1.044263  0  0  0.111936  0  1.043985  0  0  0.088837  0.109124  0  1.044689  0
H  H46  1  0.35308315  0.37017831  0.61034997  1  0  0.100479  0  0.988661  0  0  0.109426  0  1.054801  0  0  0.112977  0  1.053533  0  0  0.094164  0.106878  0  1.055912  0
H  H47  1  0.64691790  0.62982121  0.38965049  1  0  0.100502  0  0.988626  0  0  0.109419  0  1.054804  0  0  0.11297  0  1.053536  0  0  0.094162  0.106874  0  1.055915  0
H  H48  1  0.81782005  0.95270596  0.01503203  1  0  0.111686  0  0.932579  0  0  0.126171  0  0.982656  0  0  0.129749  0  0.981811  0  0  0.107835  0.123596  0  0.983491  0
H  H49  1  0.18217932  0.04729125  0.98496884  1  0  0.111719  0  0.932538  0  0  0.126207  0  0.982612  0  0  0.129751  0  0.981807  0  0  0.107831  0.123629  0  0.983447  0
H  H50  1  0.24277165  0.78720696  0.75300934  1  0  0.105643  0  0.978605  0  0  0.124414  0  1.048613  0  0  0.12612  0  1.047798  0  0  0.079818  0.12307  0  1.04924  0
H  H51  1  0.75722724  0.21279255  0.24698994  1  0  0.105591  0  0.978626  0  0  0.124362  0  1.048647  0  0  0.126068  0  1.047831  0  0  0.079786  0.123014  0  1.049276  0
H  H52  1  0.37296945  0.72372705  0.77736423  1  0  0.110914  0  0.957501  0  0  0.131037  0  1.018013  0  0  0.132793  0  1.017725  0  0  0.08741  0.129795  0  1.018189  0
H  H53  1  0.62703221  0.27627478  0.22263583  1  0  0.110901  0  0.957506  0  0  0.131022  0  1.018021  0  0  0.132778  0  1.017732  0  0  0.087413  0.129779  0  1.018198  0
H  H54  1  0.24870819  0.78037982  0.85505500  1  0  0.102322  0  0.969911  0  0  0.123339  0  1.028289  0  0  0.124656  0  1.028105  0  0  0.085707  0.122418  0  1.028393  0
H  H55  1  0.75129307  0.21962047  0.14494454  1  0  0.10228  0  0.969924  0  0  0.123296  0  1.028307  0  0  0.124613  0  1.028122  0  0  0.085691  0.122374  0  1.028412  0
H  H56  1  0.15469689  0.22415068  0.60081466  1  0  0.071384  0  0.957873  0  0  0.07923  0  1.026645  0  0  0.082255  0  1.023385  0  0  0.100695  0.076878  0  1.029194  0
H  H57  1  0.84530277  0.77585191  0.39918802  1  0  0.07138  0  0.957892  0  0  0.079231  0  1.026656  0  0  0.082255  0  1.023393  0  0  0.100688  0.07688  0  1.029204  0
C  C58  1  0.03507188  0.82062131  0.07628210  1  0  -0.187252  0  3.768839  0  0  -0.202792  0  4.01083  0  0  -0.211814  0  4.03139  0  0  -0.103585  -0.197169  0  3.997523  0
C  C59  1  0.96492877  0.17937667  0.92371844  1  0  -0.187318  0  3.768864  0  0  -0.202896  0  4.010845  0  0  -0.211915  0  4.031409  0  0  -0.103584  -0.19727  0  3.997528  0
C  C60  1  0.52904220  0.28352122  0.60072214  1  0  0.082586  0  3.796955  0  0  0.097147  0  4.05197  0  0  0.105142  0  4.071169  0  0  0.000941  0.091591  0  4.039123  0
C  C61  1  0.47095905  0.71647906  0.39927740  1  0  0.082594  0  3.796935  0  0  0.097181  0  4.051894  0  0  0.105179  0  4.07109  0  0  0.000947  0.091626  0  4.039046  0
C  C62  1  0.58631260  0.66472417  0.63629341  1  0  0.083586  0  3.804418  0  0  0.098114  0  4.060055  0  0  0.107006  0  4.078754  0  0  0.000709  0.091991  0  4.047467  0
C  C63  1  0.41368738  0.33527534  0.36370468  1  0  0.083563  0  3.804318  0  0  0.098106  0  4.059942  0  0  0.107003  0  4.078632  0  0  0.000697  0.091981  0  4.047353  0
C  C64  1  0.05692524  0.47654402  0.62323163  1  0  0.070916  0  3.688353  0  0  0.081172  0  3.937467  0  0  0.082153  0  3.962012  0  0  -0.010043  0.080536  0  3.92078  0
C  C65  1  0.94307473  0.52345550  0.37676824  1  0  0.070946  0  3.688395  0  0  0.081204  0  3.937495  0  0  0.082187  0  3.962038  0  0  -0.010037  0.080566  0  3.920806  0
C  C66  1  0.15671335  0.57060425  0.66109533  1  0  -0.012608  0  3.702161  0  0  -0.004422  0  3.947546  0  0  -0.007678  0  3.972756  0  0  -0.022816  -0.002395  0  3.930644  0
C  C67  1  0.84328357  0.42939603  0.33890421  1  0  -0.012654  0  3.702239  0  0  -0.004448  0  3.947567  0  0  -0.007702  0  3.972777  0  0  -0.022811  -0.00242  0  3.930666  0
C  C68  1  0.27587336  0.60339789  0.61136820  1  0  -0.179388  0  3.67269  0  0  -0.216958  0  3.917884  0  0  -0.215994  0  3.927347  0  0  -0.151246  -0.217525  0  3.911548  0
C  C69  1  0.72412464  0.39660239  0.38863134  1  0  -0.179369  0  3.672808  0  0  -0.216872  0  3.917944  0  0  -0.215909  0  3.927414  0  0  -0.151235  -0.217443  0  3.911612  0
C  C70  1  0.55666775  0.18754677  0.59283327  1  0  -0.174852  0  3.744614  0  0  -0.191732  0  3.985283  0  0  -0.200043  0  4.006738  0  0  -0.103039  -0.186586  0  3.971511  0
C  C71  1  0.44333312  0.81245198  0.40716456  1  0  -0.174868  0  3.744585  0  0  -0.191755  0  3.985254  0  0  -0.20007  0  4.006711  0  0  -0.103034  -0.186611  0  3.971484  0
C  C72  1  0.68668121  0.81930079  0.61671909  1  0  0.134244  0  3.702881  0  0  0.108175  0  3.947469  0  0  0.115968  0  3.963902  0  0  0.035569  0.102962  0  3.936893  0
C  C73  1  0.31331806  0.18070027  0.38328307  1  0  0.134223  0  3.702948  0  0  0.108147  0  3.947532  0  0  0.11594  0  3.963967  0  0  0.035566  0.102934  0  3.936953  0
C  C74  1  0.15041189  0.63685335  0.74863442  1  0  0.065993  0  3.703748  0  0  0.077608  0  3.955937  0  0  0.078554  0  3.980812  0  0  -0.011091  0.076973  0  3.939076  0
C  C75  1  0.84958522  0.36314769  0.25136597  1  0  0.066009  0  3.70378  0  0  0.077628  0  3.955956  0  0  0.078576  0  3.980832  0  0  -0.011093  0.076995  0  3.93909  0
C  C76  1  0.94735139  0.45037302  0.67355823  1  0  -0.018544  0  3.709414  0  0  -0.00838  0  3.950255  0  0  -0.011846  0  3.975632  0  0  -0.024475  -0.006235  0  3.933253  0
C  C77  1  0.05264967  0.54962650  0.32644223  1  0  -0.018553  0  3.709464  0  0  -0.008414  0  3.95034  0  0  -0.011879  0  3.975717  0  0  -0.024487  -0.006268  0  3.933334  0
C  C78  1  0.56844302  0.74100146  0.60709293  1  0  -0.175078  0  3.740325  0  0  -0.192937  0  3.984437  0  0  -0.201774  0  4.006087  0  0  -0.101222  -0.187358  0  3.970325  0
C  C79  1  0.43155517  0.25899959  0.39290805  1  0  -0.175073  0  3.74042  0  0  -0.192937  0  3.984536  0  0  -0.201775  0  4.006184  0  0  -0.101232  -0.187358  0  3.970422  0
C  C80  1  0.43897594  0.11145015  0.58928822  1  0  0.13036  0  3.699447  0  0  0.104369  0  3.944325  0  0  0.111994  0  3.960698  0  0  0.035397  0.099179  0  3.933866  0
C  C81  1  0.56102315  0.88855013  0.41071013  1  0  0.130522  0  3.699366  0  0  0.104503  0  3.944232  0  0  0.112123  0  3.960599  0  0  0.035438  0.099314  0  3.933772  0
C  C82  1  0.04330583  0.60787067  0.79827419  1  0  -0.019377  0  3.71695  0  0  -0.016772  0  3.970262  0  0  -0.020899  0  3.996444  0  0  -0.028037  -0.01406  0  3.952586  0
C  C83  1  0.95669345  0.39213039  0.20172679  1  0  -0.019401  0  3.717  0  0  -0.016819  0  3.970352  0  0  -0.020953  0  3.996544  0  0  -0.028057  -0.014107  0  3.952674  0
C  C84  1  0.72739166  0.67014183  0.67150354  1  0  -0.184398  0  3.751894  0  0  -0.200438  0  3.998734  0  0  -0.208703  0  4.01846  0  0  -0.101622  -0.195137  0  3.985754  0
C  C85  1  0.27260941  0.32985769  0.32849455  1  0  -0.184363  0  3.751803  0  0  -0.200401  0  3.998629  0  0  -0.208668  0  4.018348  0  0  -0.101599  -0.195101  0  3.985651  0
C  C86  1  0.93886281  0.51602376  0.76058841  1  0  0.059177  0  3.713199  0  0  0.071548  0  3.964035  0  0  0.072294  0  3.989015  0  0  -0.013246  0.071106  0  3.947077  0
C  C87  1  0.06113864  0.48397729  0.23941198  1  0  0.059157  0  3.71321  0  0  0.07154  0  3.96406  0  0  0.072288  0  3.989038  0  0  -0.013236  0.071099  0  3.947101  0
C  C88  1  0.83987520  0.74977919  0.67649557  1  0  0.124819  0  3.718632  0  0  0.098098  0  3.966877  0  0  0.105953  0  3.98312  0  0  0.031482  0.092885  0  3.956211  0
C  C89  1  0.16012605  0.25022110  0.32350455  1  0  0.124825  0  3.71858  0  0  0.098118  0  3.96682  0  0  0.105974  0  3.983062  0  0  0.031486  0.092903  0  3.956156  0
C  C90  1  0.06541496  0.40271419  0.53115175  1  0  -0.328498  0  3.707284  0  0  -0.407778  0  3.94158  0  0  -0.410402  0  3.952376  0  0  -0.246603  -0.405661  0  3.934101  0
C  C91  1  0.93458522  0.59728610  0.46884720  1  0  -0.328463  0  3.707304  0  0  -0.407731  0  3.941603  0  0  -0.410355  0  3.9524  0  0  -0.246591  -0.405617  0  3.934128  0
C  C92  1  0.04141342  0.67394292  0.89297053  1  0  -0.17659  0  3.709863  0  0  -0.215686  0  3.969094  0  0  -0.21387  0  3.979467  0  0  -0.143314  -0.216821  0  3.961904  0
C  C93  1  0.95858783  0.32605737  0.10703019  1  0  -0.176568  0  3.709866  0  0  -0.215657  0  3.969097  0  0  -0.21384  0  3.979474  0  0  -0.143283  -0.216806  0  3.96192  0
C  C94  1  0.95279396  0.84408677  0.01913677  1  0  0.077813  0  3.828986  0  0  0.09017  0  4.090755  0  0  0.099308  0  4.111005  0  0  -0.002415  0.083919  0  4.077008  0
C  C95  1  0.04720452  0.15591121  0.98086377  1  0  0.077783  0  3.829  0  0  0.090148  0  4.090762  0  0  0.099273  0  4.111025  0  0  -0.002459  0.083899  0  4.077013  0
C  C96  1  0.04437410  0.88168034  0.16406745  1  0  0.129694  0  3.721427  0  0  0.105324  0  3.961641  0  0  0.113541  0  3.976861  0  0  0.033557  0.099766  0  3.952088  0
C  C97  1  0.95562636  0.11831687  0.83593283  1  0  0.129696  0  3.721282  0  0  0.105347  0  3.961501  0  0  0.113562  0  3.976722  0  0  0.033489  0.099837  0  3.951976  0
C  C98  1  0.89725827  0.98589897  0.14445939  1  0  0.123583  0  3.716301  0  0  0.094778  0  3.969866  0  0  0.103176  0  3.98526  0  0  0.035738  0.089167  0  3.96  0
C  C99  1  0.10274109  0.01409823  0.85554207  1  0  0.123493  0  3.716378  0  0  0.094681  0  3.969946  0  0  0.103077  0  3.98533  0  0  0.035746  0.089119  0  3.960106  0
C  C100  1  0.82042027  0.48778564  0.81349216  1  0  -0.329595  0  3.750563  0  0  -0.407521  0  3.987807  0  0  -0.409451  0  3.996654  0  0  -0.243269  -0.405916  0  3.981545  0
C  C101  1  0.17957990  0.51221465  0.18650738  1  0  -0.329539  0  3.750527  0  0  -0.407416  0  3.987774  0  0  -0.409348  0  3.996634  0  0  -0.243204  -0.405823  0  3.981507  0
C  C102  1  0.83651234  0.35173057  0.63403508  1  0  -0.17884  0  3.659819  0  0  -0.214156  0  3.901514  0  0  -0.213355  0  3.912127  0  0  -0.148342  -0.214644  0  3.894496  0
C  C103  1  0.16348783  0.64826971  0.36596505  1  0  -0.178885  0  3.659867  0  0  -0.21422  0  3.901627  0  0  -0.21342  0  3.912242  0  0  -0.148351  -0.214708  0  3.89461  0
C  C104  1  0.38124525  0.29728367  0.60409368  1  0  -0.178136  0  3.754028  0  0  -0.193822  0  3.998034  0  0  -0.201785  0  4.018029  0  0  -0.099063  -0.188684  0  3.984881  0
C  C105  1  0.61875581  0.70271585  0.39590560  1  0  -0.178173  0  3.753988  0  0  -0.193839  0  3.997988  0  0  -0.201803  0  4.017986  0  0  -0.099064  -0.188703  0  3.984839  0
C  C106  1  0.88305310  0.92993567  0.05566002  1  0  -0.180473  0  3.75204  0  0  -0.198344  0  4.001062  0  0  -0.207287  0  4.02097  0  0  -0.098303  -0.192687  0  3.988042  0
C  C107  1  0.11694538  0.07006231  0.94434170  1  0  -0.180481  0  3.752056  0  0  -0.198354  0  4.001064  0  0  -0.207264  0  4.020985  0  0  -0.098323  -0.192695  0  3.988032  0
C  C108  1  0.25876226  0.73690691  0.78617089  1  0  -0.336698  0  3.738875  0  0  -0.413659  0  3.972243  0  0  -0.41639  0  3.981545  0  0  -0.247936  -0.41146  0  3.965757  0
C  C109  1  0.74123751  0.26309183  0.21382813  1  0  -0.336563  0  3.738786  0  0  -0.413523  0  3.972157  0  0  -0.416253  0  3.981456  0  0  -0.247887  -0.411323  0  3.965674  0
C  C110  1  0.27068407  0.21642274  0.59895904  1  0  0.122236  0  3.71474  0  0  0.095467  0  3.960134  0  0  0.102679  0  3.977019  0  0  0.032444  0.090532  0  3.949265  0
C  C111  1  0.72931650  0.78357908  0.40104161  1  0  0.122263  0  3.714778  0  0  0.095478  0  3.960159  0  0  0.102686  0  3.977039  0  0  0.032405  0.09054  0  3.949295  0
S  S112  1  0.93315445  0.77397850  0.90736351  1  0  0.007469  0  2.355483  0  0  0.010998  0  2.667262  0  0  0.004059  0  2.669653  0  0  0.025591  0.01588  0  2.665603  0
S  S113  1  0.06684680  0.22602179  0.09263721  1  0  0.007465  0  2.355441  0  0  0.010996  0  2.667214  0  0  0.004062  0  2.669606  0  0  0.025594  0.015882  0  2.665555  0
S  S114  1  0.66722592  0.38498191  0.60465297  1  0  0.001591  0  2.457227  0  0  0.008857  0  2.799432  0  0  0.002794  0  2.801294  0  0  0.031172  0.013328  0  2.798138  0
S  S115  1  0.33277406  0.61501760  0.39534631  1  0  0.0016  0  2.457182  0  0  0.008853  0  2.799397  0  0  0.002792  0  2.801257  0  0  0.031165  0.013323  0  2.798105  0
S  S116  1  0.44575539  0.56570102  0.63399764  1  0  -0.004944  0  2.444212  0  0  -0.003114  0  2.780498  0  0  -0.00959  0  2.782027  0  0  0.020624  0.001713  0  2.779291  0
S  S117  1  0.55424409  0.43430080  0.36600182  1  0  -0.004961  0  2.444262  0  0  -0.003145  0  2.780518  0  0  -0.009621  0  2.782045  0  0  0.020616  0.001681  0  2.779314  0
I  I118  1  0.88708137  0.07153398  0.61047653  1  0  -0.40784  0  1.724102  0  0  -0.360697  0  2.182621  0  0  -0.373937  0  2.134851  0  0  -0.181219  -0.350916  0  2.213898  0
I  I119  1  0.11292027  0.92846785  0.38952411  1  0  -0.407852  0  1.724115  0  0  -0.360703  0  2.182622  0  0  -0.373948  0  2.134856  0  0  -0.181226  -0.35092  0  2.213892  0
I  I120  1  0.22280193  0.86942059  0.61329156  1  0  -0.465564  0  1.448149  0  0  -0.418401  0  1.8566  0  0  -0.434233  0  1.819875  0  0  -0.226077  -0.406406  0  1.880253  0
I  I121  1  0.77719824  0.13057970  0.38670798  1  0  -0.465538  0  1.448156  0  0  -0.418384  0  1.856626  0  0  -0.434215  0  1.8199  0  0  -0.226065  -0.406386  0  1.880266  0
N  N122  1  0.97710727  0.96350843  0.19943947  1  0  -0.265514  0  3.334732  0  0  -0.19779  0  3.624949  0  0  -0.208647  0  3.631434  0  0  -0.36247  -0.191711  0  3.620833  0
N  N123  1  0.02289319  0.03648879  0.80056140  1  0  -0.265437  0  3.334702  0  0  -0.197708  0  3.62489  0  0  -0.208559  0  3.631368  0  0  -0.362405  -0.191773  0  3.620922  0
N  N124  1  0.82160327  0.82525080  0.65080065  1  0  -0.285629  0  3.368007  0  0  -0.213178  0  3.656143  0  0  -0.225228  0  3.663891  0  0  -0.370914  -0.206078  0  3.650976  0
N  N125  1  0.17839798  0.17474949  0.34919948  1  0  -0.285601  0  3.36803  0  0  -0.213132  0  3.656144  0  0  -0.225188  0  3.663906  0  0  -0.370898  -0.206031  0  3.650968  0
N  N126  1  0.29714374  0.12398105  0.59141892  1  0  -0.273612  0  3.370197  0  0  -0.20093  0  3.649586  0  0  -0.215  0  3.660212  0  0  -0.368815  -0.192275  0  3.642851  0
N  N127  1  0.70285446  0.87602000  0.40858206  1  0  -0.273767  0  3.37029  0  0  -0.201047  0  3.649668  0  0  -0.215097  0  3.660263  0  0  -0.368823  -0.192389  0  3.64293  0
