# generated using pymatgen
data_Cd2H26C25(N3O5)2
_symmetry_space_group_name_H-M   'P 1'
_cell_length_a   10.18853115
_cell_length_b   12.11231552
_cell_length_c   12.64181620
_cell_angle_alpha   98.95804325
_cell_angle_beta   90.63955826
_cell_angle_gamma   114.04529298
_symmetry_Int_Tables_number   1
_chemical_formula_structural   Cd2H26C25(N3O5)2
_chemical_formula_sum   'Cd4 H52 C50 N12 O20'
_cell_volume   1402.50716658
_cell_formula_units_Z   2
loop_
 _symmetry_equiv_pos_site_id
 _symmetry_equiv_pos_as_xyz
  1  'x, y, z'
loop_
 _atom_site_type_symbol
 _atom_site_label
 _atom_site_symmetry_multiplicity
 _atom_site_fract_x
 _atom_site_fract_y
 _atom_site_fract_z
 _atom_site_occupancy
 _atom_site_pbe_bader_spin_density
 _atom_site_pbe_cm5_charge
 _atom_site_pbe_ddec_charge
 _atom_site_pbe_ddec_spin_density
 _atom_site_pbe_ddec_sum_bond_order
 _atom_site_pbe_magmom
Cd  Cd0  1  0.71931371  0.81590956  0.05120162  1  0  0.767709  0.962409  0  2.1152  0
Cd  Cd1  1  0.28069102  0.18409065  0.94879896  1  0  0.767719  0.962421  0  2.11519  0
Cd  Cd2  1  0.55484903  0.00335842  0.23129621  1  0  0.765676  0.960892  0  2.094288  0
Cd  Cd3  1  0.44515088  0.99663994  0.76870403  1  0  0.765684  0.960891  0  2.094256  0
H  H4  1  0.75607303  0.99283088  0.90462998  1  0  0.29243  0.390596  0  0.953509  0
H  H5  1  0.24392822  0.00717025  0.09536912  1  0  0.292443  0.390591  0  0.953522  0
H  H6  1  0.89405245  0.06938329  0.98400754  1  0  0.296176  0.402594  0  0.926547  0
H  H7  1  0.10595066  0.93061967  0.01599344  1  0  0.296191  0.402559  0  0.926581  0
H  H8  1  0.59893412  0.13355337  0.04579881  1  0  0.289398  0.393349  0  0.938443  0
H  H9  1  0.40106865  0.86644683  0.95420175  1  0  0.289355  0.393297  0  0.938517  0
H  H10  1  0.70966378  0.07706266  0.06282555  1  0  0.286278  0.380896  0  0.960395  0
H  H11  1  0.29033801  0.92293754  0.93717499  1  0  0.286256  0.380878  0  0.960412  0
H  H12  1  0.20567704  0.80697597  0.05704564  1  0  0.105059  0.095521  0  1.075352  0
H  H13  1  0.79432681  0.19302240  0.94295465  1  0  0.105077  0.095559  0  1.075327  0
H  H14  1  0.85401138  0.50364854  0.14878572  1  0  0.101759  0.105771  0  1.009961  0
H  H15  1  0.14599049  0.49634983  0.85121534  1  0  0.101774  0.10578  0  1.009981  0
H  H16  1  0.27938947  0.50882732  0.14674435  1  0  0.100009  0.098346  0  1.041179  0
H  H17  1  0.72061428  0.49117290  0.85325543  1  0  0.100048  0.09839  0  1.041164  0
H  H18  1  0.00714216  0.38621969  0.28144377  1  0  0.091104  0.125934  0  1.015919  0
H  H19  1  0.99286205  0.61378145  0.71855457  1  0  0.091105  0.125973  0  1.015929  0
H  H20  1  0.07482521  0.32206717  0.17128315  1  0  0.088891  0.131868  0  1.013072  0
H  H21  1  0.92517514  0.67793211  0.82871803  1  0  0.088908  0.131922  0  1.013025  0
H  H22  1  0.89586156  0.30996043  0.15972542  1  0  0.089067  0.132589  0  1.02948  0
H  H23  1  0.10414646  0.69004254  0.84027720  1  0  0.089081  0.132572  0  1.029512  0
H  H24  1  0.03416842  0.97869904  0.22291416  1  0  0.10428  0.107576  0  1.024952  0
H  H25  1  0.96582988  0.02130208  0.77708490  1  0  0.104238  0.107537  0  1.024916  0
H  H26  1  0.77946359  0.84256948  0.47991122  1  0  0.102146  0.103063  0  1.030844  0
H  H27  1  0.22053945  0.15743533  0.52008688  1  0  0.10215  0.103088  0  1.030769  0
H  H28  1  0.18900280  0.82101066  0.45047564  1  0  0.101912  0.107024  0  1.027621  0
H  H29  1  0.81099547  0.17898221  0.54951979  1  0  0.101919  0.10704  0  1.027639  0
H  H30  1  0.85307859  0.74412474  0.60418208  1  0  0.088585  0.124686  0  1.031935  0
H  H31  1  0.14691981  0.25587454  0.39581749  1  0  0.088587  0.124658  0  1.031989  0
H  H32  1  0.04311102  0.80529885  0.63460327  1  0  0.091368  0.135343  0  1.003789  0
H  H33  1  0.95688773  0.19470319  0.36539435  1  0  0.091376  0.135347  0  1.003806  0
H  H34  1  0.95255741  0.66237937  0.54722191  1  0  0.090989  0.127374  0  1.008854  0
H  H35  1  0.04744350  0.33761900  0.45277755  1  0  0.09096  0.127331  0  1.008902  0
H  H36  1  0.49215206  0.10223212  0.49210142  1  0  0.148656  0.134417  0  0.989247  0
H  H37  1  0.50784885  0.89776625  0.50789804  1  0  0.148653  0.13442  0  0.98929  0
H  H38  1  0.75691304  0.32950692  0.28954752  1  0  0.134053  0.09969  0  1.006406  0
H  H39  1  0.24308731  0.67049235  0.71045366  1  0  0.134045  0.099669  0  1.006412  0
H  H40  1  0.68274095  0.41388939  0.65865716  1  0  0.115919  0.1029  0  0.977088  0
H  H41  1  0.31726270  0.58611265  0.34134369  1  0  0.115921  0.102886  0  0.977113  0
H  H42  1  0.54285262  0.26520368  0.65922501  1  0  0.116728  0.112881  0  0.995931  0
H  H43  1  0.45714862  0.73479743  0.34077567  1  0  0.116739  0.112903  0  0.995879  0
H  H44  1  0.38248414  0.31933579  0.53927182  1  0  0.099641  0.096623  0  1.02076  0
H  H45  1  0.61751524  0.68066349  0.46072776  1  0  0.09965  0.096652  0  1.020747  0
H  H46  1  0.52067323  0.46774185  0.55120654  1  0  0.100195  0.094225  0  1.053185  0
H  H47  1  0.47932854  0.53225834  0.44879559  1  0  0.100219  0.094246  0  1.053158  0
H  H48  1  0.31094216  0.44407035  0.66393022  1  0  0.114663  0.10015  0  0.971112  0
H  H49  1  0.68905740  0.55592525  0.33607118  1  0  0.114643  0.100119  0  0.971109  0
H  H50  1  0.37317526  0.36658335  0.74721575  1  0  0.118805  0.120018  0  0.997215  0
H  H51  1  0.62682465  0.63341500  0.25278529  1  0  0.118777  0.120006  0  0.997239  0
H  H52  1  0.45943345  0.53271842  0.91575253  1  0  0.14849  0.135291  0  0.989936  0
H  H53  1  0.54056733  0.46728177  0.08425038  1  0  0.148497  0.135319  0  0.989933  0
H  H54  1  0.74990289  0.81860134  0.77222955  1  0  0.13483  0.106696  0  1.008339  0
H  H55  1  0.25009300  0.18139884  0.22776934  1  0  0.134838  0.106732  0  1.008332  0
C  C56  1  0.25908220  0.66549221  0.10262946  1  0  -0.02323  -0.037952  0  4.003399  0
C  C57  1  0.74092103  0.33450893  0.89736729  1  0  -0.023121  -0.037803  0  4.003379  0
C  C58  1  0.16482994  0.71893236  0.08336836  1  0  -0.081081  -0.105369  0  3.938682  0
C  C59  1  0.83517229  0.28106877  0.91663075  1  0  -0.08108  -0.105424  0  3.938783  0
C  C60  1  0.01887039  0.66011173  0.09955974  1  0  -0.018765  -0.030945  0  3.98443  0
C  C61  1  0.98113283  0.33988940  0.90043859  1  0  -0.018787  -0.030974  0  3.984499  0
C  C62  1  0.96819953  0.54761652  0.13613632  1  0  -0.073631  -0.130004  0  3.889227  0
C  C63  1  0.03180282  0.45238279  0.86386014  1  0  -0.07367  -0.130027  0  3.889256  0
C  C64  1  0.06012997  0.49117037  0.15376790  1  0  -0.008952  0.16198  0  3.989342  0
C  C65  1  0.93987478  0.50882986  0.84622953  1  0  -0.00898  0.161956  0  3.989378  0
C  C66  1  0.20526972  0.55101857  0.13548513  1  0  -0.080007  -0.138583  0  3.916226  0
C  C67  1  0.79473538  0.44898441  0.86451271  1  0  -0.080073  -0.138664  0  3.91625  0
C  C68  1  0.41685791  0.72993089  0.09228194  1  0  0.202137  0.567519  0  4.19383  0
C  C69  1  0.58314674  0.27007117  0.90771655  1  0  0.202108  0.567468  0  4.193951  0
C  C70  1  0.91589361  0.71557859  0.07955359  1  0  0.199888  0.568314  0  4.201284  0
C  C71  1  0.08410960  0.28442254  0.92044632  1  0  0.19989  0.568318  0  4.201143  0
C  C72  1  0.00631063  0.37085736  0.19328732  1  0  -0.243734  -0.417306  0  3.945914  0
C  C73  1  0.99369588  0.62914653  0.80671305  1  0  -0.24374  -0.417374  0  3.945935  0
C  C74  1  0.12721842  0.90474654  0.33323960  1  0  -0.020243  -0.035761  0  3.991261  0
C  C75  1  0.87278107  0.09525092  0.66675813  1  0  -0.020262  -0.03571  0  3.991234  0
C  C76  1  0.01957908  0.93512605  0.29357068  1  0  -0.081401  -0.113443  0  3.93789  0
C  C77  1  0.98041854  0.06486957  0.70642596  1  0  -0.081361  -0.113398  0  3.937747  0
C  C78  1  0.89247690  0.90894115  0.34536518  1  0  -0.021258  -0.036065  0  4.004489  0
C  C79  1  0.10752293  0.09105906  0.65463297  1  0  -0.02129  -0.036152  0  4.004444  0
C  C80  1  0.87555464  0.85502399  0.43756016  1  0  -0.077894  -0.141201  0  3.917853  0
C  C81  1  0.12444553  0.14497896  0.56243920  1  0  -0.077828  -0.141102  0  3.917768  0
C  C82  1  0.97849140  0.81906746  0.47549605  1  0  -0.007354  0.168561  0  3.979056  0
C  C83  1  0.02150798  0.18093182  0.52450274  1  0  -0.007333  0.168556  0  3.979171  0
C  C84  1  0.10437137  0.84491657  0.42205899  1  0  -0.074348  -0.121822  0  3.87641  0
C  C85  1  0.89562768  0.15507997  0.57793781  1  0  -0.074386  -0.121893  0  3.876526  0
C  C86  1  0.26874160  0.93767072  0.28496520  1  0  0.199462  0.567767  0  4.20902  0
C  C87  1  0.73125832  0.06232765  0.71503426  1  0  0.199503  0.567732  0  4.208963  0
C  C88  1  0.77266717  0.93652157  0.30539193  1  0  0.199583  0.566499  0  4.201608  0
C  C89  1  0.22733300  0.06348139  0.69460743  1  0  0.199639  0.566622  0  4.201368  0
C  C90  1  0.95551577  0.75481991  0.57068818  1  0  -0.241098  -0.418992  0  3.95928  0
C  C91  1  0.04448316  0.24517845  0.42931126  1  0  -0.241087  -0.418931  0  3.959378  0
C  C92  1  0.56539085  0.17957862  0.45841600  1  0  0.170022  0.096926  0  3.864756  0
C  C93  1  0.43461344  0.82042068  0.54158444  1  0  0.170058  0.096971  0  3.864664  0
C  C94  1  0.70002908  0.29848179  0.35855859  1  0  0.14034  0.133463  0  4.02622  0
C  C95  1  0.29996789  0.70151657  0.64144083  1  0  0.140389  0.133559  0  4.026423  0
C  C96  1  0.58362096  0.34199529  0.61511427  1  0  -0.046331  -0.086072  0  3.845231  0
C  C97  1  0.41638072  0.65800674  0.38488655  1  0  -0.046352  -0.086112  0  3.845336  0
C  C98  1  0.47104320  0.39062171  0.59371485  1  0  -0.161482  -0.196239  0  3.94967  0
C  C99  1  0.52895464  0.60937847  0.40628644  1  0  -0.161487  -0.196254  0  3.949699  0
C  C100  1  0.40618104  0.43178973  0.69125353  1  0  -0.04622  -0.08581  0  3.851501  0
C  C101  1  0.59381733  0.56820952  0.30875000  1  0  -0.046184  -0.085745  0  3.851583  0
C  C102  1  0.52218155  0.58839145  0.85954799  1  0  0.165065  0.08797  0  3.879128  0
C  C103  1  0.47781880  0.41160782  0.14045320  1  0  0.165058  0.087897  0  3.879171  0
C  C104  1  0.66920796  0.73038239  0.78388705  1  0  0.142115  0.139561  0  4.010037  0
C  C105  1  0.33078891  0.26961779  0.21611265  1  0  0.142039  0.139439  0  4.010028  0
N  N106  1  0.61416451  0.17820841  0.36057656  1  0  -0.351165  -0.337614  0  3.493935  0
N  N107  1  0.38583299  0.82178902  0.63942431  1  0  -0.351222  -0.337707  0  3.494022  0
N  N108  1  0.62155580  0.29578363  0.51187210  1  0  -0.129232  0.180485  0  3.723499  0
N  N109  1  0.37844313  0.70421473  0.48812734  1  0  -0.129249  0.180483  0  3.72344  0
N  N110  1  0.70742156  0.37367028  0.44919265  1  0  -0.22816  -0.277003  0  3.080219  0
N  N111  1  0.29257682  0.62632898  0.55080851  1  0  -0.228157  -0.277009  0  3.080335  0
N  N112  1  0.50808416  0.54935964  0.75295097  1  0  -0.130443  0.172911  0  3.714709  0
N  N113  1  0.49191423  0.45063963  0.24705019  1  0  -0.130464  0.17291  0  3.714701  0
N  N114  1  0.60066732  0.63908633  0.70306552  1  0  -0.222756  -0.264291  0  3.108528  0
N  N115  1  0.39932758  0.36091385  0.29693495  1  0  -0.222687  -0.264221  0  3.10839  0
N  N116  1  0.62425899  0.70373712  0.88187675  1  0  -0.35259  -0.339975  0  3.485936  0
N  N117  1  0.37573985  0.29626308  0.11812297  1  0  -0.352594  -0.339929  0  3.485915  0
O  O118  1  0.46859415  0.83919495  0.06815572  1  0  -0.336848  -0.615945  0  2.305641  0
O  O119  1  0.53141062  0.16080529  0.93184012  1  0  -0.336888  -0.615973  0  2.305647  0
O  O120  1  0.49811792  0.67727610  0.10885128  1  0  -0.3143  -0.545313  0  2.24313  0
O  O121  1  0.50188199  0.32272226  0.89114975  1  0  -0.314281  -0.545299  0  2.243155  0
O  O122  1  0.95629693  0.81215423  0.03551410  1  0  -0.329379  -0.583696  0  2.232758  0
O  O123  1  0.04370376  0.18784779  0.96448750  1  0  -0.329371  -0.583697  0  2.232723  0
O  O124  1  0.78805461  0.66550123  0.10668852  1  0  -0.326165  -0.559255  0  2.211554  0
O  O125  1  0.21194924  0.33449715  0.89331177  1  0  -0.32617  -0.559248  0  2.211434  0
O  O126  1  0.30245556  0.00899585  0.21539286  1  0  -0.328314  -0.594083  0  2.270722  0
O  O127  1  0.69754578  0.99100344  0.78460754  1  0  -0.328349  -0.59409  0  2.270713  0
O  O128  1  0.35624026  0.89703978  0.31838358  1  0  -0.3247  -0.555578  0  2.240906  0
O  O129  1  0.64375823  0.10295766  0.68161572  1  0  -0.32469  -0.555541  0  2.240896  0
O  O130  1  0.77103718  0.95992421  0.20858784  1  0  -0.345773  -0.590415  0  2.302067  0
O  O131  1  0.22896255  0.04007783  0.79141138  1  0  -0.345865  -0.590539  0  2.301854  0
O  O132  1  0.67487397  0.93705344  0.36569132  1  0  -0.313556  -0.539576  0  2.192748  0
O  O133  1  0.32512522  0.06294952  0.63430645  1  0  -0.313557  -0.539595  0  2.192687  0
O  O134  1  0.79437876  0.00224888  0.98069088  1  0  -0.572364  -0.754985  0  2.093051  0
O  O135  1  0.20562401  0.99775134  0.01930889  1  0  -0.57238  -0.754961  0  2.093143  0
O  O136  1  0.65615430  0.12079674  0.10354232  1  0  -0.590655  -0.747398  0  2.076988  0
O  O137  1  0.34384793  0.87920438  0.89645837  1  0  -0.590593  -0.747316  0  2.077036  0
