# generated using pymatgen
data_ZnH13C14N2O5
_symmetry_space_group_name_H-M   'P 1'
_cell_length_a   8.82186871
_cell_length_b   11.40869269
_cell_length_c   14.50500000
_cell_angle_alpha   90.00000000
_cell_angle_beta   90.00000000
_cell_angle_gamma   94.49583686
_symmetry_Int_Tables_number   1
_chemical_formula_structural   ZnH13C14N2O5
_chemical_formula_sum   'Zn4 H52 C56 N8 O20'
_cell_volume   1455.37809884
_cell_formula_units_Z   4
loop_
 _symmetry_equiv_pos_site_id
 _symmetry_equiv_pos_as_xyz
  1  'x, y, z'
loop_
 _atom_site_type_symbol
 _atom_site_label
 _atom_site_symmetry_multiplicity
 _atom_site_fract_x
 _atom_site_fract_y
 _atom_site_fract_z
 _atom_site_occupancy
 _atom_site_hle17_bader_spin_density
 _atom_site_hle17_ddec_charge
 _atom_site_hle17_ddec_spin_density
 _atom_site_hle17_ddec_sum_bond_order
 _atom_site_hle17_magmom
 _atom_site_hse06_10hf_bader_spin_density
 _atom_site_hse06_10hf_ddec_charge
 _atom_site_hse06_10hf_ddec_spin_density
 _atom_site_hse06_10hf_ddec_sum_bond_order
 _atom_site_hse06_10hf_magmom
 _atom_site_hse06_bader_spin_density
 _atom_site_hse06_ddec_charge
 _atom_site_hse06_ddec_spin_density
 _atom_site_hse06_ddec_sum_bond_order
 _atom_site_hse06_magmom
 _atom_site_pbe_bader_charge
 _atom_site_pbe_bader_spin_density
 _atom_site_pbe_cm5_charge
 _atom_site_pbe_ddec_charge
 _atom_site_pbe_ddec_spin_density
 _atom_site_pbe_ddec_sum_bond_order
 _atom_site_pbe_magmom
Zn  Zn0  1  0.38969242  0.92119563  0.90812065  1  0  1.08315  0  1.812133  0  0  0.901771  0  2.295286  0  0  0.950908  0  2.233318  0  1.292395  0  0.699318  0.867332  0  2.337807  0
Zn  Zn1  1  0.11031091  0.57880413  0.40812203  1  0  1.083137  0  1.812141  0  0  0.901767  0  2.295308  0  0  0.950904  0  2.233336  0  1.292321  0  0.699285  0.867328  0  2.337827  0
Zn  Zn2  1  0.61031010  0.07880626  0.09187935  1  0  1.083149  0  1.812169  0  0  0.901782  0  2.295327  0  0  0.95092  0  2.233355  0  1.292337  0  0.699326  0.867345  0  2.337848  0
Zn  Zn3  1  0.88968908  0.42119512  0.59187935  1  0  1.083175  0  1.812117  0  0  0.901795  0  2.295276  0  0  0.950934  0  2.233302  0  1.29237  0  0.699313  0.867354  0  2.337795  0
H  H4  1  0.03306328  0.14679800  0.68434471  1  0  0.396709  0  0.898914  0  0  0.371107  0  0.969697  0  0  0.381786  0  0.954446  0  0.654321  0  0.301177  0.363434  0  0.98062  0
H  H5  1  0.46694012  0.35320163  0.18434540  1  0  0.396701  0  0.898901  0  0  0.37109  0  0.969718  0  0  0.381769  0  0.954467  0  0.654317  0  0.301158  0.363417  0  0.980628  0
H  H6  1  0.96693794  0.85320214  0.31565598  1  0  0.396716  0  0.898854  0  0  0.371105  0  0.96969  0  0  0.381786  0  0.954436  0  0.654314  0  0.301157  0.363431  0  0.98058  0
H  H7  1  0.53305987  0.64679762  0.81565460  1  0  0.396735  0  0.898857  0  0  0.371125  0  0.969665  0  0  0.381805  0  0.954414  0  0.654309  0  0.301165  0.363452  0  0.980578  0
H  H8  1  0.80976004  0.05416233  0.75686936  1  0  0.121516  0  0.954241  0  0  0.131181  0  1.016705  0  0  0.134685  0  1.014771  0  0.100184  0  0.108737  0.128673  0  1.018142  0
H  H9  1  0.69024019  0.44583818  0.25686936  1  0  0.121514  0  0.954279  0  0  0.131176  0  1.016742  0  0  0.134679  0  1.014808  0  0.10019  0  0.108723  0.128668  0  1.018179  0
H  H10  1  0.19024230  0.94583781  0.24312996  1  0  0.121501  0  0.954252  0  0  0.13118  0  1.016698  0  0  0.134682  0  1.014765  0  0.100252  0  0.108749  0.128672  0  1.018136  0
H  H11  1  0.30975876  0.55416195  0.74312927  1  0  0.121518  0  0.954209  0  0  0.131192  0  1.016661  0  0  0.134694  0  1.014729  0  0.100183  0  0.108731  0.128684  0  1.018099  0
H  H12  1  0.69309501  0.69433143  0.67770631  1  0  0.105698  0  0.966823  0  0  0.111087  0  1.037775  0  0  0.115487  0  1.033721  0  0.118504  0  0.104404  0.10791  0  1.040682  0
H  H13  1  0.80690089  0.80567184  0.17770907  1  0  0.105659  0  0.966862  0  0  0.111047  0  1.037811  0  0  0.115447  0  1.033756  0  0.118965  0  0.104367  0.107869  0  1.04072  0
H  H14  1  0.30690498  0.30566782  0.32229438  1  0  0.10569  0  0.966863  0  0  0.111074  0  1.03782  0  0  0.115474  0  1.033767  0  0.118513  0  0.104389  0.107896  0  1.040731  0
H  H15  1  0.19309597  0.19433005  0.82229231  1  0  0.105687  0  0.966848  0  0  0.111073  0  1.0378  0  0  0.115473  0  1.033746  0  0.118496  0  0.104382  0.107895  0  1.04071  0
H  H16  1  0.22674190  0.77659131  0.73952568  1  0  0.10633  0  0.952249  0  0  0.118291  0  1.008215  0  0  0.12052  0  1.007293  0  0.115642  0  0.11836  0.116544  0  1.009122  0
H  H17  1  0.27325680  0.72340757  0.23952499  1  0  0.106355  0  0.952189  0  0  0.118303  0  1.008174  0  0  0.120531  0  1.007253  0  0.11565  0  0.118369  0.116557  0  1.009081  0
H  H18  1  0.77325809  0.22340794  0.26047432  1  0  0.106316  0  0.952248  0  0  0.118277  0  1.008214  0  0  0.120506  0  1.007292  0  0.115653  0  0.118361  0.116531  0  1.009121  0
H  H19  1  0.72674205  0.27659168  0.76047501  1  0  0.106343  0  0.952224  0  0  0.118301  0  1.008193  0  0  0.120528  0  1.007274  0  0.115962  0  0.11836  0.116554  0  1.0091  0
H  H20  1  0.98233161  0.61682555  0.77810410  1  0  0.121495  0  0.956918  0  0  0.132088  0  1.015676  0  0  0.134675  0  1.014676  0  0.136026  0  0.122795  0.130108  0  1.016541  0
H  H21  1  0.51766856  0.88317509  0.27810272  1  0  0.121502  0  0.956888  0  0  0.132101  0  1.015637  0  0  0.134686  0  1.014648  0  0.136025  0  0.122798  0.13012  0  1.016502  0
H  H22  1  0.01767074  0.38317458  0.22189659  1  0  0.121498  0  0.956922  0  0  0.132082  0  1.015689  0  0  0.134678  0  1.014677  0  0.136016  0  0.12279  0.130101  0  1.016552  0
H  H23  1  0.48232804  0.11682417  0.72189797  1  0  0.121499  0  0.956887  0  0  0.132084  0  1.015656  0  0  0.134682  0  1.014642  0  0.136006  0  0.12278  0.130103  0  1.016519  0
H  H24  1  0.08771489  0.88384066  0.56032678  1  0  0.120843  0  0.941071  0  0  0.129709  0  1.003732  0  0  0.134014  0  1.000442  0  0.104818  0  0.109206  0.126415  0  1.006616  0
H  H25  1  0.41228740  0.61615997  0.06032816  1  0  0.120707  0  0.941174  0  0  0.129603  0  1.003813  0  0  0.13391  0  1.00052  0  0.104844  0  0.109164  0.126309  0  1.006694  0
H  H26  1  0.91228283  0.11615859  0.43967322  1  0  0.120825  0  0.941079  0  0  0.129689  0  1.003748  0  0  0.133994  0  1.000457  0  0.104805  0  0.109194  0.126395  0  1.006631  0
H  H27  1  0.58771391  0.38384104  0.93967253  1  0  0.120719  0  0.94108  0  0  0.1296  0  1.003743  0  0  0.133907  0  1.00045  0  0.104795  0  0.109155  0.126306  0  1.006625  0
H  H28  1  0.17300110  0.91329838  0.04971389  1  0  0.141834  0  0.941852  0  0  0.163152  0  0.998992  0  0  0.1653  0  0.997912  0  0.071772  0  0.105488  0.161683  0  0.999502  0
H  H29  1  0.32699892  0.58670225  0.54971458  1  0  0.141838  0  0.941853  0  0  0.16316  0  0.998986  0  0  0.165306  0  0.997909  0  0.071768  0  0.105477  0.161691  0  0.999496  0
H  H30  1  0.82699785  0.08670175  0.95028542  1  0  0.141843  0  0.941834  0  0  0.163165  0  0.998968  0  0  0.165312  0  0.99789  0  0.071765  0  0.105485  0.161696  0  0.999478  0
H  H31  1  0.67300229  0.41329788  0.45028680  1  0  0.141836  0  0.941871  0  0  0.163155  0  0.999012  0  0  0.165303  0  0.997932  0  0.07178  0  0.105478  0.161686  0  0.999521  0
H  H32  1  0.10062840  0.77481702  0.09358221  1  0  0.131529  0  0.936826  0  0  0.149721  0  1.000792  0  0  0.152101  0  0.99962  0  0.071304  0  0.099948  0.147868  0  1.001952  0
H  H33  1  0.39937293  0.72518537  0.59358083  1  0  0.131563  0  0.936808  0  0  0.149757  0  1.000761  0  0  0.152139  0  0.999587  0  0.0713  0  0.099947  0.147903  0  1.001924  0
H  H34  1  0.89937299  0.22518487  0.90641779  1  0  0.131555  0  0.936776  0  0  0.149744  0  1.000744  0  0  0.152125  0  0.99957  0  0.071282  0  0.099958  0.14789  0  1.001907  0
H  H35  1  0.60062620  0.27481652  0.40641848  1  0  0.131575  0  0.936809  0  0  0.149774  0  1.000759  0  0  0.152155  0  0.999585  0  0.071315  0  0.099962  0.14792  0  1.001923  0
H  H36  1  0.97312959  0.87574735  0.05240538  1  0  0.140619  0  0.933286  0  0  0.160787  0  0.991188  0  0  0.163026  0  0.990303  0  0.093674  0  0.102717  0.159323  0  0.991507  0
H  H37  1  0.52687057  0.62425329  0.55240676  1  0  0.14067  0  0.933182  0  0  0.160819  0  0.991104  0  0  0.163059  0  0.990215  0  0.093691  0  0.102738  0.159355  0  0.991423  0
H  H38  1  0.02687058  0.12425366  0.94759324  1  0  0.140659  0  0.933185  0  0  0.160812  0  0.991102  0  0  0.163052  0  0.990215  0  0.093685  0  0.10272  0.159348  0  0.991421  0
H  H39  1  0.47313064  0.37574685  0.44759462  1  0  0.140621  0  0.933267  0  0  0.160788  0  0.991168  0  0  0.163027  0  0.990284  0  0.093686  0  0.102712  0.159324  0  0.991488  0
H  H40  1  0.77471396  0.63195974  0.92485901  1  0  0.092168  0  0.94871  0  0  0.105592  0  1.010465  0  0  0.10718  0  1.009188  0  0.126018  0  0.110436  0.104343  0  1.011511  0
H  H41  1  0.72528734  0.86804090  0.42485695  1  0  0.092158  0  0.948643  0  0  0.105571  0  1.010428  0  0  0.10716  0  1.009151  0  0.126011  0  0.110415  0.104321  0  1.011473  0
H  H42  1  0.22528726  0.36804039  0.07514099  1  0  0.092153  0  0.948681  0  0  0.105575  0  1.010448  0  0  0.107164  0  1.00917  0  0.126012  0  0.110426  0.104327  0  1.011494  0
H  H43  1  0.27471387  0.13195923  0.57514168  1  0  0.092171  0  0.948663  0  0  0.105595  0  1.01043  0  0  0.107181  0  1.009154  0  0.126038  0  0.110432  0.104346  0  1.011478  0
H  H44  1  0.87025105  0.67270237  0.02902447  1  0  0.070938  0  0.967019  0  0  0.086688  0  1.033086  0  0  0.085978  0  1.03593  0  0.078806  0  0.107459  0.087125  0  1.031101  0
H  H45  1  0.62974920  0.82729914  0.52902447  1  0  0.070926  0  0.967124  0  0  0.086693  0  1.033163  0  0  0.085983  0  1.036008  0  0.078806  0  0.107468  0.08713  0  1.031178  0
H  H46  1  0.12975025  0.32729864  0.97097553  1  0  0.070922  0  0.967052  0  0  0.08668  0  1.033108  0  0  0.085969  0  1.035953  0  0.078836  0  0.107463  0.087117  0  1.031123  0
H  H47  1  0.37024992  0.17270275  0.47097622  1  0  0.070922  0  0.967089  0  0  0.086683  0  1.033137  0  0  0.085971  0  1.035982  0  0.078806  0  0.107461  0.08712  0  1.031153  0
H  H48  1  0.83099572  0.45737456  0.01134643  1  0  0.078064  0  0.929798  0  0  0.098151  0  0.98711  0  0  0.098227  0  0.988802  0  0.026919  0  0.098039  0.098012  0  0.986008  0
H  H49  1  0.66900564  0.04262595  0.51134574  1  0  0.078051  0  0.929818  0  0  0.098139  0  0.987131  0  0  0.098216  0  0.988824  0  0.026915  0  0.09803  0.098  0  0.986031  0
H  H50  1  0.16900322  0.54262557  0.98865357  1  0  0.078075  0  0.929789  0  0  0.098162  0  0.987103  0  0  0.098239  0  0.988795  0  0.026924  0  0.098047  0.098024  0  0.986  0
H  H51  1  0.33099557  0.95737418  0.48865426  1  0  0.078049  0  0.929809  0  0  0.098138  0  0.987126  0  0  0.098215  0  0.988818  0  0.026919  0  0.098039  0.097999  0  0.986024  0
H  H52  1  0.93174644  0.46242837  0.90583799  1  0  0.067556  0  0.929352  0  0  0.088366  0  0.986607  0  0  0.088589  0  0.987515  0  0.000503  0  0.092773  0.087997  0  0.986326  0
H  H53  1  0.56825248  0.03757038  0.40583937  1  0  0.06755  0  0.929442  0  0  0.088354  0  0.986701  0  0  0.088578  0  0.987608  0  0.000528  0  0.092761  0.087985  0  0.986421  0
H  H54  1  0.06825469  0.53757088  0.09416132  1  0  0.067551  0  0.929403  0  0  0.088366  0  0.986654  0  0  0.088589  0  0.987562  0  0.000518  0  0.092772  0.087997  0  0.986373  0
H  H55  1  0.43174742  0.96242800  0.59416063  1  0  0.067518  0  0.929433  0  0  0.08834  0  0.986682  0  0  0.088563  0  0.98759  0  0.00052  0  0.092766  0.087971  0  0.9864  0
C  C56  1  0.89368609  0.77866453  0.61346432  1  0  -0.067075  0  3.812426  0  0  -0.042246  0  4.050533  0  0  -0.050977  0  4.074558  0  -0.078964  0  -0.022777  -0.036653  0  4.034248  0
C  C57  1  0.60631416  0.72133698  0.11346363  1  0  -0.067097  0  3.812421  0  0  -0.042279  0  4.050554  0  0  -0.05101  0  4.074577  0  -0.078981  0  -0.022798  -0.036689  0  4.034268  0
C  C58  1  0.10631294  0.22133648  0.38653637  1  0  -0.067055  0  3.812521  0  0  -0.042232  0  4.050637  0  0  -0.050962  0  4.074661  0  -0.078971  0  -0.022769  -0.036637  0  4.034351  0
C  C59  1  0.39368487  0.27866403  0.88653637  1  0  -0.067017  0  3.812609  0  0  -0.042204  0  4.05072  0  0  -0.050935  0  4.074746  0  -0.079025  0  -0.022787  -0.036613  0  4.034433  0
C  C60  1  0.73667372  0.87458149  0.72237573  1  0  -0.051762  0  3.796013  0  0  -0.027013  0  4.035701  0  0  -0.034623  0  4.058625  0  -0.023705  0  -0.023677  -0.022047  0  4.019994  0
C  C61  1  0.76332435  0.62542090  0.22237780  1  0  -0.051715  0  3.796106  0  0  -0.026975  0  4.03579  0  0  -0.034586  0  4.058716  0  -0.023627  0  -0.023663  -0.022009  0  4.020082  0
C  C62  1  0.26332645  0.12541952  0.27762289  1  0  -0.051721  0  3.796041  0  0  -0.027002  0  4.035763  0  0  -0.034615  0  4.058688  0  -0.02372  0  -0.023652  -0.022037  0  4.020056  0
C  C63  1  0.23667799  0.37457923  0.77762082  1  0  -0.051746  0  3.796044  0  0  -0.027012  0  4.035741  0  0  -0.034621  0  4.058665  0  -0.023366  0  -0.023639  -0.022046  0  4.020033  0
C  C64  1  0.96323096  0.98040649  0.65934919  1  0  0.335508  0  3.8422  0  0  0.332707  0  4.104353  0  0  0.34193  0  4.120641  0  0.525607  0  0.085395  0.326013  0  4.093265  0
C  C65  1  0.53676572  0.51959327  0.15934919  1  0  0.335505  0  3.842421  0  0  0.332818  0  4.104401  0  0  0.342042  0  4.12069  0  0.525669  0  0.085438  0.326121  0  4.093315  0
C  C66  1  0.03676677  0.01959276  0.34065081  1  0  0.335524  0  3.842233  0  0  0.332774  0  4.104302  0  0  0.341997  0  4.120591  0  0.525495  0  0.085407  0.326079  0  4.093215  0
C  C67  1  0.46323096  0.48040687  0.84065219  1  0  0.335549  0  3.842346  0  0  0.332795  0  4.104409  0  0  0.34202  0  4.120698  0  0.525483  0  0.085435  0.326101  0  4.093321  0
C  C68  1  0.59597929  0.86985387  0.78028473  1  0  0.643607  0  3.898433  0  0  0.595897  0  4.183203  0  0  0.630358  0  4.175758  0  1.541795  0  0.207681  0.572673  0  4.187222  0
C  C69  1  0.90401870  0.63014764  0.28028542  1  0  0.643521  0  3.898315  0  0  0.595835  0  4.183062  0  0  0.630296  0  4.175616  0  1.541581  0  0.207641  0.57261  0  4.187082  0
C  C70  1  0.40402088  0.13014714  0.21971527  1  0  0.643461  0  3.898498  0  0  0.595768  0  4.183259  0  0  0.63023  0  4.175814  0  1.54167  0  0.20766  0.572544  0  4.187277  0
C  C71  1  0.09598242  0.36985161  0.71971389  1  0  0.643573  0  3.898457  0  0  0.595876  0  4.183219  0  0  0.630336  0  4.175773  0  1.541682  0  0.207653  0.572652  0  4.187238  0
C  C72  1  0.83474539  0.97725006  0.71683971  1  0  -0.188715  0  3.675404  0  0  -0.222079  0  3.921059  0  0  -0.223587  0  3.939554  0  -0.029143  0  -0.09358  -0.220673  0  3.908513  0
C  C73  1  0.66525817  0.52275058  0.21684040  1  0  -0.188783  0  3.675507  0  0  -0.222178  0  3.921127  0  0  -0.223685  0  3.939623  0  -0.029222  0  -0.093598  -0.220768  0  3.90858  0
C  C74  1  0.16525469  0.02275008  0.28315891  1  0  -0.188716  0  3.67539  0  0  -0.222099  0  3.921039  0  0  -0.223605  0  3.939535  0  -0.0293  0  -0.093604  -0.220692  0  3.908494  0
C  C75  1  0.33474304  0.47724955  0.78316029  1  0  -0.188782  0  3.67541  0  0  -0.222164  0  3.921055  0  0  -0.223671  0  3.93955  0  -0.029348  0  -0.093626  -0.220756  0  3.908509  0
C  C76  1  0.76741970  0.77461040  0.67200069  1  0  -0.112207  0  3.751939  0  0  -0.15604  0  4.014711  0  0  -0.154247  0  4.033328  0  -0.067549  0  -0.094572  -0.157044  0  4.00183  0
C  C77  1  0.73258178  0.72539199  0.17200138  1  0  -0.112152  0  3.751999  0  0  -0.15598  0  4.014766  0  0  -0.154186  0  4.033382  0  -0.068045  0  -0.094508  -0.156983  0  4.001886  0
C  C78  1  0.23257925  0.22538973  0.32799931  1  0  -0.112193  0  3.75203  0  0  -0.156012  0  4.014804  0  0  -0.154219  0  4.033422  0  -0.067529  0  -0.09455  -0.157017  0  4.001925  0
C  C79  1  0.26742179  0.27460902  0.82800069  1  0  -0.112215  0  3.752205  0  0  -0.156043  0  4.01498  0  0  -0.15425  0  4.033597  0  -0.067789  0  -0.094548  -0.157045  0  4.002097  0
C  C80  1  0.16044911  0.76381434  0.80190969  1  0  0.01847  0  3.769264  0  0  -0.020065  0  4.045287  0  0  -0.017651  0  4.065857  0  0.39931  0  -0.004133  -0.021768  0  4.03117  0
C  C81  1  0.33955231  0.73618893  0.30190900  1  0  0.018436  0  3.76929  0  0  -0.020091  0  4.045327  0  0  -0.017676  0  4.065898  0  0.39952  0  -0.00416  -0.021794  0  4.031212  0
C  C82  1  0.83955106  0.23618667  0.19809031  1  0  0.018517  0  3.769226  0  0  -0.02001  0  4.045244  0  0  -0.017596  0  4.065817  0  0.399275  0  -0.004125  -0.021713  0  4.031128  0
C  C83  1  0.66044750  0.26380856  0.69809031  1  0  0.018445  0  3.769422  0  0  -0.020089  0  4.045446  0  0  -0.017675  0  4.06602  0  0.39914  0  -0.004171  -0.021791  0  4.031331  0
C  C84  1  0.04002610  0.68454912  0.82034195  1  0  -0.054814  0  3.681943  0  0  -0.100053  0  3.951177  0  0  -0.09959  0  3.971957  0  0.313645  0  -0.000518  -0.100398  0  3.937083  0
C  C85  1  0.45997252  0.81544888  0.32034126  1  0  -0.05481  0  3.682063  0  0  -0.100047  0  3.95129  0  0  -0.099581  0  3.972059  0  0.313356  0  -0.00051  -0.100391  0  3.937195  0
C  C86  1  0.95997399  0.31545101  0.17965805  1  0  -0.054849  0  3.681983  0  0  -0.100082  0  3.951213  0  0  -0.099625  0  3.971989  0  0.313665  0  -0.000516  -0.100427  0  3.937119  0
C  C87  1  0.54002851  0.18454949  0.67965736  1  0  -0.054819  0  3.682187  0  0  -0.100054  0  3.951416  0  0  -0.099595  0  3.972186  0  0.313435  0  -0.000476  -0.100398  0  3.937321  0
C  C88  1  0.99032201  0.88118099  0.60656739  1  0  -0.161126  0  3.666393  0  0  -0.196915  0  3.918803  0  0  -0.197629  0  3.935497  0  0.054245  0  -0.087547  -0.196352  0  3.907964  0
C  C89  1  0.50967842  0.61882228  0.10657015  1  0  -0.160964  0  3.666435  0  0  -0.196813  0  3.918805  0  0  -0.197529  0  3.935503  0  0.054262  0  -0.087499  -0.196253  0  3.907975  0
C  C90  1  0.00967807  0.11881914  0.39343330  1  0  -0.161127  0  3.666415  0  0  -0.196936  0  3.918816  0  0  -0.197651  0  3.935511  0  0.054513  0  -0.087549  -0.196373  0  3.907973  0
C  C91  1  0.49031948  0.38117873  0.89343054  1  0  -0.160994  0  3.666359  0  0  -0.196803  0  3.918739  0  0  -0.19752  0  3.935438  0  0.054569  0  -0.087475  -0.196243  0  3.907905  0
C  C92  1  0.92681623  0.67241223  0.55929542  1  0  0.683446  0  3.857979  0  0  0.633364  0  4.139557  0  0  0.669365  0  4.130556  0  1.558174  0  0.224794  0.609155  0  4.14487  0
C  C93  1  0.57318167  0.82758841  0.05929748  1  0  0.683503  0  3.857861  0  0  0.633429  0  4.139427  0  0  0.66943  0  4.130424  0  1.558171  0  0.224818  0.609221  0  4.14474  0
C  C94  1  0.07318141  0.32758614  0.44070390  1  0  0.683446  0  3.857966  0  0  0.633355  0  4.139556  0  0  0.669356  0  4.130553  0  1.558159  0  0.224799  0.609144  0  4.144869  0
C  C95  1  0.42681727  0.17241172  0.94070321  1  0  0.683401  0  3.857864  0  0  0.633329  0  4.139431  0  0  0.669329  0  4.130432  0  1.558181  0  0.224793  0.60912  0  4.144742  0
C  C96  1  0.08455361  0.84137297  0.04042813  1  0  -0.392725  0  3.697002  0  0  -0.472179  0  3.933481  0  0  -0.476169  0  3.938711  0  -0.056618  0  -0.229586  -0.469408  0  3.929755  0
C  C97  1  0.41544405  0.65862678  0.54042813  1  0  -0.392812  0  3.696864  0  0  -0.472274  0  3.933351  0  0  -0.476264  0  3.938578  0  -0.056584  0  -0.229604  -0.469504  0  3.929626  0
C  C98  1  0.91544534  0.15862716  0.95957118  1  0  -0.392758  0  3.696786  0  0  -0.472201  0  3.933279  0  0  -0.47619  0  3.938507  0  -0.056581  0  -0.229568  -0.469431  0  3.929553  0
C  C99  1  0.58455367  0.34137247  0.45957256  1  0  -0.392817  0  3.696992  0  0  -0.472294  0  3.933475  0  0  -0.476286  0  3.938703  0  -0.056618  0  -0.229622  -0.469524  0  3.92975  0
C  C100  1  0.09370120  0.79261791  0.94578697  1  0  0.379942  0  3.674674  0  0  0.355709  0  3.937972  0  0  0.372019  0  3.953118  0  0.973218  0  0.222258  0.344928  0  3.927697  0
C  C101  1  0.40629682  0.70738536  0.44578697  1  0  0.3799  0  3.674634  0  0  0.355738  0  3.937848  0  0  0.37205  0  3.952994  0  0.973218  0  0.222282  0.344958  0  3.927573  0
C  C102  1  0.90629565  0.20738398  0.05421165  1  0  0.379859  0  3.674615  0  0  0.355644  0  3.9379  0  0  0.371953  0  3.953046  0  0.973178  0  0.22225  0.344863  0  3.927626  0
C  C103  1  0.59370231  0.29261653  0.55421372  1  0  0.380009  0  3.674632  0  0  0.355833  0  3.93785  0  0  0.372144  0  3.952996  0  0.973244  0  0.222344  0.345052  0  3.927575  0
C  C104  1  0.88322089  0.63124844  0.96168287  1  0  -0.004033  0  3.621159  0  0  -0.065431  0  3.877294  0  0  -0.061722  0  3.889146  0  0.261609  0  -0.057668  -0.067739  0  3.869134  0
C  C105  1  0.61677910  0.86875044  0.46168356  1  0  -0.004001  0  3.621163  0  0  -0.065401  0  3.877281  0  0  -0.061693  0  3.889138  0  0.261488  0  -0.057633  -0.067708  0  3.869122  0
C  C106  1  0.11677797  0.36875081  0.03831713  1  0  -0.003988  0  3.621175  0  0  -0.065386  0  3.877315  0  0  -0.061677  0  3.88917  0  0.26147  0  -0.057638  -0.067693  0  3.869154  0
C  C107  1  0.38322212  0.13124969  0.53831575  1  0  -0.004047  0  3.621137  0  0  -0.065453  0  3.877287  0  0  -0.061739  0  3.889135  0  0.261472  0  -0.05767  -0.067764  0  3.869131  0
C  C108  1  0.92552946  0.50478000  0.97390003  1  0  -0.123273  0  3.680954  0  0  -0.167331  0  3.950703  0  0  -0.168346  0  3.964389  0  -0.003219  0  -0.161102  -0.166367  0  3.941121  0
C  C109  1  0.57446949  0.99521976  0.47390072  1  0  -0.1233  0  3.681099  0  0  -0.167364  0  3.950854  0  0  -0.168379  0  3.964542  0  0.021466  0  -0.161105  -0.166399  0  3.941271  0
C  C110  1  0.07447053  0.49521925  0.02609997  1  0  -0.123295  0  3.68106  0  0  -0.167366  0  3.950812  0  0  -0.168382  0  3.964499  0  0.021485  0  -0.161119  -0.166403  0  3.94123  0
C  C111  1  0.42553051  0.00477949  0.52609928  1  0  -0.123225  0  3.681003  0  0  -0.167308  0  3.950773  0  0  -0.168324  0  3.964459  0  -0.00322  0  -0.161108  -0.166343  0  3.941191  0
N  N112  1  0.99931662  0.70339805  0.91093623  1  0  -0.111397  0  3.523669  0  0  -0.019491  0  3.738941  0  0  -0.034896  0  3.764438  0  -1.22081  0  -0.240769  -0.009293  0  3.721628  0
N  N113  1  0.50068348  0.79660346  0.41093554  1  0  -0.111348  0  3.523682  0  0  -0.019468  0  3.738939  0  0  -0.03487  0  3.764436  0  -1.220701  0  -0.240775  -0.009268  0  3.721625  0
N  N114  1  0.00068218  0.29660208  0.08906446  1  0  -0.111347  0  3.523646  0  0  -0.019443  0  3.738911  0  0  -0.034849  0  3.764412  0  -1.220687  0  -0.240768  -0.009246  0  3.721598  0
N  N115  1  0.49931546  0.20339667  0.58906515  1  0  -0.111356  0  3.52368  0  0  -0.019461  0  3.738936  0  0  -0.034867  0  3.764434  0  -1.220716  0  -0.240779  -0.009263  0  3.721624  0
N  N116  1  0.19335095  0.83033160  0.88013857  1  0  -0.458459  0  3.268883  0  0  -0.381098  0  3.564892  0  0  -0.403568  0  3.575433  0  -1.232834  0  -0.367438  -0.366151  0  3.55771  0
N  N117  1  0.30664898  0.66966815  0.38013788  1  0  -0.45845  0  3.26875  0  0  -0.381116  0  3.564748  0  0  -0.403588  0  3.575286  0  -1.232751  0  -0.367429  -0.366169  0  3.557568  0
N  N118  1  0.80665027  0.16966853  0.11986212  1  0  -0.458477  0  3.26892  0  0  -0.381134  0  3.564946  0  0  -0.403605  0  3.575485  0  -1.232782  0  -0.367473  -0.366188  0  3.557766  0
N  N119  1  0.69335092  0.33033022  0.61986350  1  0  -0.458502  0  3.268873  0  0  -0.381157  0  3.564871  0  0  -0.403628  0  3.575407  0  -1.232748  0  -0.367454  -0.366209  0  3.557689  0
O  O120  1  0.04984240  0.67794962  0.51301275  1  0  -0.634195  0  2.087443  0  0  -0.561739  0  2.359987  0  0  -0.58954  0  2.343374  0  -1.176068  0  -0.311729  -0.542605  0  2.370771  0
O  O121  1  0.45015431  0.82205190  0.01301413  1  0  -0.634234  0  2.087393  0  0  -0.561767  0  2.359926  0  0  -0.589568  0  2.343311  0  -1.176094  0  -0.311742  -0.542633  0  2.37071  0
O  O122  1  0.95015541  0.32205051  0.48698587  1  0  -0.634218  0  2.087432  0  0  -0.561743  0  2.359964  0  0  -0.589544  0  2.343348  0  -1.1761  0  -0.311741  -0.542609  0  2.370748  0
O  O123  1  0.54984473  0.17794911  0.98698725  1  0  -0.634195  0  2.087358  0  0  -0.561734  0  2.359895  0  0  -0.589536  0  2.343282  0  -1.17609  0  -0.311733  -0.542601  0  2.37068  0
O  O124  1  0.83038530  0.58266395  0.56344571  1  0  -0.659828  0  2.065221  0  0  -0.59112  0  2.339418  0  0  -0.618067  0  2.321045  0  -1.184782  0  -0.328514  -0.572219  0  2.351043  0
O  O125  1  0.66961399  0.91733932  0.06344640  1  0  -0.659865  0  2.065128  0  0  -0.591169  0  2.339335  0  0  -0.618115  0  2.320959  0  -1.184784  0  -0.328552  -0.572268  0  2.350957  0
O  O126  1  0.16961504  0.41733882  0.43655567  1  0  -0.65983  0  2.065169  0  0  -0.591122  0  2.339385  0  0  -0.618069  0  2.321012  0  -1.184779  0  -0.328529  -0.572219  0  2.351009  0
O  O127  1  0.33038618  0.08266169  0.93655429  1  0  -0.659819  0  2.065183  0  0  -0.591114  0  2.339379  0  0  -0.618059  0  2.321007  0  -1.184787  0  -0.328528  -0.572213  0  2.351004  0
O  O128  1  0.50574769  0.77794708  0.78097139  1  0  -0.645972  0  2.013593  0  0  -0.591002  0  2.242454  0  0  -0.615282  0  2.231451  0  -1.212434  0  -0.316668  -0.5739  0  2.249286  0
O  O129  1  0.99425596  0.72205443  0.28097208  1  0  -0.645933  0  2.013456  0  0  -0.590977  0  2.242323  0  0  -0.615254  0  2.231315  0  -1.212346  0  -0.316633  -0.573872  0  2.249146  0
O  O130  1  0.49425570  0.22205217  0.21902930  1  0  -0.645918  0  2.0136  0  0  -0.590956  0  2.24246  0  0  -0.61523  0  2.231452  0  -1.212352  0  -0.31669  -0.573852  0  2.249288  0
O  O131  1  0.00574770  0.27794746  0.71902861  1  0  -0.645971  0  2.01363  0  0  -0.591008  0  2.242482  0  0  -0.615286  0  2.231478  0  -1.212435  0  -0.31668  -0.573905  0  2.249315  0
O  O132  1  0.56891250  0.96230754  0.82721131  1  0  -0.639938  0  2.020793  0  0  -0.568326  0  2.283173  0  0  -0.597507  0  2.268477  0  -1.15209  0  -0.32279  -0.547716  0  2.292422  0
O  O133  1  0.93108889  0.53769397  0.32721131  1  0  -0.63993  0  2.020737  0  0  -0.568325  0  2.283094  0  0  -0.597506  0  2.268395  0  -1.151948  0  -0.322809  -0.547715  0  2.292345  0
O  O134  1  0.43108994  0.03769347  0.17278800  1  0  -0.639881  0  2.020763  0  0  -0.568276  0  2.283137  0  0  -0.597457  0  2.268439  0  -1.152063  0  -0.322795  -0.547666  0  2.292386  0
O  O135  1  0.06891232  0.46230616  0.67278938  1  0  -0.639929  0  2.020793  0  0  -0.568314  0  2.283151  0  0  -0.597494  0  2.268452  0  -1.151947  0  -0.322768  -0.547703  0  2.2924  0
O  O136  1  0.06500616  0.07489281  0.65181110  1  0  -0.533878  0  2.12634  0  0  -0.483221  0  2.328544  0  0  -0.502735  0  2.317649  0  -1.192633  0  -0.357906  -0.469185  0  2.335988  0
O  O137  1  0.43499619  0.42510770  0.15181110  1  0  -0.533838  0  2.126511  0  0  -0.483212  0  2.328679  0  0  -0.502726  0  2.317784  0  -1.192627  0  -0.357873  -0.469173  0  2.336111  0
O  O138  1  0.93499183  0.92510908  0.34818752  1  0  -0.533887  0  2.126349  0  0  -0.483226  0  2.328543  0  0  -0.502741  0  2.317649  0  -1.192644  0  -0.35787  -0.469188  0  2.335958  0
O  O139  1  0.56500711  0.57489068  0.84818752  1  0  -0.533904  0  2.126425  0  0  -0.483257  0  2.328605  0  0  -0.50277  0  2.31771  0  -1.192612  0  -0.357888  -0.46922  0  2.336039  0
