# generated using pymatgen
data_MnH22C32S(N2O3)2
_symmetry_space_group_name_H-M   'P 1'
_cell_length_a   10.07155303
_cell_length_b   12.30779856
_cell_length_c   13.79861098
_cell_angle_alpha   73.04325124
_cell_angle_beta   68.59492393
_cell_angle_gamma   65.85209169
_symmetry_Int_Tables_number   1
_chemical_formula_structural   MnH22C32S(N2O3)2
_chemical_formula_sum   'Mn2 H44 C64 S2 N8 O12'
_cell_volume   1432.57873251
_cell_formula_units_Z   2
loop_
 _symmetry_equiv_pos_site_id
 _symmetry_equiv_pos_as_xyz
  1  'x, y, z'
loop_
 _atom_site_type_symbol
 _atom_site_label
 _atom_site_symmetry_multiplicity
 _atom_site_fract_x
 _atom_site_fract_y
 _atom_site_fract_z
 _atom_site_occupancy
 _atom_site_hle17_ddec_charge
 _atom_site_hle17_ddec_spin_density
 _atom_site_hle17_ddec_sum_bond_order
 _atom_site_hle17_magmom
 _atom_site_hse06_10hf_ddec_charge
 _atom_site_hse06_10hf_ddec_spin_density
 _atom_site_hse06_10hf_ddec_sum_bond_order
 _atom_site_hse06_10hf_magmom
 _atom_site_hse06_ddec_charge
 _atom_site_hse06_ddec_spin_density
 _atom_site_hse06_ddec_sum_bond_order
 _atom_site_hse06_magmom
 _atom_site_pbe_cm5_charge
 _atom_site_pbe_ddec_charge
 _atom_site_pbe_ddec_spin_density
 _atom_site_pbe_ddec_sum_bond_order
 _atom_site_pbe_magmom
Mn  Mn0  1  0.04643867  0.39628442  0.38711794  1  1.078705  -4.805635  1.803715  -4.636  0.903524  -4.737968  2.314639  -4.484  0.970808  -4.785105  2.240613  -4.558  0.625743  0.851493  -4.688655  2.368656  -4.41
Mn  Mn1  1  0.17018937  0.89622449  0.88699857  1  1.079198  -4.802588  1.804368  -4.636  0.903782  -4.734919  2.315548  -4.484  0.971175  -4.782045  2.24128  -4.558  0.625293  0.851039  -4.686551  2.369901  -4.411
H  H2  1  0.47155766  0.33983454  0.30898488  1  0.10011  0.000314  0.963086  0.0  0.108778  0.000371  1.027358  0.0  0.111553  0.000386  1.026595  0.0  0.103041  0.106749  0.000367  1.027942  0.0
H  H3  1  0.87942515  0.84013281  0.80912255  1  0.100466  0.000325  0.96345  0.0  0.109003  0.000374  1.027833  0.0  0.111773  0.000389  1.027077  0.0  0.10315  0.106869  0.00036  1.028635  0.0
H  H4  1  0.74427364  0.44426934  0.93336159  1  0.102318  -1.1e-05  0.970854  0.0  0.111179  -3.7e-05  1.036184  0.0  0.113788  -2.9e-05  1.035701  0.0  0.101691  0.109381  -5.6e-05  1.036476  0.0
H  H5  1  0.87795674  0.94399058  0.43353587  1  0.101751  -7e-06  0.972133  0.0  0.11052  -3.8e-05  1.037647  0.0  0.113196  -2.9e-05  1.037093  0.0  0.101541  0.108654  -4.6e-05  1.037984  0.0
H  H6  1  0.92762727  0.08563383  0.14373263  1  0.095143  4.9e-05  0.971793  0.0  0.105485  3.9e-05  1.034522  0.0  0.107864  5e-05  1.033993  0.0  0.101658  0.10371  2.2e-05  1.035118  0.0
H  H7  1  0.84335416  0.58547547  0.64386365  1  0.094845  4.3e-05  0.972068  0.0  0.105065  3.8e-05  1.035063  0.0  0.107454  5e-05  1.034517  0.0  0.10145  0.1033  2.5e-05  1.035572  0.0
H  H8  1  0.36775403  0.54311561  0.84700530  1  0.12592  0.000166  0.931684  0.0  0.134957  0.000207  0.990799  0.0  0.13881  0.000224  0.988295  0.0  0.11474  0.132113  0.000174  0.992696  0.0
H  H9  1  0.24207415  0.04322375  0.34707475  1  0.125889  0.000165  0.931396  0.0  0.134874  0.000207  0.990475  0.0  0.138825  0.000224  0.987865  0.0  0.114341  0.131989  0.000184  0.992417  0.0
H  H10  1  0.52271751  0.14748185  0.76299036  1  0.0994  -1.8e-05  0.940527  0.0  0.111743  2.2e-05  0.998664  0.0  0.114603  2.1e-05  0.997562  0.0  0.107521  0.109632  1.7e-05  0.999577  0.0
H  H11  1  0.56674079  0.64741720  0.26298289  1  0.0993  -1.6e-05  0.940622  0.0  0.111567  2.2e-05  0.998844  0.0  0.114406  2.1e-05  0.997791  0.0  0.107451  0.109413  5e-06  0.999834  0.0
H  H12  1  0.39834870  0.55055208  0.21834185  1  0.122339  8.6e-05  0.964592  0.0  0.133074  9.9e-05  1.023969  0.0  0.136442  0.000105  1.021944  0.0  0.108534  0.130574  8.9e-05  1.025593  0.0
H  H13  1  0.83252082  0.05076881  0.71826831  1  0.122581  8.2e-05  0.965714  0.0  0.133328  0.0001  1.025048  0.0  0.136716  0.000105  1.023015  0.0  0.108814  0.130787  8.6e-05  1.026699  0.0
H  H14  1  0.35840493  0.13655385  0.66890932  1  0.113347  0.000341  0.944549  0.0  0.121396  0.000299  1.006231  0.0  0.125327  0.000322  1.003517  0.0  0.110601  0.118385  0.000267  1.008396  0.0
H  H15  1  0.83615094  0.63630479  0.16886827  1  0.113299  0.000338  0.945013  0.0  0.121398  0.0003  1.006702  0.0  0.125317  0.000323  1.00398  0.0  0.110716  0.11844  0.000259  1.008796  0.0
H  H16  1  0.43473165  0.17077817  0.12034843  1  0.103493  9.7e-05  0.956994  0.0  0.111159  -6.7e-05  1.022559  0.0  0.114436  -1e-06  1.021016  0.0  0.106847  0.108783  -0.000126  1.023695  0.0
H  H17  1  0.27423038  0.67058875  0.62010976  1  0.103733  8.7e-05  0.956829  0.0  0.111068  -6.6e-05  1.022716  0.0  0.114366  -1e-06  1.021119  0.0  0.106619  0.108715  -0.000139  1.023879  0.0
H  H18  1  0.81897545  0.23240617  0.02429405  1  0.09427  9.9e-05  0.96126  0.0  0.104474  0.000124  1.022934  0.0  0.106692  0.000126  1.022824  0.0  0.101979  0.102885  0.000117  1.023038  0.0
H  H19  1  0.92445031  0.73215760  0.52457187  1  0.093933  9.8e-05  0.961548  0.0  0.104087  0.000125  1.023204  0.0  0.106349  0.000127  1.023037  0.0  0.102084  0.102421  0.000117  1.02345  0.0
H  H20  1  0.98789805  0.68184841  0.26171588  1  0.119731  0.000621  0.937647  0.0  0.125565  0.00028  1.003824  0.0  0.129065  0.000335  0.999308  0.0  0.144235  0.122766  0.00022  1.007455  0.0
H  H21  1  0.06888206  0.18187455  0.76164008  1  0.120229  0.000625  0.936268  0.0  0.125505  0.000283  1.002982  0.0  0.128995  0.000338  0.998495  0.0  0.144464  0.122773  0.000221  1.006494  0.0
H  H22  1  0.57701038  0.79062443  0.50421253  1  0.116137  -0.000223  0.964288  0.0  0.127406  -0.000259  1.021127  0.0  0.129671  -0.00019  1.020759  0.0  0.123227  0.125845  -0.000328  1.021304  0.0
H  H23  1  0.12820571  0.29027930  0.00450799  1  0.116421  -0.000227  0.964035  0.0  0.127592  -0.000259  1.020841  0.0  0.129824  -0.000189  1.020502  0.0  0.123295  0.126008  -0.000328  1.021066  0.0
H  H24  1  0.98057135  0.87241454  0.22376492  1  0.114335  1.8e-05  0.962821  0.0  0.121293  -0.000108  1.029434  0.0  0.124449  -5.7e-05  1.027822  0.0  0.107925  0.118985  -0.000161  1.030711  0.0
H  H25  1  0.92363403  0.37228098  0.72387804  1  0.113567  3.5e-05  0.963948  0.0  0.120483  -0.000107  1.030676  0.0  0.123656  -5.7e-05  1.029017  0.0  0.107867  0.118114  -0.000159  1.032009  0.0
H  H26  1  0.19248701  0.54603662  0.03114293  1  0.12029  0.000222  0.964396  0.0  0.126897  0.000135  1.029006  0.0  0.130758  0.000204  1.026462  0.0  0.110019  0.124073  5.4e-05  1.03093  0.0
H  H27  1  0.23021632  0.04594432  0.53128735  1  0.120421  0.000232  0.963737  0.0  0.12701  0.000137  1.0283  0.0  0.130894  0.000206  1.025749  0.0  0.110349  0.124163  4.5e-05  1.030259  0.0
H  H28  1  0.72953694  0.65345548  0.91403881  1  0.112985  -0.000202  0.975715  0.0  0.120651  -0.000254  1.040615  0.0  0.122636  -0.000191  1.040963  0.0  0.119942  0.11922  -0.000316  1.040398  0.0
H  H29  1  0.70288696  0.15344043  0.41391461  1  0.113021  -0.000199  0.974841  0.0  0.120652  -0.000255  1.039699  0.0  0.122678  -0.000192  1.040073  0.0  0.120041  0.119158  -0.000321  1.03953  0.0
H  H30  1  0.50885544  0.95052012  0.40109051  1  0.090484  -2e-05  1.007894  0.0  0.103183  -6e-05  1.068243  0.0  0.105153  -4.6e-05  1.068741  0.0  0.09784  0.101795  -7.6e-05  1.067865  0.0
H  H31  1  0.13981862  0.45045836  0.90127220  1  0.091035  -2.6e-05  1.0088  0.0  0.103269  -6e-05  1.069548  0.0  0.105141  -4.6e-05  1.070155  0.0  0.098096  0.101892  -7.9e-05  1.069171  0.0
H  H32  1  0.27382897  0.67143816  0.07350336  1  0.117162  0.000296  0.956895  0.0  0.123775  -0.000275  1.022744  0.0  0.126844  -0.000164  1.018702  0.0  0.142943  0.121554  -0.000384  1.025466  0.0
H  H33  1  0.98117844  0.17133798  0.57339390  1  0.116259  0.000292  0.957221  0.0  0.12302  -0.000276  1.023017  0.0  0.126089  -0.000165  1.018976  0.0  0.142232  0.120792  -0.000381  1.025742  0.0
H  H34  1  0.45413243  0.16285288  0.31688353  1  0.111748  0.000284  0.96234  0.0  0.120946  0.000338  1.023717  0.0  0.12421  0.000353  1.021934  0.0  0.106112  0.118448  0.000308  1.025223  0.0
H  H35  1  0.06622146  0.66281674  0.81711593  1  0.112953  0.000289  0.962963  0.0  0.121965  0.000339  1.024448  0.0  0.125346  0.000353  1.022495  0.0  0.106611  0.119407  0.000312  1.02607  0.0
H  H36  1  0.71542663  0.54314941  0.54529966  1  0.115267  -0.00012  0.988285  0.0  0.122291  -0.000626  1.050715  0.0  0.125371  -0.000466  1.048643  0.0  0.117746  0.120055  -0.000773  1.05231  0.0
H  H37  1  0.19595832  0.04286217  0.04539035  1  0.11537  -0.000114  0.988667  0.0  0.12168  -0.000624  1.051958  0.0  0.124771  -0.000464  1.04986  0.0  0.117444  0.11942  -0.000785  1.053572  0.0
H  H38  1  0.33681865  0.48951029  0.49121183  1  0.10054  0.000252  0.963802  0.0  0.111199  0.000256  1.022355  0.0  0.114836  0.000281  1.019585  0.0  0.105643  0.108529  0.000222  1.024439  0.0
H  H39  1  0.68266163  0.98918944  0.99102541  1  0.099692  0.000253  0.963831  0.0  0.110906  0.000256  1.021849  0.0  0.114454  0.000281  1.019189  0.0  0.105761  0.108277  0.000208  1.023903  0.0
H  H40  1  0.53362400  0.86389551  0.82901949  1  0.104415  -9.3e-05  0.942741  0.0  0.11714  -0.000592  0.995772  0.0  0.119527  -0.000417  0.995079  0.0  0.12154  0.115324  -0.000766  0.99656  0.0
H  H41  1  0.77367152  0.36374784  0.32877301  1  0.104147  -8.5e-05  0.943965  0.0  0.117159  -0.000587  0.996711  0.0  0.119568  -0.000413  0.995988  0.0  0.12133  0.115326  -0.000768  0.997535  0.0
H  H42  1  0.60951532  0.16546264  0.93438569  1  0.102193  -1e-05  0.965194  0.0  0.11333  2.4e-05  1.023183  0.0  0.116878  2.3e-05  1.020425  0.0  0.107053  0.110784  2.1e-05  1.025185  0.0
H  H43  1  0.29086642  0.66548785  0.43403217  1  0.101267  -1.3e-05  0.966125  0.0  0.112789  2.5e-05  1.023836  0.0  0.116384  2.3e-05  1.021021  0.0  0.106796  0.110145  2.2e-05  1.025991  0.0
H  H44  1  0.49673078  0.50527461  0.58750228  1  0.101843  3.1e-05  0.96799  0.0  0.110336  8e-05  1.031658  0.0  0.113322  7.2e-05  1.030326  0.0  0.107676  0.108132  7.9e-05  1.032764  0.0
H  H45  1  0.41065168  0.00517020  0.08731874  1  0.101568  4.1e-05  0.969706  0.0  0.110647  8e-05  1.032557  0.0  0.113567  7.2e-05  1.031299  0.0  0.107734  0.108451  7.7e-05  1.033667  0.0
C  C46  1  0.30320468  0.35764285  0.08505117  1  -0.042984  0.003428  3.731734  0.003  -0.020838  0.002516  3.9618  0.002  -0.025456  0.002902  3.981508  0.002  -0.007632  -0.018094  0.001982  3.949071  0.002
C  C47  1  0.25398266  0.85750911  0.58502900  1  -0.042121  0.003465  3.734069  0.003  -0.019857  0.002529  3.963508  0.002  -0.02439  0.002911  3.983091  0.002  -0.007737  -0.017059  0.002035  3.95073  0.002
C  C48  1  0.33618539  0.31416975  0.57647291  1  -0.042382  0.002285  3.731246  0.001  -0.021477  0.002451  3.963863  0.002  -0.02644  0.002639  3.984753  0.002  -0.0092  -0.018447  0.002165  3.949896  0.002
C  C49  1  0.77326178  0.81386524  0.07628325  1  -0.042707  0.002249  3.7319  0.001  -0.02154  0.002441  3.964493  0.002  -0.026509  0.002618  3.98537  0.002  -0.008439  -0.018462  0.002052  3.950628  0.002
C  C50  1  0.51640754  0.32825530  0.68090656  1  -0.106426  -0.001185  3.744386  -0.001  -0.085371  -0.001443  3.999315  -0.001  -0.091163  -0.001157  4.022646  -0.001  -0.022034  -0.08145  -0.002142  3.983383  -0.002
C  C51  1  0.47448459  0.82817723  0.18082729  1  -0.106136  -0.001144  3.746375  -0.001  -0.085268  -0.001446  4.001703  -0.001  -0.091022  -0.00114  4.024979  -0.001  -0.022424  -0.081268  -0.002207  3.985793  -0.002
C  C52  1  0.53434001  0.36133191  0.22703957  1  -0.094216  0.000318  3.730271  0.0  -0.112314  0.00019  3.977435  0.0  -0.114653  0.000261  3.99915  0.0  -0.086087  -0.110607  0.000155  3.962659  0.0
C  C53  1  0.87705945  0.86146660  0.72720948  1  -0.093553  0.00017  3.729482  0.0  -0.111297  0.000191  3.976629  0.0  -0.113642  0.000265  3.998345  0.0  -0.085792  -0.109591  9.1e-05  3.962084  0.0
C  C54  1  0.56838973  0.51021843  0.07062863  1  0.173626  -0.000231  3.785886  0.0  0.16684  -0.000327  4.03391  0.0  0.171465  -0.000168  4.057643  0.0  0.091581  0.163785  -0.000574  4.017911  0.0
C  C55  1  0.85061778  0.01017037  0.57066963  1  0.172158  -0.000318  3.787447  0.0  0.165794  -0.000321  4.03474  0.0  0.170435  -0.000176  4.05845  0.0  0.090907  0.162567  -0.000521  4.018615  0.0
C  C56  1  0.68695807  0.14151837  0.22403583  1  0.033862  -0.00047  3.796848  0.0  0.047183  -0.000801  4.029253  -0.001  0.046322  -0.000617  4.053809  0.0  -0.011998  0.047723  -0.000852  4.012586  -0.001
C  C57  1  0.94749263  0.64149664  0.72435273  1  0.033839  -0.000508  3.798778  0.0  0.04779  -0.000797  4.030575  -0.001  0.046929  -0.000626  4.055146  0.0  -0.01114  0.048259  -0.001102  4.014004  -0.001
C  C58  1  0.68901592  0.42127884  0.01681665  1  -0.142721  -0.000304  3.746544  0.0  -0.163618  -0.000502  3.998209  0.0  -0.166775  -0.000394  4.018802  0.0  -0.093921  -0.161502  -0.000675  3.984208  0.0
C  C59  1  0.87278677  0.92110812  0.51697119  1  -0.14233  -0.000252  3.748556  0.0  -0.163328  -0.000504  4.000183  0.0  -0.166545  -0.000393  4.020733  0.0  -0.094133  -0.161138  -0.000594  3.9863  0.0
C  C60  1  0.83399754  0.05652291  0.19835989  1  -0.082397  0.000367  3.715091  0.0  -0.101136  0.00021  3.960388  0.0  -0.102277  0.000313  3.980771  0.0  -0.083348  -0.100236  0.00013  3.9465  0.0
C  C61  1  0.91138567  0.55643546  0.69856297  1  -0.081989  0.000452  3.718174  0.0  -0.100738  0.000208  3.963384  0.0  -0.101882  0.000322  3.983794  0.0  -0.082953  -0.099811  0.000118  3.949521  0.0
C  C62  1  0.38066467  0.46123992  0.90632950  1  -0.061345  0.001414  3.702473  0.001  -0.085232  0.00059  3.954759  0.0  -0.085306  0.000934  3.973129  0.001  -0.07629  -0.084974  0.000291  3.942259  0.0
C  C63  1  0.25173058  0.96129412  0.40633673  1  -0.062452  0.001467  3.702587  0.001  -0.086489  0.000587  3.954761  0.0  -0.086684  0.000943  3.973173  0.001  -0.076308  -0.086087  0.000402  3.942171  0.0
C  C64  1  0.48125470  0.22279699  0.70397342  1  -0.063221  0.001264  3.735734  0.001  -0.090936  0.00079  3.99557  0.001  -0.090949  0.000947  4.015489  0.001  -0.082615  -0.090607  0.000704  3.981563  0.001
C  C65  1  0.59197037  0.72268595  0.20392615  1  -0.064374  0.001231  3.736892  0.001  -0.091861  0.000791  3.996857  0.001  -0.091901  0.000936  4.016807  0.001  -0.082897  -0.091619  0.000628  3.983197  0.0
C  C66  1  0.65250062  0.26954869  0.17370775  1  0.041625  -0.000256  3.792426  0.0  0.057396  -0.000436  4.020911  0.0  0.056565  -0.000316  4.046243  0.0  -0.008812  0.05805  -0.000474  4.003675  0.0
C  C67  1  0.90411584  0.76954167  0.67398893  1  0.041658  -0.00018  3.791065  0.0  0.056577  -0.000432  4.020468  0.0  0.055748  -0.000323  4.045797  0.0  -0.009402  0.057104  -0.00053  4.003392  0.0
C  C68  1  0.49180490  0.48083587  0.17644455  1  -0.15133  -0.000155  3.738386  0.0  -0.173319  -0.000278  3.992313  0.0  -0.177432  -0.000177  4.013537  0.0  -0.091726  -0.170532  -0.000322  3.978063  0.0
C  C69  1  0.85069991  0.98094611  0.67649196  1  -0.151978  -5.7e-05  3.740714  0.0  -0.174121  -0.000282  3.994126  0.0  -0.178257  -0.000172  4.015356  0.0  -0.092306  -0.171287  -0.00037  3.979858  0.0
C  C70  1  0.39052400  0.21626156  0.65154354  1  -0.067858  -0.001536  3.699214  -0.001  -0.090899  -0.001663  3.951092  -0.002  -0.091727  -0.001389  3.969469  -0.001  -0.077711  -0.090194  -0.002408  3.938394  -0.002
C  C71  1  0.74170874  0.71602168  0.15145690  1  -0.066937  -0.001506  3.69987  -0.001  -0.090274  -0.00166  3.951813  -0.002  -0.09104  -0.001377  3.970135  -0.001  -0.07779  -0.089599  -0.002387  3.939292  -0.002
C  C72  1  0.41980144  0.25007314  0.05883070  1  -0.059989  -0.002011  3.716123  -0.002  -0.082636  -0.002425  3.964596  -0.002  -0.083817  -0.002026  3.985216  -0.002  -0.07663  -0.081958  -0.003103  3.950947  -0.003
C  C73  1  0.27131423  0.74996651  0.55867653  1  -0.061211  -0.001988  3.717475  -0.002  -0.083629  -0.002436  3.965913  -0.002  -0.084818  -0.002033  3.986502  -0.002  -0.076226  -0.082946  -0.003195  3.952213  -0.003
C  C74  1  0.73047220  0.30233001  0.06839004  1  -0.095579  9e-05  3.744653  0.0  -0.113351  1e-06  3.989832  0.0  -0.115499  6.2e-05  4.011423  0.0  -0.088679  -0.111805  -0.000114  3.975059  0.0
C  C75  1  0.89872971  0.80218717  0.56864815  1  -0.095216  2.7e-05  3.743982  0.0  -0.112728  -1e-06  3.9895  0.0  -0.114913  7.1e-05  4.011059  0.0  -0.088652  -0.111357  -8.1e-05  3.975087  0.0
C  C76  1  0.74771587  0.89673294  0.31815878  1  0.174017  -0.000164  3.794227  0.0  0.16621  -0.000168  4.042571  0.0  0.171731  1.2e-05  4.065345  0.0  0.092112  0.162517  -0.000383  4.027119  0.0
C  C77  1  0.03778805  0.39659685  0.81828887  1  0.173011  -0.000113  3.792523  0.0  0.164741  -0.000166  4.041708  0.0  0.170194  1e-05  4.064562  0.0  0.091974  0.161107  -0.000343  4.026152  0.0
C  C78  1  0.22753803  0.31295848  0.52591554  1  0.626289  -0.007511  3.946671  -0.006  0.579236  -0.012898  4.239164  -0.009  0.613465  -0.010273  4.233543  -0.008  0.206383  0.55572  -0.015708  4.241614  -0.011
C  C79  1  0.93371217  0.81264904  0.02576260  1  0.626888  -0.00748  3.944055  -0.006  0.579407  -0.012911  4.237203  -0.01  0.613629  -0.010275  4.231562  -0.008  0.206642  0.555852  -0.015538  4.239739  -0.011
C  C80  1  0.49497033  0.35225380  0.88170816  1  -0.108538  -0.001562  3.763138  -0.001  -0.085975  -0.001898  4.014706  -0.001  -0.091692  -0.001588  4.037956  -0.001  -0.021634  -0.082201  -0.002585  3.999006  -0.002
C  C81  1  0.27102360  0.85235256  0.38159538  1  -0.108008  -0.001551  3.763341  -0.001  -0.08514  -0.001911  4.014494  -0.001  -0.090846  -0.001587  4.037737  -0.001  -0.020754  -0.081323  -0.002623  3.998796  -0.002
C  C82  1  0.89834155  0.67669052  0.33473171  1  0.186515  -0.007496  3.593364  -0.007  0.12643  -0.010663  3.859215  -0.01  0.141577  -0.009192  3.870042  -0.008  0.156869  0.116353  -0.012408  3.851606  -0.011
C  C83  1  0.09049559  0.17662579  0.83471910  1  0.186254  -0.007523  3.594094  -0.007  0.127013  -0.010685  3.859934  -0.01  0.142149  -0.009214  3.87081  -0.008  0.157098  0.11693  -0.012587  3.852235  -0.011
C  C84  1  0.68136867  0.73140173  0.46033580  1  -0.061202  0.001267  3.673892  0.001  -0.101718  0.000388  3.931793  0.0  -0.100411  0.001076  3.951031  0.0  -0.00039  -0.102673  -0.000188  3.918853  0.0
C  C85  1  0.12695405  0.23116948  0.96050322  1  -0.062189  0.001325  3.677278  0.001  -0.102531  0.000389  3.934968  0.0  -0.101194  0.001081  3.95422  0.0  -4.9e-05  -0.103478  -0.000119  3.922122  0.0
C  C86  1  0.86502552  0.93525447  0.24429026  1  -0.145501  -0.000458  3.73699  0.0  -0.168303  -0.000879  3.994513  -0.001  -0.172328  -0.000662  4.014866  -0.001  -0.090741  -0.16555  -0.000939  3.980599  -0.001
C  C87  1  0.95586362  0.43513718  0.74440381  1  -0.143572  -0.000534  3.736508  -0.001  -0.166283  -0.000879  3.994407  -0.001  -0.170308  -0.000661  4.014819  -0.001  -0.090376  -0.163613  -0.001151  3.980594  -0.001
C  C88  1  0.20413625  0.36054404  0.19639363  1  0.61417  -0.007267  3.938634  -0.004  0.570673  -0.013497  4.219901  -0.009  0.604611  -0.010685  4.216149  -0.007  0.198959  0.547269  -0.016459  4.220991  -0.011
C  C89  1  0.23883245  0.86034389  0.69635392  1  0.612266  -0.007308  3.942069  -0.004  0.56873  -0.01353  4.223305  -0.009  0.602635  -0.01071  4.219622  -0.007  0.198585  0.545304  -0.016175  4.22435  -0.01
C  C90  1  0.28374526  0.46297606  0.00883812  1  -0.073976  -0.001963  3.685664  -0.002  -0.096973  -0.002354  3.936752  -0.002  -0.097849  -0.001964  3.954563  -0.002  -0.07674  -0.096516  -0.003007  3.925056  -0.003
C  C91  1  0.24438092  0.96290668  0.50887791  1  -0.073022  -0.002031  3.685154  -0.002  -0.095782  -0.002359  3.935891  -0.002  -0.096727  -0.001973  3.953756  -0.002  -0.076528  -0.095204  -0.0029  3.924052  -0.002
C  C92  1  0.60701035  0.68916251  0.93345949  1  -0.050066  0.001049  3.662598  0.0  -0.090039  -0.000519  3.919959  -0.001  -0.088351  0.000365  3.939563  0.0  0.003202  -0.091195  -0.001323  3.906799  -0.001
C  C93  1  0.77035417  0.18910555  0.43335647  1  -0.05007  0.001066  3.662582  0.0  -0.090064  -0.000508  3.920155  -0.001  -0.088443  0.000379  3.939722  0.0  0.003537  -0.091116  -0.001197  3.906952  -0.001
C  C94  1  0.60110522  0.97991204  0.34511336  1  -0.150724  -0.000397  3.767822  0.0  -0.172145  -0.000651  4.016433  0.0  -0.176316  -0.000555  4.038053  0.0  -0.098164  -0.169345  -0.000951  4.001803  -0.001
C  C95  1  0.07413958  0.47982405  0.84532014  1  -0.149477  -0.000401  3.765294  0.0  -0.170221  -0.000652  4.014145  0.0  -0.174302  -0.000556  4.035876  0.0  -0.098119  -0.167458  -0.000756  3.999509  -0.001
C  C96  1  0.36971274  0.69697200  0.01960439  1  0.183695  -0.011197  3.62254  -0.01  0.119623  -0.013577  3.894839  -0.011  0.134584  -0.012039  3.906699  -0.01  0.153049  0.109827  -0.015639  3.885993  -0.013
C  C97  1  0.91370083  0.19691459  0.51947714  1  0.183685  -0.011206  3.622489  -0.01  0.119364  -0.013607  3.894717  -0.011  0.134298  -0.012069  3.906603  -0.01  0.15359  0.109518  -0.015749  3.885947  -0.013
C  C98  1  0.57079874  0.10063763  0.29840623  1  -0.101557  0.000234  3.732585  0.0  -0.11771  5.4e-05  3.977824  0.0  -0.119367  0.000199  3.997515  0.0  -0.087683  -0.116589  -0.000101  3.964776  0.0
C  C99  1  0.03024080  0.60059732  0.79868089  1  -0.10421  0.000251  3.732976  0.0  -0.120468  5.4e-05  3.978327  0.0  -0.122209  0.000208  3.997946  0.0  -0.089169  -0.119423  -6e-05  3.965441  0.0
C  C100  1  0.75103342  0.60885819  0.47960719  1  -0.012815  -0.00329  3.761837  -0.004  -0.042451  -0.005469  4.025866  -0.005  -0.041132  -0.004583  4.046009  -0.004  -0.001528  -0.043302  -0.006322  4.012164  -0.006
C  C101  1  0.16047853  0.10865454  0.97968344  1  -0.011689  -0.003329  3.76229  -0.004  -0.040742  -0.005462  4.026395  -0.005  -0.039425  -0.004584  4.046532  -0.004  -0.001188  -0.041688  -0.006315  4.012773  -0.006
C  C102  1  0.37797444  0.41646300  0.55151289  1  -0.06205  -0.001426  3.7196  -0.001  -0.084202  -0.001636  3.965346  -0.002  -0.085568  -0.001379  3.985516  -0.001  -0.078402  -0.083284  -0.001996  3.951745  -0.002
C  C103  1  0.65417287  0.91615241  0.05130062  1  -0.060765  -0.001418  3.718795  -0.001  -0.083317  -0.001637  3.964574  -0.002  -0.084591  -0.001366  3.984749  -0.001  -0.07887  -0.08261  -0.002002  3.951169  -0.002
C  C104  1  0.50851837  0.79280448  0.89292213  1  0.00206  -0.003532  3.74795  -0.004  -0.028657  -0.005826  4.010539  -0.006  -0.027238  -0.004878  4.031354  -0.005  0.001802  -0.029878  -0.006545  3.996482  -0.006
C  C105  1  0.80581048  0.29269766  0.39277050  1  0.001692  -0.003555  3.749407  -0.004  -0.029345  -0.005812  4.012045  -0.006  -0.027928  -0.00487  4.032864  -0.005  0.00135  -0.030648  -0.006516  3.998081  -0.006
C  C106  1  0.51569807  0.24682520  0.95664194  1  -0.076345  0.001419  3.762174  0.001  -0.100402  0.000741  4.012391  0.0  -0.101658  0.001014  4.033635  0.001  -0.083005  -0.099412  0.000568  3.99795  0.0
C  C107  1  0.28091996  0.74682745  0.45642895  1  -0.07553  0.001418  3.762521  0.001  -0.099874  0.000749  4.01239  0.0  -0.10117  0.001024  4.033623  0.001  -0.08336  -0.098818  0.000685  3.998038  0.0
C  C108  1  0.46669021  0.42490590  0.60427559  1  -0.070924  0.00092  3.75644  0.001  -0.093397  7.8e-05  4.006052  0.0  -0.094112  0.000448  4.027086  0.0  -0.081894  -0.092789  -0.00016  3.991611  0.0
C  C109  1  0.50422088  0.92475697  0.10411846  1  -0.072047  0.000882  3.759603  0.001  -0.09511  8.2e-05  4.009481  0.0  -0.09576  0.000437  4.030534  0.0  -0.082365  -0.094552  0.000114  3.995151  0.0
S  S110  1  0.62053276  0.34500684  0.75250374  1  1.059662  -0.000153  5.23809  0.0  0.986199  -0.000523  5.730319  0.0  1.025788  -0.000322  5.716663  0.0  0.475821  0.95847  -0.000871  5.739809  0.0
S  S111  1  0.28198060  0.84511589  0.25240939  1  1.061593  -0.000165  5.2396  0.0  0.988436  -0.000526  5.73144  0.0  1.027928  -0.000314  5.717888  0.0  0.476336  0.960722  -0.000613  5.740871  0.0
N  N112  1  0.77582909  0.77410690  0.36819686  1  -0.092935  -0.001617  3.594793  -0.002  -0.002963  -0.003333  3.805464  -0.003  -0.018294  -0.002577  3.831371  -0.003  -0.222326  0.00731  -0.004049  3.78782  -0.004
N  N113  1  0.08215091  0.27397096  0.86829718  1  -0.094134  -0.001623  3.599937  -0.002  -0.004284  -0.003338  3.811184  -0.003  -0.019587  -0.002578  3.837102  -0.003  -0.223526  0.00594  -0.004066  3.793536  -0.004
N  N114  1  0.88577960  0.57589575  0.40094077  1  -0.383179  -0.030399  3.247292  -0.014  -0.312783  -0.034774  3.547234  -0.012  -0.335569  -0.030412  3.559435  -0.009  -0.35052  -0.296224  -0.038592  3.538492  -0.014
N  N115  1  0.13748505  0.07577674  0.90092835  1  -0.383778  -0.030402  3.248851  -0.013  -0.313436  -0.034779  3.548457  -0.012  -0.336235  -0.030417  3.56067  -0.009  -0.350727  -0.296669  -0.038583  3.539535  -0.014
N  N116  1  0.51750325  0.62910965  0.01398038  1  -0.091131  -0.001692  3.59487  -0.002  -0.000735  -0.003404  3.80524  -0.004  -0.016044  -0.002565  3.831251  -0.003  -0.223005  0.009319  -0.004149  3.787661  -0.004
N  N117  1  0.83933024  0.12905514  0.51390760  1  -0.089977  -0.001697  3.594617  -0.002  0.000546  -0.003408  3.804873  -0.004  -0.014765  -0.002569  3.83089  -0.003  -0.222781  0.010695  -0.004092  3.787172  -0.004
N  N118  1  0.36072672  0.79637655  0.94673358  1  -0.400142  -0.025128  3.257518  -0.003  -0.329345  -0.029101  3.567795  0.0  -0.352857  -0.024357  3.579483  0.003  -0.358543  -0.312105  -0.033563  3.558966  -0.003
N  N119  1  0.89626061  0.29627136  0.44656439  1  -0.399024  -0.025125  3.257107  -0.003  -0.328212  -0.029074  3.567184  0.0  -0.351713  -0.024326  3.578899  0.003  -0.358401  -0.311067  -0.033567  3.558483  -0.003
O  O120  1  0.64238004  0.46101931  0.70857696  1  -0.573505  4.9e-05  1.961219  0.0  -0.523548  -7.5e-05  2.197885  0.0  -0.542866  -7e-06  2.187397  0.0  -0.304101  -0.50986  -0.000172  2.204596  0.0
O  O121  1  0.18816951  0.96115894  0.20845941  1  -0.573632  3.3e-05  1.962019  0.0  -0.524093  -6.8e-05  2.199087  0.0  -0.543381  -1.8e-05  2.188616  0.0  -0.304126  -0.510382  -0.000118  2.205711  0.0
O  O122  1  0.75182903  0.23615836  0.75883010  1  -0.582573  2e-05  1.944758  0.0  -0.539702  -7.8e-05  2.189589  0.0  -0.559114  -2e-05  2.178082  0.0  -0.310271  -0.52579  -0.000132  2.196854  0.0
O  O123  1  0.25313150  0.73631351  0.25868543  1  -0.583851  -3e-06  1.945376  0.0  -0.541075  -7.2e-05  2.190404  0.0  -0.56048  -3.3e-05  2.178886  0.0  -0.310807  -0.527122  -0.000184  2.197603  0.0
O  O124  1  0.10084849  0.46098282  0.21936447  1  -0.627634  -0.034927  1.961198  -0.028  -0.565054  -0.039073  2.208665  -0.029  -0.597643  -0.033482  2.197819  -0.024  -0.319068  -0.540252  -0.044559  2.214686  -0.034
O  O125  1  0.21832803  0.96090284  0.71932574  1  -0.626085  -0.034926  1.960792  -0.028  -0.563704  -0.039063  2.208532  -0.029  -0.596314  -0.033479  2.197725  -0.024  -0.318812  -0.539024  -0.044566  2.214703  -0.034
O  O126  1  0.22595063  0.26605390  0.26609687  1  -0.624666  -0.0221  1.917775  -0.017  -0.569376  -0.030359  2.15118  -0.024  -0.598188  -0.025812  2.141368  -0.02  -0.311637  -0.547909  -0.035386  2.156926  -0.029
O  O127  1  0.24228752  0.76577022  0.76600223  1  -0.624393  -0.022051  1.91899  -0.017  -0.568935  -0.030319  2.152211  -0.024  -0.597777  -0.025775  2.14248  -0.02  -0.311361  -0.547183  -0.035206  2.157833  -0.029
O  O128  1  0.15933686  0.23796382  0.56589990  1  -0.610854  -0.006629  1.929948  -0.004  -0.564523  -0.014208  2.159338  -0.01  -0.5886  -0.011578  2.149332  -0.008  -0.305988  -0.547202  -0.016898  2.165329  -0.013
O  O129  1  0.03679233  0.73771941  0.06588779  1  -0.610373  -0.006628  1.927901  -0.004  -0.563894  -0.014168  2.157425  -0.01  -0.588004  -0.011554  2.147516  -0.008  -0.305712  -0.546764  -0.016423  2.163482  -0.012
O  O130  1  0.20871082  0.39448003  0.44327915  1  -0.646654  -0.037079  2.019411  -0.024  -0.57814  -0.038717  2.286679  -0.02  -0.612121  -0.033364  2.272031  -0.015  -0.330833  -0.552051  -0.043978  2.295251  -0.024
O  O131  1  0.95376171  0.89408972  0.94307468  1  -0.647439  -0.037167  2.020506  -0.024  -0.578429  -0.038778  2.28774  -0.02  -0.612468  -0.03342  2.273124  -0.015  -0.331146  -0.552211  -0.04463  2.296465  -0.025
