# generated using pymatgen
data_H12RhC16(NO)4
_symmetry_space_group_name_H-M   'P 1'
_cell_length_a   9.51303667
_cell_length_b   10.24864411
_cell_length_c   10.46986739
_cell_angle_alpha   74.45930540
_cell_angle_beta   64.35793241
_cell_angle_gamma   64.09100917
_symmetry_Int_Tables_number   1
_chemical_formula_structural   H12RhC16(NO)4
_chemical_formula_sum   'H24 Rh2 C32 N8 O8'
_cell_volume   823.82220452
_cell_formula_units_Z   2
loop_
 _symmetry_equiv_pos_site_id
 _symmetry_equiv_pos_as_xyz
  1  'x, y, z'
loop_
 _atom_site_type_symbol
 _atom_site_label
 _atom_site_symmetry_multiplicity
 _atom_site_fract_x
 _atom_site_fract_y
 _atom_site_fract_z
 _atom_site_occupancy
 _atom_site_pbe_bader_spin_density
 _atom_site_pbe_cm5_charge
 _atom_site_pbe_ddec_charge
 _atom_site_pbe_ddec_spin_density
 _atom_site_pbe_ddec_sum_bond_order
 _atom_site_pbe_magmom
H  H0  1  0.74790479  0.78452909  0.09441092  1  0  0.099118  0.094557  0  1.04209  0
H  H1  1  0.25209001  0.21546736  0.90559647  1  0  0.09913  0.094567  0  1.042155  0
H  H2  1  0.77667556  0.92460301  0.85728679  1  0  0.09675  0.090888  0  1.043479  0
H  H3  1  0.22331874  0.07540005  0.14272379  1  0  0.096832  0.091057  0  1.043527  0
H  H4  1  0.61557431  0.92620850  0.72140048  1  0  0.100703  0.099033  0  0.996208  0
H  H5  1  0.38442331  0.07379778  0.27860507  1  0  0.100699  0.099018  0  0.996217  0
H  H6  1  0.42294860  0.78889607  0.82632640  1  0  0.096982  0.093323  0  1.04373  0
H  H7  1  0.57705070  0.21110906  0.17367499  1  0  0.097015  0.093339  0  1.043651  0
H  H8  1  0.39131498  0.65215775  0.06695997  1  0  0.101313  0.10276  0  1.017582  0
H  H9  1  0.60868365  0.34784079  0.93303869  1  0  0.101328  0.102811  0  1.017625  0
H  H10  1  0.00677527  0.09060826  0.36916313  1  0  0.101784  0.104316  0  1.020284  0
H  H11  1  0.99322442  0.90939889  0.63082609  1  0  0.101815  0.104315  0  1.020258  0
H  H12  1  0.18017887  0.83378609  0.30368056  1  0  0.100104  0.108293  0  1.011168  0
H  H13  1  0.81982652  0.16621573  0.69631649  1  0  0.100113  0.108295  0  1.01126  0
H  H14  1  0.04793546  0.68839464  0.27488601  1  0  0.094867  0.084207  0  1.048643  0
H  H15  1  0.95207011  0.31160395  0.72511471  1  0  0.094858  0.084197  0  1.048624  0
H  H16  1  0.74153287  0.79032809  0.32172803  1  0  0.101296  0.111176  0  1.024023  0
H  H17  1  0.25847300  0.20966715  0.67826776  1  0  0.101283  0.111139  0  1.024016  0
H  H18  1  0.57033667  0.04553169  0.38751737  1  0  0.10239  0.101954  0  1.032043  0
H  H19  1  0.42966393  0.95446783  0.61247357  1  0  0.102379  0.101961  0  1.032084  0
H  H20  1  0.00571163  0.38640278  0.32039905  1  0  0.125598  0.106888  0  0.99388  0
H  H21  1  0.99429741  0.61359583  0.67960224  1  0  0.125583  0.106847  0  0.993846  0
H  H22  1  0.27291123  0.36514528  0.33438986  1  0  0.119651  0.098366  0  1.023777  0
H  H23  1  0.72709901  0.63485878  0.66560949  1  0  0.11965  0.098374  0  1.023849  0
Rh  Rh24  1  0.62434315  0.50961415  0.49556045  1  0  0.64891  0.546913  0  3.770272  0
Rh  Rh25  1  0.37566357  0.49038445  0.50444077  1  0  0.648819  0.546761  0  3.770322  0
C  C26  1  0.54857405  0.62801330  0.23866478  1  0  0.210097  0.527857  0  4.140928  0
C  C27  1  0.45143015  0.37198307  0.76133422  1  0  0.210095  0.527835  0  4.141047  0
C  C28  1  0.56803006  0.70961692  0.09507630  1  0  -0.024183  -0.04755  0  4.006773  0
C  C29  1  0.43196784  0.29038057  0.90492580  1  0  -0.024196  -0.047578  0  4.006725  0
C  C30  1  0.67757090  0.78561450  0.03501052  1  0  -0.086342  -0.096674  0  3.974363  0
C  C31  1  0.32242740  0.21438195  0.96499552  1  0  -0.086312  -0.096625  0  3.974425  0
C  C32  1  0.69371412  0.86371294  0.90145372  1  0  -0.090529  -0.080079  0  3.997603  0
C  C33  1  0.30628045  0.13628679  0.09855384  1  0  -0.090632  -0.080229  0  3.997708  0
C  C34  1  0.60221855  0.86522439  0.82623217  1  0  -0.084599  -0.065547  0  3.973914  0
C  C35  1  0.39778070  0.13477532  0.17377261  1  0  -0.084589  -0.065585  0  3.974035  0
C  C36  1  0.49358340  0.78874261  0.88519209  1  0  -0.094998  -0.093806  0  4.013022  0
C  C37  1  0.50641169  0.21126144  0.11481122  1  0  -0.095051  -0.093799  0  4.013095  0
C  C38  1  0.47574997  0.71185174  0.01944456  1  0  -0.088131  -0.09681  0  3.970896  0
C  C39  1  0.52424999  0.28814905  0.98055870  1  0  -0.088155  -0.096904  0  3.970936  0
C  C40  1  0.67816398  0.23634322  0.41679149  1  0  0.20887  0.526489  0  4.147106  0
C  C41  1  0.32184049  0.76365531  0.58320491  1  0  0.208889  0.526566  0  4.147051  0
C  C42  1  0.77934600  0.08387209  0.37928491  1  0  -0.026811  -0.053403  0  4.012043  0
C  C43  1  0.22064832  0.91612851  0.62070722  1  0  -0.026849  -0.053564  0  4.012365  0
C  C44  1  0.95116968  0.02408749  0.35658039  1  0  -0.084707  -0.096577  0  3.975356  0
C  C45  1  0.04883156  0.97591319  0.64341476  1  0  -0.084678  -0.09642  0  3.975493  0
C  C46  1  0.04700689  0.88163716  0.32024683  1  0  -0.091782  -0.081214  0  3.991081  0
C  C47  1  0.95299130  0.11836791  0.67975022  1  0  -0.091778  -0.081242  0  3.991095  0
C  C48  1  0.97187342  0.79879844  0.30568657  1  0  -0.096324  -0.085634  0  4.015455  0
C  C49  1  0.02813033  0.20119901  0.69431135  1  0  -0.096339  -0.085624  0  4.015598  0
C  C50  1  0.80040449  0.85651895  0.33015591  1  0  -0.095387  -0.090817  0  3.994681  0
C  C51  1  0.19959068  0.14348502  0.66984166  1  0  -0.095327  -0.090766  0  3.994686  0
C  C52  1  0.70429108  0.99879441  0.36712883  1  0  -0.085677  -0.097521  0  3.969075  0
C  C53  1  0.29571392  0.00120296  0.63286290  1  0  -0.08572  -0.097521  0  3.968751  0
C  C54  1  0.00349257  0.43760764  0.40035485  1  0  0.04743  0.027671  0  3.920615  0
C  C55  1  0.99650904  0.56239204  0.59964712  1  0  0.047516  0.027829  0  3.920433  0
C  C56  1  0.15047930  0.42547680  0.40843230  1  0  0.051609  0.032293  0  3.926424  0
C  C57  1  0.84952350  0.57452286  0.59156730  1  0  0.05153  0.032136  0  3.926562  0
N  N58  1  0.85185946  0.51224639  0.49205777  1  0  -0.328365  -0.145528  0  3.567663  0
N  N59  1  0.14813450  0.48775216  0.50794366  1  0  -0.328487  -0.145641  0  3.567694  0
N  N60  1  0.89989249  0.40562120  0.97747473  1  0  0.018236  0.01429  0  2.831717  0
N  N61  1  0.10010401  0.59437956  0.02252701  1  0  0.018174  0.014217  0  2.831756  0
N  N62  1  0.83950733  0.34488984  0.07618073  1  0  0.025163  0.03365  0  2.844753  0
N  N63  1  0.16048586  0.65510769  0.92382605  1  0  0.025218  0.033718  0  2.84478  0
N  N64  1  0.04717541  0.01800956  0.00043567  1  0  0.011795  0.009662  0  2.888806  0
N  N65  1  0.95282345  0.98199117  0.99956326  1  0  0.012006  0.009878  0  2.888798  0
O  O66  1  0.65679783  0.60632972  0.29173832  1  0  -0.29857  -0.450223  0  2.450388  0
O  O67  1  0.34319797  0.39366447  0.70826357  1  0  -0.298536  -0.450189  0  2.450322  0
O  O68  1  0.42391167  0.58564522  0.29948362  1  0  -0.295075  -0.440232  0  2.442257  0
O  O69  1  0.57608786  0.41435116  0.70051718  1  0  -0.295091  -0.440235  0  2.442334  0
O  O70  1  0.75533893  0.30620869  0.42811747  1  0  -0.294874  -0.448096  0  2.483737  0
O  O71  1  0.24465923  0.69379095  0.57188203  1  0  -0.294863  -0.448096  0  2.483689  0
O  O72  1  0.52167126  0.28697863  0.43564678  1  0  -0.296302  -0.444826  0  2.438943  0
O  O73  1  0.47833182  0.71301769  0.56434884  1  0  -0.296341  -0.44489  0  2.438934  0
