# generated using pymatgen
data_CuH22C24N6Cl2O
_symmetry_space_group_name_H-M   'P 1'
_cell_length_a   6.74686827
_cell_length_b   12.45574623
_cell_length_c   14.84842717
_cell_angle_alpha   114.76896970
_cell_angle_beta   93.71313595
_cell_angle_gamma   90.05305264
_symmetry_Int_Tables_number   1
_chemical_formula_structural   CuH22C24N6Cl2O
_chemical_formula_sum   'Cu2 H44 C48 N12 Cl4 O2'
_cell_volume   1130.10680606
_cell_formula_units_Z   2
loop_
 _symmetry_equiv_pos_site_id
 _symmetry_equiv_pos_as_xyz
  1  'x, y, z'
loop_
 _atom_site_type_symbol
 _atom_site_label
 _atom_site_symmetry_multiplicity
 _atom_site_fract_x
 _atom_site_fract_y
 _atom_site_fract_z
 _atom_site_occupancy
 _atom_site_pbe_cm5_charge
 _atom_site_pbe_ddec_charge
 _atom_site_pbe_ddec_spin_density
 _atom_site_pbe_ddec_sum_bond_order
 _atom_site_pbe_magmom
Cu  Cu0  1  0.00000741  0.99999735  0.49999997  1  0.680428  0.634214  0.672607  2.16426  0.494
Cu  Cu1  1  0.50000548  0.50000170  0.49999964  1  0.680033  0.633693  0.672641  2.164142  0.494
H  H2  1  0.16721489  0.16263905  0.45600397  1  0.270057  0.284239  8.3e-05  0.988086  0.0
H  H3  1  0.33264013  0.70657457  0.54400715  1  0.269763  0.283274  8.8e-05  0.989051  0.0
H  H4  1  0.83278527  0.83735816  0.54399613  1  0.270064  0.284165  8.3e-05  0.988213  0.0
H  H5  1  0.66736477  0.29342707  0.45599265  1  0.269732  0.283276  8.8e-05  0.989041  0.0
H  H6  1  0.32552130  0.05823191  0.45357426  1  0.270694  0.288149  -0.000657  0.98233  -0.001
H  H7  1  0.17423056  0.60441783  0.54626373  1  0.271022  0.288314  -0.000659  0.982201  -0.001
H  H8  1  0.67448501  0.94176797  0.54642362  1  0.270688  0.288165  -0.000657  0.982332  -0.001
H  H9  1  0.82577586  0.39558382  0.45373410  1  0.270986  0.288344  -0.000659  0.982145  -0.001
H  H10  1  0.26462726  0.01367689  0.67180873  1  0.107188  0.090568  0.001359  1.045254  0.002
H  H11  1  0.23595689  0.34142725  0.32823900  1  0.107397  0.090965  0.001357  1.045555  0.002
H  H12  1  0.73538478  0.98632117  0.32819542  1  0.107205  0.090594  0.001359  1.045208  0.002
H  H13  1  0.76404807  0.65857615  0.67176411  1  0.107389  0.090946  0.001357  1.045543  0.002
H  H14  1  0.34383138  0.87205211  0.30421516  1  0.095693  0.110064  -0.000103  1.024292  0.0
H  H15  1  0.15574739  0.56721777  0.69565890  1  0.095344  0.109587  -0.000103  1.024457  0.0
H  H16  1  0.65617191  0.12794689  0.69578163  1  0.095713  0.110094  -0.000103  1.02423  0.0
H  H17  1  0.84424580  0.43278655  0.30434012  1  0.095335  0.109542  -0.000103  1.024502  0.0
H  H18  1  0.04385930  0.41972886  0.76354224  1  0.11053  0.119916  0.000461  1.014508  0.0
H  H19  1  0.45539588  0.65639539  0.23650907  1  0.110696  0.119958  0.000461  1.01477  0.0
H  H20  1  0.95613788  0.58026748  0.23645543  1  0.110553  0.11994  0.000461  1.014542  0.0
H  H21  1  0.54459260  0.34360452  0.76348823  1  0.110672  0.119912  0.000461  1.014739  0.0
H  H22  1  0.99105577  0.16446498  0.31680664  1  0.096279  0.111458  -8.8e-05  1.03751  0.0
H  H23  1  0.50820831  0.84759796  0.68319907  1  0.09645  0.111641  -9e-05  1.036848  0.0
H  H24  1  0.00894606  0.83553577  0.68319544  1  0.096259  0.111424  -8.8e-05  1.037549  0.0
H  H25  1  0.49179513  0.15240456  0.31680301  1  0.096432  0.111605  -9e-05  1.036851  0.0
H  H26  1  0.93894674  0.07414779  0.13254246  1  0.092668  0.08952  -4e-05  1.039192  0.0
H  H27  1  0.56055639  0.94117198  0.86744414  1  0.092762  0.090072  -4e-05  1.039447  0.0
H  H28  1  0.06104599  0.92584943  0.86745807  1  0.092655  0.089455  -4e-05  1.039207  0.0
H  H29  1  0.43944686  0.05882701  0.13255601  1  0.092747  0.090046  -4e-05  1.039436  0.0
H  H30  1  0.96984338  0.25745395  0.59420795  1  0.101275  0.090216  0.000931  1.054335  0.001
H  H31  1  0.52979854  0.66327576  0.40580281  1  0.1014  0.089722  0.000935  1.054818  0.001
H  H32  1  0.03015505  0.74253971  0.40579352  1  0.101285  0.090272  0.000931  1.054236  0.001
H  H33  1  0.47020051  0.33672680  0.59419443  1  0.101427  0.089737  0.000935  1.0548  0.001
H  H34  1  0.32763366  0.16184050  0.84941812  1  0.11471  0.125113  0.000477  0.993609  0.0
H  H35  1  0.17236354  0.31220783  0.15066229  1  0.11467  0.125024  0.000478  0.993186  0.0
H  H36  1  0.67236974  0.83816200  0.15058597  1  0.114746  0.125153  0.000477  0.993553  0.0
H  H37  1  0.82762202  0.68779470  0.84934258  1  0.11468  0.124989  0.000478  0.993322  0.0
H  H38  1  0.08665692  0.87966549  0.03253686  1  0.093345  0.091301  0.000161  1.026646  0.0
H  H39  1  0.41320015  0.84622564  0.96737850  1  0.093124  0.091036  0.000157  1.026733  0.0
H  H40  1  0.91333299  0.12033440  0.96746452  1  0.093373  0.091361  0.00016  1.02656  0.0
H  H41  1  0.58680145  0.15377069  0.03262133  1  0.093119  0.091012  0.000157  1.026768  0.0
H  H42  1  0.28979482  0.77882668  0.11888238  1  0.090294  0.085237  -0.000159  1.058925  0.0
H  H43  1  0.20993929  0.65900408  0.88099886  1  0.090396  0.085413  -0.000158  1.059238  0.0
H  H44  1  0.71020403  0.22117233  0.88111360  1  0.090328  0.085275  -0.000159  1.058916  0.0
H  H45  1  0.79005370  0.34099671  0.11899890  1  0.09035  0.085403  -0.000158  1.059278  0.0
C  C46  1  0.17063807  0.02365269  0.32122301  1  0.085042  0.274854  -0.005823  4.008556  -0.006
C  C47  1  0.32884559  0.70206523  0.67871884  1  0.084944  0.273814  -0.005836  4.009036  -0.006
C  C48  1  0.82936372  0.97634630  0.67877508  1  0.085012  0.274703  -0.005823  4.008612  -0.006
C  C49  1  0.67115491  0.29793730  0.32128046  1  0.084898  0.273741  -0.005836  4.0091  -0.006
C  C50  1  0.21215517  0.10377823  0.69768241  1  0.051238  0.099267  -0.000112  3.916513  0.0
C  C51  1  0.28785645  0.40586327  0.30239014  1  0.050893  0.097842  -0.000128  3.917282  0.0
C  C52  1  0.78785839  0.89621984  0.30231977  1  0.051215  0.099283  -0.000112  3.916665  0.0
C  C53  1  0.71214400  0.59413925  0.69761252  1  0.050873  0.097841  -0.000128  3.917347  0.0
C  C54  1  0.25795832  0.91582415  0.26515478  1  -0.101092  -0.181622  0.015577  3.936231  0.014
C  C55  1  0.24160659  0.65007270  0.73472603  1  -0.100409  -0.180273  0.015578  3.936546  0.014
C  C56  1  0.74204799  0.08417573  0.73484309  1  -0.101059  -0.181558  0.015576  3.936315  0.014
C  C57  1  0.75839239  0.34992896  0.26527223  1  -0.100329  -0.180127  0.015579  3.936659  0.014
C  C58  1  0.09048222  0.33034467  0.74710150  1  -0.07432  -0.13855  0.00391  3.911331  0.004
C  C59  1  0.40887164  0.58339336  0.25297539  1  -0.073484  -0.137471  0.003906  3.91088  0.004
C  C60  1  0.90951505  0.66965344  0.25289680  1  -0.074392  -0.138638  0.00391  3.911507  0.004
C  C61  1  0.59112141  0.41660831  0.74702201  1  -0.073446  -0.137374  0.003906  3.910839  0.004
C  C62  1  0.18517266  0.30244129  0.82095777  1  0.010277  0.034999  -0.003178  4.048495  -0.002
C  C63  1  0.31424436  0.48156566  0.17916741  1  0.009124  0.033809  -0.003205  4.047231  -0.002
C  C64  1  0.81482755  0.69755681  0.17904264  1  0.010256  0.035025  -0.003177  4.048527  -0.002
C  C65  1  0.68575001  0.51843422  0.82083344  1  0.009071  0.033675  -0.003205  4.047213  -0.002
C  C66  1  0.05726244  0.08057613  0.27254070  1  -0.096188  -0.176721  0.015895  3.934901  0.014
C  C67  1  0.44209010  0.80778827  0.72744930  1  -0.096414  -0.17592  0.015919  3.933474  0.014
C  C68  1  0.94273635  0.91942286  0.72745931  1  -0.096177  -0.176667  0.015896  3.934881  0.014
C  C69  1  0.55791618  0.19221160  0.27254991  1  -0.096442  -0.175867  0.015919  3.93352  0.014
C  C70  1  0.21888124  0.39424150  0.92096958  1  0.226043  0.302178  -2e-05  3.989645  0.0
C  C71  1  0.28057438  0.47335260  0.07912158  1  0.226243  0.303758  -1.4e-05  3.989559  0.0
C  C72  1  0.78111164  0.60575838  0.07903123  1  0.226102  0.302246  -2e-05  3.98981  0.0
C  C73  1  0.71941697  0.52664640  0.92087886  1  0.226237  0.303825  -1.4e-05  3.989578  0.0
C  C74  1  0.02906855  0.02933792  0.16910201  1  -0.097  -0.07174  -0.006825  4.031211  -0.005
C  C75  1  0.47044368  0.85977276  0.83087366  1  -0.097556  -0.073826  -0.006835  4.033009  -0.005
C  C76  1  0.97092892  0.97066374  0.83089756  1  -0.096975  -0.071621  -0.006825  4.031192  -0.005
C  C77  1  0.52956247  0.14022532  0.16912694  1  -0.097494  -0.073801  -0.006835  4.033048  -0.005
C  C78  1  0.05154561  0.24107926  0.65253367  1  0.046987  0.100802  -0.001367  3.910679  -0.001
C  C79  1  0.44802386  0.58855481  0.34750257  1  0.046895  0.100537  -0.00138  3.911413  -0.001
C  C80  1  0.94845883  0.75891441  0.34746396  1  0.046978  0.100763  -0.001367  3.910638  -0.001
C  C81  1  0.55197512  0.41144685  0.65249569  1  0.046888  0.100559  -0.00138  3.911631  -0.001
C  C82  1  0.24907264  0.18695927  0.79523338  1  -0.073817  -0.146039  0.003804  3.925809  0.004
C  C83  1  0.25059743  0.39163914  0.20489152  1  -0.073344  -0.14526  0.003806  3.924372  0.004
C  C84  1  0.75093812  0.81304147  0.20476831  1  -0.07383  -0.146052  0.003804  3.925834  0.004
C  C85  1  0.74939702  0.60836250  0.79511131  1  -0.073291  -0.145105  0.003806  3.924432  0.004
C  C86  1  0.11197758  0.92075147  0.11330162  1  -0.107753  -0.118496  0.018914  4.043076  0.016
C  C87  1  0.38767730  0.80671436  0.88662754  1  -0.107563  -0.117588  0.018937  4.043335  0.016
C  C88  1  0.88802133  0.07924930  0.88669767  1  -0.107766  -0.118574  0.018914  4.043035  0.016
C  C89  1  0.61232594  0.19328462  0.11337261  1  -0.107563  -0.117577  0.018938  4.043345  0.016
C  C90  1  0.22757453  0.86471694  0.16173505  1  -0.10186  -0.082438  -0.00652  4.042576  -0.005
C  C91  1  0.27202486  0.70221171  0.83815454  1  -0.102062  -0.083312  -0.006522  4.043471  -0.005
C  C92  1  0.77242578  0.13528206  0.83826232  1  -0.101941  -0.082543  -0.00652  4.042668  -0.005
C  C93  1  0.72797548  0.29778817  0.16184448  1  -0.10205  -0.083307  -0.006521  4.043538  -0.005
N  N94  1  0.18762231  0.07213502  0.42641479  1  -0.60097  -0.577724  0.072253  3.433561  0.087
N  N95  1  0.31208335  0.64556127  0.57352604  1  -0.601082  -0.576758  0.072363  3.43263  0.087
N  N96  1  0.81238080  0.92786132  0.57358307  1  -0.600967  -0.577561  0.072255  3.433482  0.087
N  N97  1  0.68792013  0.35444126  0.42647336  1  -0.601  -0.576845  0.072364  3.432475  0.087
N  N98  1  0.22889743  0.50911884  0.94901008  1  -0.213581  -0.236694  -0.000792  3.186389  -0.001
N  N99  1  0.27041288  0.56016498  0.05102604  1  -0.214174  -0.2391  -0.000804  3.186281  -0.001
N  N100  1  0.77109402  0.49088193  0.05099099  1  -0.213612  -0.236766  -0.000792  3.186551  -0.001
N  N101  1  0.72957999  0.43983490  0.94897544  1  -0.214188  -0.239111  -0.000804  3.186427  -0.001
N  N102  1  0.10944688  0.12951555  0.62859841  1  -0.346108  -0.205143  0.054343  3.581647  0.066
N  N103  1  0.39049396  0.50077200  0.37141466  1  -0.345974  -0.20348  0.054251  3.582099  0.066
N  N104  1  0.89056207  0.87047987  0.37140268  1  -0.346069  -0.205178  0.054344  3.58171  0.066
N  N105  1  0.60951094  0.49922964  0.62858514  1  -0.345982  -0.203547  0.054252  3.582254  0.066
Cl  Cl106  1  0.34064765  0.86579150  0.50450118  1  -0.345333  -0.599204  0.0012  0.959761  0.003
Cl  Cl107  1  0.15942492  0.36123747  0.49559529  1  -0.344984  -0.599293  0.001213  0.960961  0.003
Cl  Cl108  1  0.65934824  0.13420839  0.49549771  1  -0.345334  -0.599204  0.001201  0.959718  0.003
Cl  Cl109  1  0.84057243  0.63876241  0.50440498  1  -0.344966  -0.59926  0.001213  0.961012  0.003
O  O110  1  0.24983311  0.36515677  0.00008332  1  -0.088614  -0.159967  9e-06  2.485827  0.0
O  O111  1  0.75016127  0.63484310  0.99991754  1  -0.088614  -0.160025  9e-06  2.485911  0.0
