# generated using pymatgen
data_LiH9C5BrNO2
_symmetry_space_group_name_H-M   'P 1'
_cell_length_a   5.01553035
_cell_length_b   9.63696450
_cell_length_c   15.43773887
_cell_angle_alpha   89.99998880
_cell_angle_beta   90.00081118
_cell_angle_gamma   89.99967840
_symmetry_Int_Tables_number   1
_chemical_formula_structural   LiH9C5BrNO2
_chemical_formula_sum   'Li4 H36 C20 Br4 N4 O8'
_cell_volume   746.17520248
_cell_formula_units_Z   4
loop_
 _symmetry_equiv_pos_site_id
 _symmetry_equiv_pos_as_xyz
  1  'x, y, z'
loop_
 _atom_site_type_symbol
 _atom_site_label
 _atom_site_symmetry_multiplicity
 _atom_site_fract_x
 _atom_site_fract_y
 _atom_site_fract_z
 _atom_site_occupancy
 _atom_site_hle17_bader_spin_density
 _atom_site_hle17_ddec_charge
 _atom_site_hle17_ddec_spin_density
 _atom_site_hle17_ddec_sum_bond_order
 _atom_site_hle17_magmom
 _atom_site_hse06_10hf_bader_spin_density
 _atom_site_hse06_10hf_ddec_charge
 _atom_site_hse06_10hf_ddec_spin_density
 _atom_site_hse06_10hf_ddec_sum_bond_order
 _atom_site_hse06_10hf_magmom
 _atom_site_hse06_bader_spin_density
 _atom_site_hse06_ddec_charge
 _atom_site_hse06_ddec_spin_density
 _atom_site_hse06_ddec_sum_bond_order
 _atom_site_hse06_magmom
 _atom_site_pbe_bader_spin_density
 _atom_site_pbe_cm5_charge
 _atom_site_pbe_ddec_charge
 _atom_site_pbe_ddec_spin_density
 _atom_site_pbe_ddec_sum_bond_order
 _atom_site_pbe_magmom
Li  Li0  1  0.97465004  0.49894186  0.93916441  1  0  0.848151  0  0.395338  0  0  0.798112  0  0.514836  0  0  0.809188  0  0.496284  0  0  0.430993  0.789961  0  0.528419  0
Li  Li1  1  0.47466701  0.00106597  0.43916323  1  0  0.848124  0  0.395421  0  0  0.798109  0  0.514869  0  0  0.809181  0  0.496323  0  0  0.431043  0.78996  0  0.528453  0
Li  Li2  1  0.47466429  0.50104399  0.06082022  1  0  0.848134  0  0.395473  0  0  0.798102  0  0.514928  0  0  0.809181  0  0.496371  0  0  0.431079  0.789947  0  0.528518  0
Li  Li3  1  0.97468720  0.99894478  0.56082593  1  0  0.84812  0  0.395444  0  0  0.798109  0  0.514874  0  0  0.809181  0  0.496327  0  0  0.431052  0.789959  0  0.528461  0
H  H4  1  0.29963761  0.76623659  0.76836835  1  0  0.288158  0  0.879072  0  0  0.269193  0  0.944166  0  0  0.277406  0  0.937854  0  0  0.296409  0.263355  0  0.948698  0
H  H5  1  0.79961018  0.73376614  0.26836691  1  0  0.288206  0  0.879026  0  0  0.269299  0  0.944091  0  0  0.277515  0  0.937774  0  0  0.296426  0.263463  0  0.948619  0
H  H6  1  0.79962002  0.23377675  0.23163359  1  0  0.288124  0  0.879015  0  0  0.269151  0  0.944094  0  0  0.277362  0  0.937782  0  0  0.296441  0.263321  0  0.948606  0
H  H7  1  0.29963350  0.26622541  0.73163179  1  0  0.288115  0  0.878992  0  0  0.269177  0  0.94413  0  0  0.277392  0  0.937815  0  0  0.296376  0.263337  0  0.948668  0
H  H8  1  0.81683876  0.70816255  0.82916022  1  0  0.082764  0  0.95927  0  0  0.084271  0  1.03388  0  0  0.087946  0  1.030449  0  0  0.115598  0.081373  0  1.036732  0
H  H9  1  0.31683868  0.79181106  0.32915057  1  0  0.082607  0  0.959377  0  0  0.084134  0  1.03391  0  0  0.087803  0  1.030489  0  0  0.115584  0.081235  0  1.03677  0
H  H10  1  0.31683598  0.29182999  0.17084699  1  0  0.082707  0  0.959361  0  0  0.08421  0  1.033896  0  0  0.087881  0  1.03047  0  0  0.115581  0.081311  0  1.036754  0
H  H11  1  0.81687194  0.20817629  0.67085339  1  0  0.082733  0  0.959183  0  0  0.0843  0  1.033799  0  0  0.087971  0  1.030381  0  0  0.11557  0.0814  0  1.036657  0
H  H12  1  0.59946915  0.80213853  0.72266029  1  0  0.276269  0  0.914966  0  0  0.25785  0  0.979856  0  0  0.266397  0  0.973878  0  0  0.273983  0.251822  0  0.984103  0
H  H13  1  0.09943219  0.69785650  0.22265390  1  0  0.276307  0  0.915023  0  0  0.257935  0  0.979906  0  0  0.266486  0  0.973921  0  0  0.273982  0.251907  0  0.984156  0
H  H14  1  0.09944598  0.19785465  0.27733941  1  0  0.276205  0  0.915102  0  0  0.257787  0  0.979947  0  0  0.26633  0  0.973976  0  0  0.273964  0.251762  0  0.984191  0
H  H15  1  0.59944904  0.30214084  0.77734450  1  0  0.276265  0  0.915006  0  0  0.257863  0  0.979935  0  0  0.266415  0  0.973946  0  0  0.273975  0.251837  0  0.984177  0
H  H16  1  0.25044120  0.99977908  0.76934051  1  0  0.07915  0  0.943888  0  0  0.086593  0  1.018092  0  0  0.088452  0  1.016926  0  0  0.105392  0.085035  0  1.019246  0
H  H17  1  0.75037836  0.50023106  0.26933910  1  0  0.079386  0  0.943781  0  0  0.086707  0  1.017994  0  0  0.088565  0  1.016821  0  0  0.105474  0.08514  0  1.019157  0
H  H18  1  0.75036623  0.00024064  0.23064694  1  0  0.079412  0  0.943773  0  0  0.086664  0  1.018058  0  0  0.088517  0  1.016887  0  0  0.105464  0.085104  0  1.019225  0
H  H19  1  0.25038919  0.49976479  0.73065613  1  0  0.079388  0  0.943867  0  0  0.086708  0  1.018033  0  0  0.088563  0  1.016859  0  0  0.105437  0.085142  0  1.01919  0
H  H20  1  0.60574277  0.02264203  0.76793578  1  0  0.071535  0  0.926034  0  0  0.086038  0  0.99022  0  0  0.086772  0  0.990258  0  0  0.107369  0.085341  0  0.990507  0
H  H21  1  0.10566896  0.47734099  0.26792870  1  0  0.071638  0  0.926019  0  0  0.085996  0  0.990251  0  0  0.086724  0  0.990289  0  0  0.107347  0.085297  0  0.990535  0
H  H22  1  0.10566355  0.97735218  0.23206071  1  0  0.071678  0  0.926148  0  0  0.08605  0  0.990333  0  0  0.086787  0  0.990358  0  0  0.107364  0.085356  0  0.990618  0
H  H23  1  0.60568553  0.52265322  0.73207427  1  0  0.071665  0  0.926057  0  0  0.085985  0  0.99029  0  0  0.086708  0  0.990334  0  0  0.107345  0.085285  0  0.990572  0
H  H24  1  0.26943783  0.94502009  0.92633376  1  0  0.077584  0  0.948021  0  0  0.097674  0  1.004042  0  0  0.098441  0  1.004846  0  0  0.094611  0.097164  0  1.003381  0
H  H25  1  0.76939833  0.55497024  0.42632716  1  0  0.07763  0  0.947945  0  0  0.097619  0  1.004057  0  0  0.098394  0  1.004866  0  0  0.09457  0.097106  0  1.003395  0
H  H26  1  0.76939947  0.05499853  0.07366156  1  0  0.077679  0  0.947922  0  0  0.09773  0  1.003946  0  0  0.098501  0  1.004757  0  0  0.094606  0.097219  0  1.003286  0
H  H27  1  0.26943498  0.44503386  0.57366751  1  0  0.077669  0  0.947911  0  0  0.097666  0  1.004039  0  0  0.09844  0  1.004846  0  0  0.094577  0.097154  0  1.003376  0
H  H28  1  0.50744894  0.08153934  0.91659138  1  0  0.090697  0  0.949477  0  0  0.103861  0  1.015724  0  0  0.105359  0  1.015577  0  0  0.094137  0.102653  0  1.015952  0
H  H29  1  0.00738970  0.41844913  0.41658884  1  0  0.090679  0  0.949451  0  0  0.103782  0  1.015721  0  0  0.105319  0  1.015543  0  0  0.094096  0.102554  0  1.015965  0
H  H30  1  0.00738396  0.91846243  0.08339817  1  0  0.090752  0  0.949375  0  0  0.103895  0  1.015614  0  0  0.105406  0  1.015469  0  0  0.0941  0.102677  0  1.015853  0
H  H31  1  0.50742724  0.58154537  0.58341107  1  0  0.090653  0  0.949619  0  0  0.103786  0  1.015857  0  0  0.105298  0  1.015703  0  0  0.094145  0.102556  0  1.016106  0
H  H32  1  0.67355245  0.83523699  0.98468977  1  0  0.095815  0  0.95766  0  0  0.10888  0  1.02225  0  0  0.110677  0  1.022017  0  0  0.098871  0.107507  0  1.022551  0
H  H33  1  0.17353977  0.66473701  0.48468079  1  0  0.095869  0  0.957557  0  0  0.108901  0  1.022237  0  0  0.110698  0  1.021981  0  0  0.098855  0.107524  0  1.02253  0
H  H34  1  0.17356634  0.16474975  0.01531805  1  0  0.095867  0  0.957553  0  0  0.10894  0  1.022152  0  0  0.110736  0  1.021918  0  0  0.098895  0.10757  0  1.022466  0
H  H35  1  0.67357703  0.33525181  0.51532573  1  0  0.095964  0  0.957466  0  0  0.108911  0  1.022215  0  0  0.110707  0  1.021963  0  0  0.098825  0.10753  0  1.022522  0
H  H36  1  0.87448619  0.91774297  0.90466556  1  0  0.08054  0  0.946235  0  0  0.09741  0  1.005691  0  0  0.098692  0  1.005977  0  0  0.09341  0.096352  0  1.005835  0
H  H37  1  0.37445445  0.58222526  0.40465531  1  0  0.080586  0  0.946056  0  0  0.097531  0  1.005476  0  0  0.098774  0  1.00581  0  0  0.093441  0.0965  0  1.005581  0
H  H38  1  0.37446448  0.08223487  0.09534709  1  0  0.080549  0  0.946104  0  0  0.097476  0  1.005546  0  0  0.098721  0  1.005878  0  0  0.093436  0.09646  0  1.005643  0
H  H39  1  0.87449623  0.41777333  0.59535670  1  0  0.080434  0  0.945961  0  0  0.097352  0  1.005443  0  0  0.098597  0  1.005769  0  0  0.093342  0.096323  0  1.005552  0
C  C40  1  0.46683771  0.63548873  0.89686361  1  0  0.694927  0  3.886207  0  0  0.647351  0  4.190551  0  0  0.679502  0  4.18193  0  0  0.231292  0.625473  0  4.195768  0
C  C41  1  0.96685275  0.86449791  0.39687510  1  0  0.694729  0  3.88625  0  0  0.647389  0  4.190184  0  0  0.679539  0  4.18156  0  0  0.231388  0.62551  0  4.195412  0
C  C42  1  0.96684717  0.36450752  0.10312487  1  0  0.694984  0  3.886233  0  0  0.647599  0  4.190201  0  0  0.679753  0  4.181574  0  0  0.231408  0.625722  0  4.195426  0
C  C43  1  0.46690191  0.13552427  0.60312374  1  0  0.694805  0  3.884973  0  0  0.647258  0  4.18942  0  0  0.679414  0  4.180798  0  0  0.231235  0.625377  0  4.194642  0
C  C44  1  0.62875326  0.75064923  0.85379809  1  0  -0.002997  0  3.495065  0  0  -0.023249  0  3.735109  0  0  -0.024201  0  3.744975  0  0  0.008911  -0.022595  0  3.728502  0
C  C45  1  0.12875165  0.74934257  0.35380141  1  0  -0.002757  0  3.495297  0  0  -0.022887  0  3.735181  0  0  -0.023828  0  3.745027  0  0  0.008832  -0.022247  0  3.728593  0
C  C46  1  0.12875387  0.24935217  0.14619916  1  0  -0.002971  0  3.495247  0  0  -0.023124  0  3.734948  0  0  -0.02407  0  3.744795  0  0  0.008904  -0.022475  0  3.72836  0
C  C47  1  0.62877543  0.25065157  0.64620555  1  0  -0.002816  0  3.495245  0  0  -0.023297  0  3.735779  0  0  -0.024255  0  3.745635  0  0  0.009058  -0.022642  0  3.729178  0
C  C48  1  0.43939708  0.96634711  0.79805307  1  0  0.040457  0  3.512164  0  0  -0.01727  0  3.769541  0  0  -0.013138  0  3.779081  0  0  -0.062949  -0.01985  0  3.763014  0
C  C49  1  0.93933787  0.53365209  0.29805230  1  0  0.039776  0  3.512798  0  0  -0.017497  0  3.769794  0  0  -0.013345  0  3.779344  0  0  -0.063133  -0.020069  0  3.763252  0
C  C50  1  0.93933050  0.03366063  0.20194500  1  0  0.039904  0  3.512987  0  0  -0.01743  0  3.769935  0  0  -0.01327  0  3.77946  0  0  -0.063022  -0.020024  0  3.763433  0
C  C51  1  0.43934784  0.46635254  0.70194771  1  0  0.039823  0  3.51296  0  0  -0.017344  0  3.769785  0  0  -0.013182  0  3.779324  0  0  -0.062971  -0.019912  0  3.763231  0
C  C52  1  0.45848184  0.97572658  0.89604933  1  0  -0.137715  0  3.674026  0  0  -0.181738  0  3.935783  0  0  -0.183568  0  3.948816  0  0  -0.166906  -0.180319  0  3.926612  0
C  C53  1  0.95844466  0.52426008  0.39604014  1  0  -0.137511  0  3.674099  0  0  -0.181415  0  3.935694  0  0  -0.183294  0  3.948719  0  0  -0.166815  -0.179985  0  3.926529  0
C  C54  1  0.95842715  0.02427280  0.10395530  1  0  -0.137776  0  3.673986  0  0  -0.181797  0  3.935614  0  0  -0.183657  0  3.948668  0  0  -0.166831  -0.180369  0  3.926471  0
C  C55  1  0.45846632  0.47574034  0.60395996  1  0  -0.137625  0  3.674405  0  0  -0.181599  0  3.935917  0  0  -0.183463  0  3.948955  0  0  -0.166895  -0.180167  0  3.926758  0
C  C56  1  0.67834594  0.87135832  0.91737746  1  0  -0.135342  0  3.608685  0  0  -0.176399  0  3.858316  0  0  -0.177809  0  3.870256  0  0  -0.153657  -0.175347  0  3.850263  0
C  C57  1  0.17832367  0.62862605  0.41736460  1  0  -0.13538  0  3.608448  0  0  -0.176565  0  3.858188  0  0  -0.17794  0  3.870143  0  0  -0.153598  -0.175508  0  3.850098  0
C  C58  1  0.17833316  0.12863463  0.08263168  1  0  -0.135295  0  3.608249  0  0  -0.176494  0  3.85792  0  0  -0.177877  0  3.869878  0  0  -0.153689  -0.175476  0  3.849868  0
C  C59  1  0.67836141  0.37137935  0.58264000  1  0  -0.135251  0  3.608068  0  0  -0.176225  0  3.857755  0  0  -0.177589  0  3.869699  0  0  -0.153459  -0.175185  0  3.849684  0
Br  Br60  1  0.96372936  0.26547210  0.85260250  1  0  -0.666956  0  0.674758  0  0  -0.615319  0  0.891366  0  0  -0.629424  0  0.872837  0  0  -0.277674  -0.604393  0  0.904423  0
Br  Br61  1  0.46367407  0.23455861  0.35262461  1  0  -0.66696  0  0.674718  0  0  -0.615275  0  0.891199  0  0  -0.629381  0  0.872681  0  0  -0.277701  -0.604351  0  0.904251  0
Br  Br62  1  0.46370095  0.73449199  0.14741835  1  0  -0.666884  0  0.674798  0  0  -0.615274  0  0.891413  0  0  -0.629391  0  0.872902  0  0  -0.277685  -0.604316  0  0.904417  0
Br  Br63  1  0.96379213  0.76546982  0.64741050  1  0  -0.666923  0  0.67475  0  0  -0.615301  0  0.89137  0  0  -0.629405  0  0.872844  0  0  -0.277665  -0.604359  0  0.904395  0
N  N64  1  0.48192339  0.81487612  0.77881850  1  0  -0.288807  0  3.300559  0  0  -0.224928  0  3.498655  0  0  -0.23916  0  3.506706  0  0  -0.475703  -0.215151  0  3.493226  0
N  N65  1  0.98190643  0.68512503  0.27881900  1  0  -0.288847  0  3.300758  0  0  -0.225316  0  3.499031  0  0  -0.239559  0  3.507082  0  0  -0.475683  -0.215542  0  3.493612  0
N  N66  1  0.98190387  0.18512942  0.22118106  1  0  -0.288639  0  3.300657  0  0  -0.224798  0  3.498589  0  0  -0.239016  0  3.506609  0  0  -0.475642  -0.215018  0  3.493165  0
N  N67  1  0.48192082  0.31487947  0.72118445  1  0  -0.288637  0  3.300542  0  0  -0.224975  0  3.498772  0  0  -0.239212  0  3.506826  0  0  -0.475682  -0.215202  0  3.493334  0
O  O68  1  0.21889957  0.62960654  0.88328915  1  0  -0.692451  0  1.932498  0  0  -0.64409  0  2.167879  0  0  -0.666281  0  2.156246  0  0  -0.371688  -0.628821  0  2.175707  0
O  O69  1  0.71890657  0.87039744  0.38330582  1  0  -0.69234  0  1.932273  0  0  -0.644073  0  2.167534  0  0  -0.666264  0  2.155903  0  0  -0.371678  -0.628806  0  2.175367  0
O  O70  1  0.71889159  0.37038214  0.11668002  1  0  -0.692521  0  1.93222  0  0  -0.644276  0  2.16756  0  0  -0.66647  0  2.155924  0  0  -0.371762  -0.629007  0  2.175392  0
O  O71  1  0.21892247  0.12961199  0.61668797  1  0  -0.692613  0  1.931556  0  0  -0.644209  0  2.16689  0  0  -0.6664  0  2.155259  0  0  -0.371807  -0.62894  0  2.174724  0
O  O72  1  0.60052595  0.55602055  0.94653766  1  0  -0.801843  0  1.99336  0  0  -0.754239  0  2.240022  0  0  -0.775253  0  2.224266  0  0  -0.442438  -0.739569  0  2.250813  0
O  O73  1  0.10055019  0.94397962  0.44654419  1  0  -0.801807  0  1.993188  0  0  -0.754408  0  2.23992  0  0  -0.775423  0  2.224165  0  0  -0.442547  -0.739736  0  2.250715  0
O  O74  1  0.10055046  0.44398405  0.05346205  1  0  -0.801828  0  1.993348  0  0  -0.754388  0  2.240047  0  0  -0.775402  0  2.224286  0  0  -0.442463  -0.739717  0  2.250842  0
O  O75  1  0.60058803  0.05603536  0.55343868  1  0  -0.801724  0  1.99235  0  0  -0.754153  0  2.23907  0  0  -0.775168  0  2.223322  0  0  -0.442449  -0.739479  0  2.249861  0
