# generated using pymatgen
data_Zn2H11C29(N2O)4
_symmetry_space_group_name_H-M   'P 1'
_cell_length_a   19.15563332
_cell_length_b   18.67758630
_cell_length_c   19.50553433
_cell_angle_alpha   103.02250269
_cell_angle_beta   111.19240149
_cell_angle_gamma   109.40483627
_symmetry_Int_Tables_number   1
_chemical_formula_structural   Zn2H11C29(N2O)4
_chemical_formula_sum   'Zn4 H22 C58 N16 O8'
_cell_volume   5643.83177016
_cell_formula_units_Z   2
loop_
 _symmetry_equiv_pos_site_id
 _symmetry_equiv_pos_as_xyz
  1  'x, y, z'
loop_
 _atom_site_type_symbol
 _atom_site_label
 _atom_site_symmetry_multiplicity
 _atom_site_fract_x
 _atom_site_fract_y
 _atom_site_fract_z
 _atom_site_occupancy
 _atom_site_pbe_bader_charge
 _atom_site_pbe_bader_spin_density
 _atom_site_pbe_cm5_charge
 _atom_site_pbe_ddec_charge
 _atom_site_pbe_ddec_spin_density
 _atom_site_pbe_ddec_sum_bond_order
 _atom_site_pbe_magmom
Zn  Zn0  1  0.87357489  0.99311587  0.36693034  1  1.24019  0  0.736579  0.686698  0  2.30043  0
Zn  Zn1  1  0.10115128  0.99597255  0.60570745  1  1.218759  0  0.744076  0.657895  0  2.355575  0
Zn  Zn2  1  0.10681027  0.10819584  0.48729749  1  1.241133  0  0.735864  0.683274  0  2.311781  0
Zn  Zn3  1  0.87755973  0.88211429  0.49718616  1  1.242459  0  0.744098  0.675345  0  2.389038  0
H  H4  1  0.60150915  0.33797489  0.97425107  1  0.05128  0  0.100654  0.088973  0  0.991702  0
H  H5  1  0.86816126  0.16681913  0.34811391  1  0.11839  0  0.121338  0.115463  0  0.993609  0
H  H6  1  0.72046339  0.70400685  0.35318000  1  0.076036  0  0.119441  0.109403  0  0.987071  0
H  H7  1  0.28565245  0.26699239  0.64334413  1  0.09117  0  0.120889  0.109949  0  0.986248  0
H  H8  1  0.26775279  0.97040846  0.74363722  1  0.633332  0  0.351532  0.394652  0  0.841577  0
H  H9  1  0.65893997  0.06353009  0.31518101  1  0.610412  0  0.361088  0.394798  0  0.827824  0
H  H10  1  0.81873752  0.82615197  0.22110984  1  0.078793  0  0.120454  0.109303  0  1.003181  0
H  H11  1  0.18998237  0.13261007  0.76931275  1  0.085258  0  0.116434  0.104938  0  1.016329  0
H  H12  1  0.86871460  0.71066859  0.40066787  1  0.12658  0  0.121161  0.109806  0  1.014302  0
H  H13  1  0.11209861  0.27785454  0.55820368  1  0.128679  0  0.120171  0.112471  0  0.996622  0
H  H14  1  0.24233946  0.23253426  0.46066138  1  0.629692  0  0.35862  0.40123  0  0.830976  0
H  H15  1  0.51402044  0.55272241  0.03481754  1  0.079485  0  0.100306  0.088549  0  0.988908  0
H  H16  1  0.72940230  0.78780873  0.52711572  1  0.629647  0  0.359204  0.403663  0  0.826388  0
H  H17  1  0.67833598  0.49905452  0.98066295  1  0.087532  0  0.100242  0.088262  0  0.99168  0
H  H18  1  0.43695165  0.39040621  0.02834261  1  0.061568  0  0.099302  0.086609  0  0.991947  0
H  H19  1  0.24545655  0.06613159  0.44150186  1  0.108132  0  0.124029  0.119284  0  0.988618  0
H  H20  1  0.83036156  0.99808864  0.61751424  1  0.116207  0  0.126049  0.121291  0  0.995535  0
H  H21  1  0.87534037  0.94498843  0.19266267  1  0.126085  0  0.128903  0.120652  0  0.98077  0
H  H22  1  0.11546280  0.03107187  0.79144228  1  0.115194  0  0.128487  0.119742  0  0.989005  0
H  H23  1  0.51713657  0.48542835  0.89032747  1  0.066039  0  0.098805  0.085811  0  0.990767  0
H  H24  1  0.59863227  0.40436118  0.11801345  1  0.078774  0  0.099108  0.085973  0  0.994246  0
H  H25  1  0.13950051  0.85586878  0.53518166  1  0.104274  0  0.121149  0.113668  0  1.006996  0
C  C26  1  0.93800577  0.98798211  0.24132430  1  0.409408  0  0.025331  -0.046797  0  3.923284  0
C  C27  1  0.53197573  0.50386732  0.02013304  1  -0.044286  0  -0.072718  -0.075652  0  3.638691  0
C  C28  1  0.62429917  0.47509392  0.99102262  1  -0.049148  0  -0.071902  -0.080244  0  3.632686  0
C  C29  1  0.49106294  0.41559764  0.01840621  1  -0.033743  0  -0.073577  -0.079339  0  3.641357  0
C  C30  1  0.71799826  0.65363997  0.19645193  1  -0.181336  0  -0.067454  -0.120076  0  4.206077  0
C  C31  1  0.34989185  0.27102597  0.80766007  1  -0.376764  0  -0.069946  -0.126231  0  4.212733  0
C  C32  1  0.57965556  0.42215313  0.06710068  1  -0.033079  0  -0.07399  -0.080763  0  3.640412  0
C  C33  1  0.53583107  0.46863899  0.94191985  1  -0.039028  0  -0.072672  -0.077519  0  3.643316  0
C  C34  1  0.62259068  0.51297919  0.07158064  1  0.13032  0  0.005089  0.134909  0  3.790174  0
C  C35  1  0.49147335  0.37810677  0.93719770  1  0.106209  0  0.003832  0.133048  0  3.796737  0
C  C36  1  0.68185107  0.58670904  0.14058148  1  -0.204594  0  -0.061841  -0.135602  0  4.128119  0
C  C37  1  0.05225608  0.98966578  0.74315612  1  0.428469  0  0.026743  -0.042593  0  3.909335  0
C  C38  1  0.41830356  0.31507188  0.86713232  1  -0.000314  0  -0.060203  -0.13044  0  4.138035  0
C  C39  1  0.01559697  0.67775263  0.44683642  1  -0.151458  0  -0.029064  -0.062728  0  4.074675  0
C  C40  1  0.00336664  0.33562550  0.45576578  1  0.030717  0  -0.02977  -0.057664  0  4.088913  0
C  C41  1  0.07186055  0.83306045  0.50650518  1  0.413844  0  0.017349  -0.033147  0  3.918712  0
C  C42  1  0.92638429  0.18028386  0.39818534  1  0.450304  0  0.018513  -0.036414  0  3.934681  0
C  C43  1  0.01744319  0.61172528  0.44283514  1  -0.016646  0  -0.048865  -0.060921  0  4.34326  0
C  C44  1  0.00949576  0.40217102  0.45186970  1  -0.190885  0  -0.052847  -0.072225  0  4.351385  0
C  C45  1  0.01746569  0.54012704  0.44343023  1  -0.011358  0  -0.033014  -0.026773  0  4.25958  0
C  C46  1  0.01462181  0.47409223  0.44732947  1  -0.108871  0  -0.030752  -0.01663  0  4.262703  0
C  C47  1  0.70559028  0.04808301  0.53287160  1  -0.173121  0  -0.024075  -0.058553  0  4.066368  0
C  C48  1  0.00821876  0.75112078  0.45963723  1  0.120373  0  -0.026406  0.032342  0  4.200641  0
C  C49  1  0.38101808  0.04525446  0.55357082  1  -0.206325  0  -0.014621  -0.036184  0  4.057324  0
C  C50  1  0.64802616  0.05516357  0.54304038  1  0.053729  0  -0.032749  -0.03516  0  4.306545  0
C  C51  1  0.44763213  0.05184243  0.55485261  1  0.07547  0  -0.033672  -0.045955  0  4.296737  0
C  C52  1  0.58231453  0.05832089  0.55063595  1  0.119159  0  -0.0212  -0.020233  0  4.233913  0
C  C53  1  0.51857094  0.05660123  0.55413753  1  -0.238086  0  -0.014889  -0.002335  0  4.228753  0
C  C54  1  0.00624400  0.04877233  0.16706257  1  -0.290753  0  -0.012882  -0.037068  0  4.048015  0
C  C55  1  0.97157005  0.97201494  0.81919522  1  0.081827  0  -0.019188  -0.052071  0  4.06085  0
C  C56  1  0.99794164  0.04285429  0.10011480  1  0.198562  0  -0.031423  -0.043329  0  4.293389  0
C  C57  1  0.97480437  0.99255499  0.88527258  1  -0.212451  0  -0.030261  -0.034674  0  4.30007  0
C  C58  1  0.98919270  0.03057100  0.02663800  1  0.233404  0  -0.014331  -0.004628  0  4.228734  0
C  C59  1  0.99434252  0.25798218  0.45488003  1  0.06069  0  -0.032553  0.02272  0  4.215614  0
C  C60  1  0.98056580  0.01329821  0.95805697  1  -0.349165  0  -0.017269  -0.013579  0  4.229754  0
C  C61  1  0.24384643  0.05067350  0.49146454  1  0.425092  0  0.020895  -0.042994  0  3.929275  0
C  C62  1  0.82108821  0.00547798  0.56176584  1  0.429265  0  0.021454  -0.043917  0  3.890081  0
C  C63  1  0.75001452  0.74757417  0.33159199  1  0.429784  0  0.009396  -0.053256  0  3.978088  0
C  C64  1  0.24898177  0.22439006  0.66124799  1  0.422484  0  0.018457  -0.039998  0  3.938638  0
C  C65  1  0.26882666  0.02008189  0.59882060  1  0.462542  0  0.091377  -0.005608  0  3.977311  0
C  C66  1  0.78082487  0.02932665  0.45081556  1  0.466941  0  0.085694  -0.021974  0  3.974023  0
C  C67  1  0.80049112  0.80987543  0.26418842  1  0.481233  0  0.018178  -0.034046  0  3.942946  0
C  C68  1  0.20013062  0.15590392  0.72580906  1  0.4117  0  0.00442  -0.054861  0  3.956567  0
C  C69  1  0.93304237  0.75867236  0.43788243  1  0.424499  0  0.023114  -0.026903  0  3.916978  0
C  C70  1  0.30457538  0.03874390  0.54867576  1  0.183492  0  -0.010822  0.027087  0  4.161203  0
C  C71  1  0.05124567  0.23735941  0.50585702  1  0.433969  0  0.012444  -0.042515  0  3.947009  0
C  C72  1  0.07017971  0.08444271  0.31811008  1  0.472025  0  0.086657  -0.012336  0  3.98206  0
C  C73  1  0.91585804  0.90542443  0.66781385  1  0.474618  0  0.085667  -0.016996  0  3.995616  0
C  C74  1  0.00617108  0.04277698  0.23696781  1  0.164202  0  -0.008711  0.033914  0  4.159594  0
C  C75  1  0.97791814  0.95561490  0.74888605  1  0.124363  0  -0.006573  0.038444  0  4.157648  0
C  C76  1  0.30044216  0.00115857  0.66909370  1  1.464213  0  0.229207  0.553886  0  4.154321  0
C  C77  1  0.74119506  0.03724043  0.37581832  1  1.47469  0  0.241354  0.56968  0  4.138341  0
C  C78  1  0.15252857  0.15501459  0.35516234  1  1.408085  0  0.231938  0.550759  0  4.130611  0
C  C79  1  0.82556632  0.85409044  0.63185249  1  1.411028  0  0.230085  0.545315  0  4.148984  0
C  C80  1  0.76575015  0.03190280  0.51765470  1  0.121413  0  -0.006296  0.044168  0  4.145158  0
C  C81  1  0.75453301  0.73071554  0.25951806  1  0.084785  0  -0.028678  0.046414  0  4.192354  0
C  C82  1  0.27235423  0.22109274  0.73755311  1  0.131907  0  -0.028241  0.053689  0  4.191708  0
C  C83  1  0.58201034  0.38589760  0.98781884  1  -0.013015  0  -0.07181  -0.081038  0  3.625897  0
N  N84  1  0.95982025  0.99593524  0.31764373  1  -0.716911  0  -0.238514  -0.166047  0  3.482267  0
N  N85  1  0.84005125  0.00379670  0.45748188  1  -0.716478  0  -0.247387  -0.171719  0  3.590971  0
N  N86  1  0.82078670  0.86799235  0.33274272  1  -0.807022  0  -0.275179  -0.201938  0  3.602101  0
N  N87  1  0.13926544  0.12197126  0.64849021  1  -0.790456  0  -0.286914  -0.227915  0  3.498132  0
N  N88  1  0.95140384  0.83816389  0.47108695  1  -0.762336  0  -0.277512  -0.185213  0  3.617962  0
N  N89  1  0.01989596  0.15456328  0.48034007  1  -0.809046  0  -0.277461  -0.215376  0  3.538597  0
N  N90  1  0.04053436  0.05383860  0.36405737  1  -0.725927  0  -0.247632  -0.175027  0  3.544734  0
N  N91  1  0.95210075  0.91160866  0.62002988  1  -0.720534  0  -0.244961  -0.185144  0  3.495365  0
N  N92  1  0.03511207  0.96282132  0.66590817  1  -0.731886  0  -0.241713  -0.139057  0  3.545105  0
N  N93  1  0.03660703  0.88404604  0.51347962  1  -0.804741  0  -0.277432  -0.194273  0  3.59979  0
N  N94  1  0.94309486  0.12000280  0.41411518  1  -0.774094  0  -0.268525  -0.176468  0  3.599333  0
N  N95  1  0.17876031  0.04056237  0.50692440  1  -0.751174  0  -0.248236  -0.182476  0  3.516476  0
N  N96  1  0.86389616  0.98807028  0.52349975  1  -0.731402  0  -0.254852  -0.168915  0  3.548544  0
N  N97  1  0.78965114  0.82956529  0.37522613  1  -0.787611  0  -0.279601  -0.216107  0  3.513296  0
N  N98  1  0.17037100  0.16548966  0.60937575  1  -0.78305  0  -0.27269  -0.180876  0  3.596107  0
N  N99  1  0.19428307  0.02183325  0.57198735  1  -0.71903  0  -0.250135  -0.174083  0  3.577883  0
O  O100  1  0.36757073  0.00015662  0.70059155  1  -1.108869  0  -0.280675  -0.452565  0  2.045211  0
O  O101  1  0.24243208  0.98289378  0.69734224  1  -1.133473  0  -0.343774  -0.516785  0  2.251297  0
O  O102  1  0.75897399  0.01918740  0.32086324  1  -1.14153  0  -0.288161  -0.4926  0  2.173755  0
O  O103  1  0.68263456  0.06347224  0.36889663  1  -1.088501  0  -0.308646  -0.440578  0  2.221148  0
O  O104  1  0.18899856  0.18874766  0.32316609  1  -1.098471  0  -0.273225  -0.439846  0  2.047931  0
O  O105  1  0.18802958  0.18444957  0.43901809  1  -1.136222  0  -0.337788  -0.507846  0  2.321492  0
O  O106  1  0.78236613  0.84319454  0.66489869  1  -1.076911  0  -0.270276  -0.43661  0  2.053203  0
O  O107  1  0.79041192  0.81667670  0.54835488  1  -1.119819  0  -0.338623  -0.504645  0  2.295006  0
