# generated using pymatgen
data_ZnH24C17(NO)4
_symmetry_space_group_name_H-M   'P 1'
_cell_length_a   8.04877329
_cell_length_b   8.64274701
_cell_length_c   15.09487634
_cell_angle_alpha   76.64558279
_cell_angle_beta   88.90012033
_cell_angle_gamma   86.53387401
_symmetry_Int_Tables_number   1
_chemical_formula_structural   ZnH24C17(NO)4
_chemical_formula_sum   'Zn2 H48 C34 N8 O8'
_cell_volume   1019.77542061
_cell_formula_units_Z   2
loop_
 _symmetry_equiv_pos_site_id
 _symmetry_equiv_pos_as_xyz
  1  'x, y, z'
loop_
 _atom_site_type_symbol
 _atom_site_label
 _atom_site_symmetry_multiplicity
 _atom_site_fract_x
 _atom_site_fract_y
 _atom_site_fract_z
 _atom_site_occupancy
 _atom_site_hle17_bader_spin_density
 _atom_site_hle17_ddec_charge
 _atom_site_hle17_ddec_spin_density
 _atom_site_hle17_ddec_sum_bond_order
 _atom_site_hle17_magmom
 _atom_site_hse06_10hf_bader_spin_density
 _atom_site_hse06_10hf_ddec_charge
 _atom_site_hse06_10hf_ddec_spin_density
 _atom_site_hse06_10hf_ddec_sum_bond_order
 _atom_site_hse06_10hf_magmom
 _atom_site_hse06_bader_spin_density
 _atom_site_hse06_ddec_charge
 _atom_site_hse06_ddec_spin_density
 _atom_site_hse06_ddec_sum_bond_order
 _atom_site_hse06_magmom
 _atom_site_pbe_bader_spin_density
 _atom_site_pbe_cm5_charge
 _atom_site_pbe_ddec_charge
 _atom_site_pbe_ddec_spin_density
 _atom_site_pbe_ddec_sum_bond_order
 _atom_site_pbe_magmom
Zn  Zn0  1  0.22197011  0.37620996  0.26323381  1  0  0.999788  0  1.895194  0  0  0.808712  0  2.380212  0  0  0.855607  0  2.323727  0  0  0.68632  0.775967  0  2.419077  0
Zn  Zn1  1  0.77802391  0.62378647  0.73676502  1  0  0.999706  0  1.895289  0  0  0.808571  0  2.380312  0  0  0.85547  0  2.323833  0  0  0.686267  0.77583  0  2.419185  0
H  H2  1  0.96034666  0.03088172  0.89743706  1  0  0.085546  0  0.936407  0  0  0.10406  0  0.996508  0  0  0.104527  0  0.997663  0  0  0.099844  0.103645  0  0.995791  0
H  H3  1  0.03964829  0.96910126  0.10256856  1  0  0.085583  0  0.936301  0  0  0.104068  0  0.996461  0  0  0.104535  0  0.997613  0  0  0.099884  0.103655  0  0.995738  0
H  H4  1  0.82032233  0.07066403  0.98187214  1  0  0.06861  0  0.924204  0  0  0.090748  0  0.979287  0  0  0.090958  0  0.980149  0  0  0.094911  0.090462  0  0.978842  0
H  H5  1  0.17967591  0.92932485  0.01813412  1  0  0.068587  0  0.924097  0  0  0.090714  0  0.979206  0  0  0.090921  0  0.980072  0  0  0.094911  0.090432  0  0.978756  0
H  H6  1  0.26891197  0.27457990  0.07309927  1  0  0.113942  0  0.947556  0  0  0.122054  0  1.010586  0  0  0.125489  0  1.006119  0  0  0.13883  0.11953  0  1.01376  0
H  H7  1  0.73108586  0.72541520  0.92690232  1  0  0.113899  0  0.947561  0  0  0.122017  0  1.01059  0  0  0.125451  0  1.006122  0  0  0.13881  0.119494  0  1.013764  0
H  H8  1  0.14524989  0.10533092  0.44493274  1  0  0.11033  0  0.954512  0  0  0.119548  0  1.014415  0  0  0.122077  0  1.013337  0  0  0.121563  0.117688  0  1.015338  0
H  H9  1  0.85474717  0.89467471  0.55507035  1  0  0.110271  0  0.954465  0  0  0.119589  0  1.014244  0  0  0.122118  0  1.013166  0  0  0.12161  0.117732  0  1.015167  0
H  H10  1  0.41319308  0.86106821  0.16423498  1  0  0.095142  0  0.931768  0  0  0.11317  0  0.986512  0  0  0.115372  0  0.985578  0  0  0.096167  0.111586  0  0.987222  0
H  H11  1  0.58681095  0.13892712  0.83576388  1  0  0.095064  0  0.931883  0  0  0.113156  0  0.986561  0  0  0.115359  0  0.985626  0  0  0.096156  0.111568  0  0.987276  0
H  H12  1  0.25419545  0.96129406  0.21731051  1  0  0.090922  0  0.944439  0  0  0.104633  0  1.007634  0  0  0.10654  0  1.007282  0  0  0.093039  0.10325  0  1.007936  0
H  H13  1  0.74580833  0.03870503  0.78268529  1  0  0.090885  0  0.944428  0  0  0.104583  0  1.007665  0  0  0.10649  0  1.007313  0  0  0.093009  0.103201  0  1.007965  0
H  H14  1  0.53834301  0.74642395  0.32163858  1  0  0.068254  0  0.939983  0  0  0.088618  0  0.998301  0  0  0.089565  0  0.998724  0  0  0.088894  0.087852  0  0.998155  0
H  H15  1  0.46165581  0.25357491  0.67835994  1  0  0.068244  0  0.940024  0  0  0.088644  0  0.998319  0  0  0.089592  0  0.99874  0  0  0.088895  0.087879  0  0.998171  0
H  H16  1  0.39075581  0.87045679  0.36604730  1  0  0.060903  0  0.942197  0  0  0.078052  0  1.006831  0  0  0.079107  0  1.006697  0  0  0.085751  0.077238  0  1.007041  0
H  H17  1  0.60923936  0.12954084  0.63395139  1  0  0.060874  0  0.942234  0  0  0.078028  0  1.006879  0  0  0.079083  0  1.006748  0  0  0.085733  0.077214  0  1.007086  0
H  H18  1  0.15490926  0.22310592  0.93052307  1  0  0.077097  0  0.912063  0  0  0.096676  0  0.968286  0  0  0.096893  0  0.968662  0  0  0.116081  0.096405  0  0.968133  0
H  H19  1  0.84509661  0.77688092  0.06947937  1  0  0.077078  0  0.912112  0  0  0.096705  0  0.968225  0  0  0.096934  0  0.968604  0  0  0.116086  0.096436  0  0.96807  0
H  H20  1  0.95780236  0.31258582  0.89386908  1  0  0.084656  0  0.950743  0  0  0.096575  0  1.017708  0  0  0.097038  0  1.018276  0  0  0.109436  0.096109  0  1.017478  0
H  H21  1  0.04219854  0.68740106  0.10613208  1  0  0.084691  0  0.950686  0  0  0.096538  0  1.01773  0  0  0.097012  0  1.018303  0  0  0.109424  0.096073  0  1.017495  0
H  H22  1  0.53526629  0.32383116  0.49740050  1  0  0.076996  0  0.92877  0  0  0.09624  0  0.986629  0  0  0.096884  0  0.987353  0  0  0.096381  0.09569  0  0.986229  0
H  H23  1  0.46473947  0.67617460  0.50260183  1  0  0.077046  0  0.928881  0  0  0.096298  0  0.986717  0  0  0.096943  0  0.987447  0  0  0.096405  0.095748  0  0.986319  0
H  H24  1  0.55395974  0.48665171  0.40339789  1  0  0.080371  0  0.932761  0  0  0.09715  0  0.993614  0  0  0.098381  0  0.993285  0  0  0.095631  0.096147  0  0.993983  0
H  H25  1  0.44604203  0.51335794  0.59659874  1  0  0.080378  0  0.932714  0  0  0.097173  0  0.993558  0  0  0.098405  0  0.993235  0  0  0.095672  0.096171  0  0.993939  0
H  H26  1  0.91157456  0.55852052  0.34208913  1  0  0.113387  0  0.951008  0  0  0.121601  0  1.014964  0  0  0.125218  0  1.010181  0  0  0.138642  0.118904  0  1.018457  0
H  H27  1  0.08843433  0.44149352  0.65791357  1  0  0.113422  0  0.950853  0  0  0.121595  0  1.014857  0  0  0.125211  0  1.010074  0  0  0.13866  0.118901  0  1.018351  0
H  H28  1  0.76448469  0.59810528  0.49046361  1  0  0.070868  0  0.941197  0  0  0.086908  0  1.004837  0  0  0.086968  0  1.005947  0  0  0.110268  0.086746  0  1.004183  0
H  H29  1  0.23551807  0.40190773  0.50953595  1  0  0.070951  0  0.941161  0  0  0.086957  0  1.004792  0  0  0.087011  0  1.005922  0  0  0.110263  0.086793  0  1.004138  0
H  H30  1  0.74888508  0.43188113  0.58273130  1  0  0.083213  0  0.949589  0  0  0.097617  0  1.014208  0  0  0.097781  0  1.015137  0  0  0.114001  0.097336  0  1.013752  0
H  H31  1  0.25112115  0.56813549  0.41726783  1  0  0.083154  0  0.949707  0  0  0.097678  0  1.014133  0  0  0.097845  0  1.015061  0  0  0.113992  0.097395  0  1.013678  0
H  H32  1  0.90863430  0.17060602  0.57245280  1  0  0.125597  0  0.946574  0  0  0.137897  0  1.002621  0  0  0.14082  0  1.001143  0  0  0.129533  0.135692  0  1.003902  0
H  H33  1  0.09136367  0.82940451  0.42754775  1  0  0.125588  0  0.946542  0  0  0.137939  0  1.002532  0  0  0.140825  0  1.001101  0  0  0.129556  0.135733  0  1.00381  0
H  H34  1  0.74276011  0.33293298  0.04287427  1  0  0.13172  0  0.926225  0  0  0.14572  0  0.976285  0  0  0.148711  0  0.974402  0  0  0.134288  0.143487  0  0.977825  0
H  H35  1  0.25723772  0.66706225  0.95712532  1  0  0.131713  0  0.926299  0  0  0.145747  0  0.976319  0  0  0.148739  0  0.974436  0  0  0.134304  0.143512  0  0.977858  0
H  H36  1  0.83336170  0.42003198  0.19919921  1  0  0.108351  0  0.940492  0  0  0.121521  0  0.993469  0  0  0.12371  0  0.992893  0  0  0.123547  0.119897  0  0.994034  0
H  H37  1  0.16662974  0.57996561  0.80079951  1  0  0.108431  0  0.940458  0  0  0.12158  0  0.993454  0  0  0.123769  0  0.992878  0  0  0.12358  0.119954  0  0.994016  0
H  H38  1  0.58527526  0.02380671  0.42319946  1  0  0.099408  0  0.962286  0  0  0.116301  0  1.030918  0  0  0.118751  0  1.029151  0  0  0.082671  0.114506  0  1.032235  0
H  H39  1  0.41471940  0.97619820  0.57679643  1  0  0.099474  0  0.962216  0  0  0.116342  0  1.030866  0  0  0.118791  0  1.029097  0  0  0.082694  0.114551  0  1.032178  0
H  H40  1  0.74475400  0.88821461  0.39701461  1  0  0.08492  0  0.974408  0  0  0.104819  0  1.042331  0  0  0.105889  0  1.043223  0  0  0.078584  0.104019  0  1.041764  0
H  H41  1  0.25524225  0.11178528  0.60298581  1  0  0.084918  0  0.974393  0  0  0.104846  0  1.042272  0  0  0.105912  0  1.043166  0  0  0.07859  0.104042  0  1.041708  0
H  H42  1  0.76317007  0.09658129  0.35837415  1  0  0.099074  0  0.952965  0  0  0.120223  0  1.012544  0  0  0.1212  0  1.013883  0  0  0.081873  0.11952  0  1.011619  0
H  H43  1  0.23682476  0.90342096  0.64162602  1  0  0.099083  0  0.952981  0  0  0.120231  0  1.012565  0  0  0.121207  0  1.0139  0  0  0.081885  0.119528  0  1.011642  0
H  H44  1  0.65158393  0.96203029  0.14743717  1  0  0.087508  0  0.967969  0  0  0.10539  0  1.036035  0  0  0.107315  0  1.034622  0  0  0.078595  0.103963  0  1.037094  0
H  H45  1  0.34842177  0.03795911  0.85256234  1  0  0.087519  0  0.967939  0  0  0.10536  0  1.036047  0  0  0.107282  0  1.034639  0  0  0.078587  0.103933  0  1.037107  0
H  H46  1  0.79561783  0.06687973  0.19417355  1  0  0.094567  0  0.977415  0  0  0.113521  0  1.044239  0  0  0.114483  0  1.045632  0  0  0.080516  0.112778  0  1.043355  0
H  H47  1  0.20438604  0.93311785  0.80582705  1  0  0.094547  0  0.977414  0  0  0.113484  0  1.044249  0  0  0.114454  0  1.045635  0  0  0.080508  0.112738  0  1.043367  0
H  H48  1  0.78791122  0.85791317  0.23660621  1  0  0.102283  0  0.955063  0  0  0.124769  0  1.014828  0  0  0.126591  0  1.014062  0  0  0.082025  0.123384  0  1.015469  0
H  H49  1  0.21208404  0.14208286  0.76339862  1  0  0.102212  0  0.955062  0  0  0.124682  0  1.014853  0  0  0.126504  0  1.014088  0  0  0.081995  0.123296  0  1.0155  0
C  C50  1  0.58400184  0.99676991  0.28285712  1  0  0.069864  0  3.599109  0  0  0.107781  0  3.821836  0  0  0.10313  0  3.841414  0  0  -0.01919  0.110893  0  3.808374  0
C  C51  1  0.41600070  0.00322899  0.71714137  1  0  0.069788  0  3.599331  0  0  0.10774  0  3.821956  0  0  0.10309  0  3.841535  0  0  -0.019156  0.110857  0  3.808483  0
C  C52  1  0.47776794  0.15336517  0.24892994  1  0  0.631512  0  3.834248  0  0  0.59006  0  4.119778  0  0  0.621786  0  4.115363  0  0  0.202349  0.568478  0  4.122091  0
C  C53  1  0.52223485  0.84663024  0.75106760  1  0  0.631259  0  3.83451  0  0  0.589902  0  4.119875  0  0  0.621617  0  4.115483  0  0  0.202279  0.568329  0  4.122172  0
C  C54  1  0.95346328  0.06308476  0.96378864  1  0  -0.126703  0  3.677982  0  0  -0.171381  0  3.945586  0  0  -0.172937  0  3.960213  0  0  -0.162697  -0.17008  0  3.93532  0
C  C55  1  0.04653373  0.93690433  0.03621430  1  0  -0.126679  0  3.677729  0  0  -0.171362  0  3.945319  0  0  -0.172925  0  3.960008  0  0  -0.162733  -0.170058  0  3.935051  0
C  C56  1  0.13873865  0.30423215  0.08527819  1  0  0.153052  0  3.661738  0  0  0.089338  0  3.930181  0  0  0.102958  0  3.942835  0  0  0.142919  0.080546  0  3.921388  0
C  C57  1  0.86125785  0.69576407  0.91472396  1  0  0.153122  0  3.66178  0  0  0.089414  0  3.930263  0  0  0.103036  0  3.942912  0  0  0.142944  0.08062  0  3.921477  0
C  C58  1  0.24593644  0.70710396  0.24740939  1  0  0.679964  0  3.878067  0  0  0.638432  0  4.177982  0  0  0.671351  0  4.170605  0  0  0.194801  0.616067  0  4.182233  0
C  C59  1  0.75406229  0.29289618  0.75258766  1  0  0.679736  0  3.878293  0  0  0.638287  0  4.178084  0  0  0.671204  0  4.17071  0  0  0.194749  0.615936  0  4.182315  0
C  C60  1  0.05735491  0.20638123  0.44180628  1  0  0.000456  0  3.748426  0  0  -0.031941  0  4.012919  0  0  -0.029753  0  4.031968  0  0  0.001498  -0.033416  0  4.000143  0
C  C61  1  0.94264455  0.79362548  0.55819866  1  0  0.000573  0  3.748033  0  0  -0.031922  0  4.012559  0  0  -0.029731  0  4.031597  0  0  0.001448  -0.033408  0  3.999795  0
C  C62  1  0.34287847  0.85713671  0.22785906  1  0  -0.259266  0  3.687853  0  0  -0.299665  0  3.939492  0  0  -0.305927  0  3.949132  0  0  -0.171588  -0.295234  0  3.932637  0
C  C63  1  0.65712283  0.14286217  0.77213944  1  0  -0.259043  0  3.687757  0  0  -0.299516  0  3.939448  0  0  -0.305782  0  3.949093  0  0  -0.171525  -0.29509  0  3.932586  0
C  C64  1  0.46329225  0.86000150  0.30488710  1  0  -0.117956  0  3.636078  0  0  -0.160942  0  3.883036  0  0  -0.161909  0  3.898105  0  0  -0.159599  -0.160041  0  3.872527  0
C  C65  1  0.53670764  0.13999970  0.69511181  1  0  -0.117891  0  3.63603  0  0  -0.160951  0  3.883066  0  0  -0.161918  0  3.898133  0  0  -0.159597  -0.160053  0  3.872557  0
C  C66  1  0.02258379  0.22772908  0.94946833  1  0  -0.000525  0  3.624116  0  0  -0.064448  0  3.886372  0  0  -0.060384  0  3.898526  0  0  -0.050745  -0.067  0  3.877977  0
C  C67  1  0.97741951  0.77225901  0.05053267  1  0  -0.000522  0  3.62422  0  0  -0.064313  0  3.88631  0  0  -0.060301  0  3.89853  0  0  -0.050697  -0.066872  0  3.877915  0
C  C68  1  0.56299360  0.45044960  0.47814466  1  0  -0.12805  0  3.686446  0  0  -0.169164  0  3.950309  0  0  -0.17089  0  3.963922  0  0  -0.162148  -0.167769  0  3.940794  0
C  C69  1  0.43700462  0.54955755  0.52185360  1  0  -0.128143  0  3.686476  0  0  -0.169347  0  3.950354  0  0  -0.171086  0  3.963973  0  0  -0.162228  -0.167956  0  3.94085  0
C  C70  1  0.93731707  0.44061640  0.38513543  1  0  0.154635  0  3.655101  0  0  0.090862  0  3.92365  0  0  0.104589  0  3.934965  0  0  0.142823  0.08203  0  3.915738  0
C  C71  1  0.06268834  0.55939417  0.61486571  1  0  0.154808  0  3.655058  0  0  0.091012  0  3.923627  0  0  0.104749  0  3.934937  0  0  0.142852  0.082175  0  3.915713  0
C  C72  1  0.73732913  0.47152728  0.50863318  1  0  -0.003647  0  3.637668  0  0  -0.066509  0  3.895979  0  0  -0.062475  0  3.908467  0  0  -0.054222  -0.069043  0  3.887424  0
C  C73  1  0.26267141  0.52848223  0.49136547  1  0  -0.003693  0  3.637612  0  0  -0.066519  0  3.895773  0  0  -0.062495  0  3.908297  0  0  -0.054145  -0.06905  0  3.88721  0
C  C74  1  0.94109344  0.23632293  0.50474038  1  0  -0.070526  0  3.666922  0  0  -0.113409  0  3.928789  0  0  -0.112466  0  3.947613  0  0  0.005521  -0.113985  0  3.916269  0
C  C75  1  0.05891057  0.76368973  0.49526451  1  0  -0.070454  0  3.666478  0  0  -0.1134  0  3.928387  0  0  -0.112425  0  3.947224  0  0  0.005502  -0.113971  0  3.915858  0
C  C76  1  0.86470510  0.33632211  0.07131701  1  0  -0.047166  0  3.650533  0  0  -0.08993  0  3.912982  0  0  -0.08796  0  3.931  0  0  0.011424  -0.091219  0  3.900942  0
C  C77  1  0.13529157  0.66367196  0.92868206  1  0  -0.047261  0  3.650755  0  0  -0.090014  0  3.913208  0  0  -0.088042  0  3.931222  0  0  0.011348  -0.091293  0  3.901154  0
C  C78  1  0.91120588  0.37790890  0.14928921  1  0  0.00298  0  3.743549  0  0  -0.032895  0  4.014626  0  0  -0.031245  0  4.034585  0  0  0.001169  -0.034042  0  4.001236  0
C  C79  1  0.08878326  0.62208624  0.85071047  1  0  0.002904  0  3.743709  0  0  -0.032971  0  4.014776  0  0  -0.031321  0  4.034733  0  0  0.00113  -0.034115  0  4.001378  0
C  C80  1  0.67426707  0.00212158  0.37076407  1  0  -0.321784  0  3.693874  0  0  -0.401837  0  3.930774  0  0  -0.40449  0  3.941299  0  0  -0.246543  -0.39973  0  3.923451  0
C  C81  1  0.32573166  0.99787837  0.62923565  1  0  -0.321859  0  3.693861  0  0  -0.401919  0  3.930745  0  0  -0.404572  0  3.941283  0  0  -0.246596  -0.399814  0  3.923421  0
C  C82  1  0.71182745  0.96869405  0.21100255  1  0  -0.324575  0  3.704111  0  0  -0.406611  0  3.943354  0  0  -0.40919  0  3.954234  0  0  -0.251394  -0.404571  0  3.935873  0
C  C83  1  0.28817518  0.03130366  0.78899606  1  0  -0.324443  0  3.704121  0  0  -0.406435  0  3.943356  0  0  -0.409018  0  3.954232  0  0  -0.251373  -0.404396  0  3.935879  0
N  N84  1  0.01010351  0.29041515  0.03163970  1  0  -0.063286  0  3.582973  0  0  0.031136  0  3.804294  0  0  0.016063  0  3.83224  0  0  -0.241087  0.041081  0  3.785268  0
N  N85  1  0.98989333  0.70957636  0.96836231  1  0  -0.063282  0  3.583292  0  0  0.030989  0  3.804763  0  0  0.015931  0  3.832721  0  0  -0.241073  0.040933  0  3.785741  0
N  N86  1  0.08259526  0.35768145  0.15712717  1  0  -0.392539  0  3.333475  0  0  -0.312908  0  3.642466  0  0  -0.332901  0  3.654021  0  0  -0.362246  -0.299396  0  3.634455  0
N  N87  1  0.91739709  0.64232083  0.84287235  1  0  -0.392414  0  3.333425  0  0  -0.312745  0  3.642348  0  0  -0.332738  0  3.653904  0  0  -0.362169  -0.299232  0  3.634338  0
N  N88  1  0.05396239  0.33518216  0.36791718  1  0  -0.387451  0  3.319213  0  0  -0.307906  0  3.618837  0  0  -0.327267  0  3.630483  0  0  -0.360098  -0.294797  0  3.610683  0
N  N89  1  0.94603724  0.66482230  0.63208601  1  0  -0.387606  0  3.319217  0  0  -0.307956  0  3.618761  0  0  -0.327324  0  3.630414  0  0  -0.36011  -0.294847  0  3.610616  0
N  N90  1  0.86688054  0.38503372  0.46751653  1  0  -0.05659  0  3.586947  0  0  0.036534  0  3.809041  0  0  0.021907  0  3.836132  0  0  -0.242789  0.046186  0  3.790567  0
N  N91  1  0.13312355  0.61497789  0.53248648  1  0  -0.056859  0  3.586939  0  0  0.036253  0  3.809056  0  0  0.021627  0  3.836138  0  0  -0.242871  0.045919  0  3.790559  0
O  O92  1  0.48721787  0.23248801  0.16865950  1  0  -0.627757  0  1.887534  0  0  -0.581894  0  2.098602  0  0  -0.603978  0  2.089542  0  0  -0.337532  -0.566512  0  2.104416  0
O  O93  1  0.51279139  0.76750394  0.83133770  1  0  -0.627635  0  1.887713  0  0  -0.581786  0  2.09869  0  0  -0.603863  0  2.089637  0  0  -0.337475  -0.566408  0  2.1045  0
O  O94  1  0.37546267  0.19007864  0.30982948  1  0  -0.663545  0  2.021454  0  0  -0.58786  0  2.288666  0  0  -0.616771  0  2.274002  0  0  -0.349907  -0.5676  0  2.298014  0
O  O95  1  0.62453408  0.80991447  0.69016638  1  0  -0.663413  0  2.021432  0  0  -0.587746  0  2.288569  0  0  -0.616664  0  2.273936  0  0  -0.349873  -0.567487  0  2.297907  0
O  O96  1  0.33560863  0.57613903  0.24877092  1  0  -0.667474  0  2.008831  0  0  -0.594503  0  2.279467  0  0  -0.622103  0  2.261155  0  0  -0.350344  -0.575236  0  2.29143  0
O  O97  1  0.66438513  0.42386120  0.75122417  1  0  -0.66737  0  2.008948  0  0  -0.59441  0  2.279523  0  0  -0.622011  0  2.261221  0  0  -0.350305  -0.575147  0  2.291483  0
O  O98  1  0.09184198  0.71482001  0.26130478  1  0  -0.647044  0  1.898663  0  0  -0.602864  0  2.12373  0  0  -0.624984  0  2.113944  0  0  -0.337796  -0.58742  0  2.129971  0
O  O99  1  0.90815667  0.28518123  0.73869348  1  0  -0.646974  0  1.898749  0  0  -0.602812  0  2.123762  0  0  -0.624931  0  2.113981  0  0  -0.337771  -0.587373  0  2.129996  0
