# generated using pymatgen
data_CdH24C30(NO2)4
_symmetry_space_group_name_H-M   'P 1'
_cell_length_a   8.61026966
_cell_length_b   9.51438671
_cell_length_c   9.63774996
_cell_angle_alpha   104.61378513
_cell_angle_beta   104.20490587
_cell_angle_gamma   108.21256781
_symmetry_Int_Tables_number   1
_chemical_formula_structural   CdH24C30(NO2)4
_chemical_formula_sum   'Cd1 H24 C30 N4 O8'
_cell_volume   679.06866180
_cell_formula_units_Z   1
loop_
 _symmetry_equiv_pos_site_id
 _symmetry_equiv_pos_as_xyz
  1  'x, y, z'
loop_
 _atom_site_type_symbol
 _atom_site_label
 _atom_site_symmetry_multiplicity
 _atom_site_fract_x
 _atom_site_fract_y
 _atom_site_fract_z
 _atom_site_occupancy
 _atom_site_hle17_bader_spin_density
 _atom_site_hle17_ddec_charge
 _atom_site_hle17_ddec_spin_density
 _atom_site_hle17_ddec_sum_bond_order
 _atom_site_hle17_magmom
 _atom_site_hse06_10hf_bader_spin_density
 _atom_site_hse06_10hf_ddec_charge
 _atom_site_hse06_10hf_ddec_spin_density
 _atom_site_hse06_10hf_ddec_sum_bond_order
 _atom_site_hse06_10hf_magmom
 _atom_site_hse06_bader_spin_density
 _atom_site_hse06_ddec_charge
 _atom_site_hse06_ddec_spin_density
 _atom_site_hse06_ddec_sum_bond_order
 _atom_site_hse06_magmom
 _atom_site_pbe_bader_spin_density
 _atom_site_pbe_cm5_charge
 _atom_site_pbe_ddec_charge
 _atom_site_pbe_ddec_spin_density
 _atom_site_pbe_ddec_sum_bond_order
 _atom_site_pbe_magmom
Cd  Cd0  1  0.99999993  0.99999972  0.00000106  1  0  1.119055  0  1.711426  0  0  0.9337  0  2.156757  0  0  0.987611  0  2.105184  0  0  0.766215  0.895189  0  2.193076  0
H  H1  1  0.43698737  0.08626433  0.84599712  1  0  0.13352  0  0.931503  0  0  0.145679  0  0.985657  0  0  0.149863  0  0.984141  0  0  0.113505  0.142841  0  0.986627  0
H  H2  1  0.56301260  0.91373489  0.15400396  1  0  0.133493  0  0.931586  0  0  0.145652  0  0.985737  0  0  0.149836  0  0.98422  0  0  0.113488  0.142814  0  0.986708  0
H  H3  1  0.06054759  0.73058556  0.18401714  1  0  0.122835  0  0.953918  0  0  0.134496  0  1.012294  0  0  0.138017  0  1.010079  0  0  0.108041  0.13199  0  1.014086  0
H  H4  1  0.93945238  0.26941366  0.81598395  1  0  0.122872  0  0.953864  0  0  0.134499  0  1.012283  0  0  0.138021  0  1.010066  0  0  0.108045  0.131992  0  1.014074  0
H  H5  1  0.17453540  0.53017693  0.08473960  1  0  0.091775  0  0.945032  0  0  0.104723  0  1.0016  0  0  0.107441  0  1.00014  0  0  0.102367  0.10287  0  1.002548  0
H  H6  1  0.82546524  0.46982112  0.91526029  1  0  0.091776  0  0.945014  0  0  0.104713  0  1.001593  0  0  0.107441  0  1.000121  0  0  0.102385  0.102859  0  1.002541  0
H  H7  1  0.41521693  0.49844634  0.25935956  1  0  0.101987  0  0.956263  0  0  0.112691  0  1.015163  0  0  0.116147  0  1.013468  0  0  0.100858  0.109926  0  1.016969  0
H  H8  1  0.58478596  0.50155407  0.74064145  1  0  0.101962  0  0.956298  0  0  0.112662  0  1.015207  0  0  0.116117  0  1.013512  0  0  0.10085  0.109896  0  1.017016  0
H  H9  1  0.54186597  0.66487242  0.53635131  1  0  0.089652  0  0.973016  0  0  0.100319  0  1.037506  0  0  0.102565  0  1.036977  0  0  0.100638  0.098916  0  1.037419  0
H  H10  1  0.45813691  0.33512798  0.46365073  1  0  0.089647  0  0.973057  0  0  0.100343  0  1.037502  0  0  0.102588  0  1.036974  0  0  0.100654  0.098939  0  1.037415  0
H  H11  1  0.17334314  0.16260488  0.36015640  1  0  0.076166  0  0.966917  0  0  0.082151  0  1.037719  0  0  0.084437  0  1.036019  0  0  0.114006  0.080278  0  1.039491  0
H  H12  1  0.82665498  0.83739556  0.63984356  1  0  0.076094  0  0.966957  0  0  0.082084  0  1.03775  0  0  0.084368  0  1.036053  0  0  0.113983  0.080211  0  1.039521  0
H  H13  1  0.19130968  0.37709130  0.57757855  1  0  0.114795  0  0.944296  0  0  0.127463  0  0.999003  0  0  0.130765  0  0.997548  0  0  0.113549  0.124995  0  1.000557  0
H  H14  1  0.80869176  0.62291390  0.42242131  1  0  0.11479  0  0.944307  0  0  0.127452  0  0.999025  0  0  0.130755  0  0.99757  0  0  0.113542  0.124984  0  1.000579  0
H  H15  1  0.79525774  0.44367823  0.25499195  1  0  0.115273  0  0.944191  0  0  0.127315  0  0.998943  0  0  0.131105  0  0.996466  0  0  0.113707  0.124449  0  1.001314  0
H  H16  1  0.20474094  0.55632347  0.74500431  1  0  0.115278  0  0.944159  0  0  0.12731  0  0.998928  0  0  0.1311  0  0.996451  0  0  0.113707  0.124444  0  1.001299  0
H  H17  1  0.79956767  0.22844457  0.05189523  1  0  0.085367  0  0.93968  0  0  0.094673  0  1.001368  0  0  0.096839  0  1.000229  0  0  0.119025  0.093234  0  1.002043  0
H  H18  1  0.20043059  0.77155349  0.94810414  1  0  0.085374  0  0.939696  0  0  0.094703  0  1.001358  0  0  0.096849  0  1.000241  0  0  0.11904  0.093264  0  1.002034  0
H  H19  1  0.05920445  0.91820870  0.40904792  1  0  0.313437  0  0.909027  0  0  0.291318  0  0.976192  0  0  0.300877  0  0.968062  0  0  0.310206  0.284411  0  0.982392  0
H  H20  1  0.94079619  0.08178933  0.59095300  1  0  0.313414  0  0.909  0  0  0.29127  0  0.976229  0  0  0.300831  0  0.968096  0  0  0.310185  0.284363  0  0.982428  0
H  H21  1  0.71028594  0.76044462  0.96475229  1  0  0.405632  0  0.908407  0  0  0.373666  0  0.974487  0  0  0.385584  0  0.957258  0  0  0.2751  0.365266  0  0.986646  0
H  H22  1  0.28971577  0.23955581  0.03524743  1  0  0.405666  0  0.908383  0  0  0.373694  0  0.974473  0  0  0.385612  0  0.957244  0  0  0.27511  0.365294  0  0.986632  0
H  H23  1  0.81060300  0.81508856  0.14578186  1  0  0.407465  0  0.904536  0  0  0.373532  0  0.973535  0  0  0.385206  0  0.95661  0  0  0.27608  0.365134  0  0.985797  0
H  H24  1  0.18939644  0.18490948  0.85421881  1  0  0.407484  0  0.904518  0  0  0.373546  0  0.973511  0  0  0.385219  0  0.956586  0  0  0.276087  0.365149  0  0.985771  0
C  C25  1  0.59059698  0.87969127  0.78923631  1  0  0.651327  0  3.92959  0  0  0.59902  0  4.23398  0  0  0.632803  0  4.2241  0  0  0.20928  0.576009  0  4.239921  0
C  C26  1  0.40940366  0.12030678  0.21076358  1  0  0.651366  0  3.929587  0  0  0.599039  0  4.234008  0  0  0.632827  0  4.224122  0  0  0.209249  0.576026  0  4.239949  0
C  C27  1  0.44864333  0.89774149  0.67600359  1  0  0.01335  0  3.701211  0  0  0.019511  0  3.946292  0  0  0.024394  0  3.961313  0  0  0.011773  0.016238  0  3.936143  0
C  C28  1  0.55135837  0.10225893  0.32399715  1  0  0.013328  0  3.701063  0  0  0.019511  0  3.946154  0  0  0.024389  0  3.961176  0  0  0.011775  0.01624  0  3.936004  0
C  C29  1  0.38459511  0.00790304  0.72650614  1  0  -0.258889  0  3.666394  0  0  -0.285408  0  3.925072  0  0  -0.296682  0  3.940892  0  0  -0.097809  -0.278011  0  3.914228  0
C  C30  1  0.61540553  0.99209501  0.27349376  1  0  -0.258856  0  3.666394  0  0  -0.285357  0  3.925078  0  0  -0.296628  0  3.940898  0  0  -0.097788  -0.277963  0  3.914236  0
C  C31  1  0.23969309  0.01922914  0.62527177  1  0  0.568271  0  3.85571  0  0  0.521568  0  4.147153  0  0  0.550558  0  4.14836  0  0  0.22291  0.501981  0  4.145754  0
C  C32  1  0.76030754  0.98076889  0.37472916  1  0  0.568226  0  3.855759  0  0  0.521448  0  4.14731  0  0  0.550436  0  4.148521  0  0  0.222874  0.501862  0  4.14591  0
C  C33  1  0.24037387  0.81290422  0.41651641  1  0  0.2356  0  3.755457  0  0  0.223162  0  4.002698  0  0  0.232156  0  4.023595  0  0  0.112189  0.21698  0  3.988787  0
C  C34  1  0.75962662  0.18709619  0.58348510  1  0  0.235546  0  3.75547  0  0  0.223124  0  4.002707  0  0  0.232118  0  4.023604  0  0  0.112203  0.216943  0  3.988795  0
C  C35  1  0.16668838  0.71664494  0.26028654  1  0  -0.163359  0  3.714215  0  0  -0.185527  0  3.972887  0  0  -0.190537  0  3.99174  0  0  -0.094512  -0.182301  0  3.960462  0
C  C36  1  0.83331159  0.28335430  0.73971352  1  0  -0.163371  0  3.714148  0  0  -0.185506  0  3.972806  0  0  -0.190515  0  3.991662  0  0  -0.094515  -0.18228  0  3.960379  0
C  C37  1  0.23137726  0.60617678  0.20545301  1  0  -0.036952  0  3.759728  0  0  -0.0535  0  4.014146  0  0  -0.05245  0  4.034535  0  0  -0.083936  -0.054132  0  4.000115  0
C  C38  1  0.76862565  0.39382365  0.79454696  1  0  -0.036999  0  3.759701  0  0  -0.053536  0  4.014117  0  0  -0.052498  0  4.034506  0  0  -0.083984  -0.054169  0  4.000085  0
C  C39  1  0.36813320  0.58781618  0.30398202  1  0  -0.080818  0  3.765583  0  0  -0.097944  0  4.022025  0  0  -0.101896  0  4.043706  0  0  -0.097706  -0.095109  0  4.007216  0
C  C40  1  0.63186902  0.41218541  0.69602018  1  0  -0.080732  0  3.765463  0  0  -0.097852  0  4.021893  0  0  -0.101802  0  4.043579  0  0  -0.097657  -0.095018  0  4.007084  0
C  C41  1  0.43972696  0.68128870  0.45805818  1  0  -0.093989  0  3.744118  0  0  -0.117795  0  3.99971  0  0  -0.11757  0  4.021005  0  0  -0.091116  -0.117324  0  3.984421  0
C  C42  1  0.56027422  0.31871055  0.54194111  1  0  -0.093989  0  3.743983  0  0  -0.117792  0  3.999578  0  0  -0.117568  0  4.020872  0  0  -0.091122  -0.117323  0  3.984298  0
C  C43  1  0.37887466  0.79656858  0.51757527  1  0  -0.035301  0  3.788519  0  0  -0.023584  0  4.021431  0  0  -0.030595  0  4.047954  0  0  -0.014031  -0.019109  0  4.003659  0
C  C44  1  0.62112824  0.20343183  0.48242574  1  0  -0.035311  0  3.788495  0  0  -0.02365  0  4.021493  0  0  -0.03066  0  4.048015  0  0  -0.014071  -0.019177  0  4.003721  0
C  C45  1  0.09448266  0.23071489  0.34231175  1  0  0.124097  0  3.731409  0  0  0.089072  0  3.993153  0  0  0.09597  0  4.011413  0  0  0.04053  0.084324  0  3.981247  0
C  C46  1  0.90551652  0.76928794  0.65768802  1  0  0.124211  0  3.731274  0  0  0.089199  0  3.993013  0  0  0.096097  0  4.011272  0  0  0.040586  0.084451  0  3.981109  0
C  C47  1  0.10338030  0.35174844  0.46354233  1  0  -0.140823  0  3.688791  0  0  -0.162447  0  3.943262  0  0  -0.168888  0  3.963257  0  0  -0.076575  -0.15805  0  3.929958  0
C  C48  1  0.89662007  0.64825438  0.53645771  1  0  -0.140827  0  3.688736  0  0  -0.162454  0  3.943219  0  0  -0.168896  0  3.963214  0  0  -0.076579  -0.158058  0  3.929917  0
C  C49  1  0.99731646  0.43518284  0.43695023  1  0  0.092218  0  3.740676  0  0  0.103511  0  3.972617  0  0  0.106811  0  3.995009  0  0  0.016162  0.101303  0  3.957508  0
C  C50  1  0.00268101  0.56481882  0.56304783  1  0  0.092208  0  3.740684  0  0  0.103499  0  3.972634  0  0  0.106799  0  3.995025  0  0  0.016166  0.101292  0  3.957526  0
C  C51  1  0.88542981  0.38881772  0.28557304  1  0  -0.139491  0  3.696627  0  0  -0.160714  0  3.949209  0  0  -0.167436  0  3.969853  0  0  -0.07313  -0.155923  0  3.935166  0
C  C52  1  0.11456886  0.61118396  0.71442425  1  0  -0.139457  0  3.696619  0  0  -0.160681  0  3.949213  0  0  -0.167404  0  3.969855  0  0  -0.073141  -0.155891  0  3.935171  0
C  C53  1  0.88509037  0.26686833  0.17041647  1  0  0.131336  0  3.712156  0  0  0.100446  0  3.965973  0  0  0.106656  0  3.985558  0  0  0.049194  0.096081  0  3.952511  0
C  C54  1  0.11490669  0.73312974  0.82958263  1  0  0.131294  0  3.71215  0  0  0.100398  0  3.965968  0  0  0.106621  0  3.985558  0  0  0.049191  0.096032  0  3.952511  0
N  N55  1  0.17669511  0.92190131  0.47492260  1  0  -0.420529  0  3.351447  0  0  -0.361735  0  3.590736  0  0  -0.382854  0  3.59971  0  0  -0.379256  -0.34767  0  3.585067  0
N  N56  1  0.82330434  0.07809674  0.52507703  1  0  -0.42042  0  3.351436  0  0  -0.361599  0  3.590761  0  0  -0.382716  0  3.599737  0  0  -0.379237  -0.347535  0  3.585091  0
N  N57  1  0.98841643  0.18901877  0.19772738  1  0  -0.334099  0  3.276189  0  0  -0.25497  0  3.539991  0  0  -0.274825  0  3.559606  0  0  -0.333799  -0.240627  0  3.526437  0
N  N58  1  0.01158114  0.81098047  0.80227318  1  0  -0.334133  0  3.276123  0  0  -0.255015  0  3.539926  0  0  -0.274869  0  3.559537  0  0  -0.333831  -0.240672  0  3.526375  0
O  O59  1  0.74272652  0.98843749  0.83435504  1  0  -0.64502  0  2.007308  0  0  -0.579227  0  2.258917  0  0  -0.60832  0  2.2491  0  0  -0.324034  -0.558681  0  2.265075  0
O  O60  1  0.25727518  0.01156293  0.16564570  1  0  -0.645054  0  2.00737  0  0  -0.579249  0  2.258986  0  0  -0.608341  0  2.249163  0  0  -0.324028  -0.558704  0  2.265144  0
O  O61  1  0.54536902  0.76011557  0.82828882  1  0  -0.619688  0  1.920674  0  0  -0.566361  0  2.132971  0  0  -0.591569  0  2.123284  0  0  -0.314901  -0.548622  0  2.139457  0
O  O62  1  0.45463268  0.23988485  0.17171192  1  0  -0.619704  0  1.92064  0  0  -0.566369  0  2.132945  0  0  -0.591578  0  2.123256  0  0  -0.314884  -0.54863  0  2.139431  0
O  O63  1  0.16674196  0.11124763  0.66854732  1  0  -0.618752  0  1.980412  0  0  -0.556709  0  2.198294  0  0  -0.58038  0  2.190089  0  0  -0.311703  -0.539921  0  2.204258  0
O  O64  1  0.83325749  0.88875043  0.33145231  1  0  -0.618747  0  1.980409  0  0  -0.556654  0  2.198304  0  0  -0.580327  0  2.190103  0  0  -0.31166  -0.539862  0  2.204265  0
O  O65  1  0.82259834  0.77876750  0.04364470  1  0  -0.845907  0  1.849774  0  0  -0.785247  0  2.036688  0  0  -0.807993  0  2.002154  0  0  -0.599713  -0.769336  0  2.061283  0
O  O66  1  0.17740164  0.22123174  0.95635536  1  0  -0.84597  0  1.849763  0  0  -0.78528  0  2.036706  0  0  -0.808032  0  2.002184  0  0  -0.599731  -0.76937  0  2.061298  0
