# generated using pymatgen
data_Zn3H12C30(NO5)4
_symmetry_space_group_name_H-M   'P 1'
_cell_length_a   21.75376275
_cell_length_b   21.75379194
_cell_length_c   21.75380682
_cell_angle_alpha   91.49989500
_cell_angle_beta   119.13802938
_cell_angle_gamma   119.13804829
_symmetry_Int_Tables_number   1
_chemical_formula_structural   Zn3H12C30(NO5)4
_chemical_formula_sum   'Zn6 H24 C60 N8 O40'
_cell_volume   7371.38441191
_cell_formula_units_Z   2
loop_
 _symmetry_equiv_pos_site_id
 _symmetry_equiv_pos_as_xyz
  1  'x, y, z'
loop_
 _atom_site_type_symbol
 _atom_site_label
 _atom_site_symmetry_multiplicity
 _atom_site_fract_x
 _atom_site_fract_y
 _atom_site_fract_z
 _atom_site_occupancy
 _atom_site_pbe_bader_charge
 _atom_site_pbe_bader_spin_density
 _atom_site_pbe_cm5_charge
 _atom_site_pbe_ddec_charge
 _atom_site_pbe_ddec_spin_density
 _atom_site_pbe_ddec_sum_bond_order
 _atom_site_pbe_magmom
Zn  Zn0  1  0.44135817  0.49999760  0.94136207  1  1.298384  0  0.744517  0.986948  0  2.048532  0
Zn  Zn1  1  0.55863965  0.05863983  0.50000029  1  1.307514  0  0.74445  0.986953  0  2.048593  0
Zn  Zn2  1  0.55863921  0.50000089  0.05864018  1  1.307617  0  0.744506  0.986978  0  2.048441  0
Zn  Zn3  1  0.44136192  0.94136171  0.50000155  1  1.298437  0  0.74453  0.987  0  2.048439  0
Zn  Zn4  1  0.00000050  0.04243637  0.04243930  1  1.315945  0  0.747602  0.98266  0  2.051025  0
Zn  Zn5  1  0.99999741  0.95756097  0.95756500  1  1.306556  0  0.747393  0.9827  0  2.051433  0
H  H6  1  0.55852848  0.24654053  0.87176375  1  0.074046  0  0.104071  0.104302  0  0.996246  0
H  H7  1  0.37476850  0.68800850  0.24653500  1  0.083975  0  0.104056  0.104242  0  0.996352  0
H  H8  1  0.44147056  0.31324064  0.68800588  1  0.067679  0  0.104062  0.104247  0  0.996311  0
H  H9  1  0.62522611  0.87177128  0.31323533  1  0.069187  0  0.104116  0.104326  0  0.99626  0
H  H10  1  0.37474504  0.68672312  0.12824306  1  0.068955  0  0.104105  0.104243  0  0.996461  0
H  H11  1  0.44152526  0.12825068  0.75349674  1  0.071802  0  0.104137  0.104361  0  0.99633  0
H  H12  1  0.62525277  0.75350589  0.31197664  1  0.079552  0  0.104108  0.104256  0  0.996484  0
H  H13  1  0.55848061  0.31198111  0.68672354  1  0.067997  0  0.104086  0.104236  0  0.996495  0
H  H14  1  0.56045804  0.33029114  0.95420235  1  0.080649  0  0.108411  0.114379  0  0.986523  0
H  H15  1  0.37607956  0.76982745  0.33028792  1  0.085525  0  0.108346  0.114265  0  0.986677  0
H  H16  1  0.43953989  0.39374915  0.76982711  1  0.096352  0  0.108359  0.114311  0  0.986671  0
H  H17  1  0.62391267  0.95420740  0.39374635  1  0.127784  0  0.10837  0.11433  0  0.986649  0
H  H18  1  0.37605658  0.60621137  0.04580683  1  0.112572  0  0.108492  0.114497  0  0.986611  0
H  H19  1  0.43959684  0.04581105  0.66974901  1  0.095598  0  0.108518  0.114505  0  0.986545  0
H  H20  1  0.62394578  0.66975473  0.23016138  1  0.087447  0  0.108475  0.114483  0  0.986596  0
H  H21  1  0.56041246  0.23016171  0.60621406  1  0.096356  0  0.108436  0.114469  0  0.986635  0
H  H22  1  0.23830761  0.25477762  0.10892469  1  0.154052  0  0.127621  0.145055  0  0.972653  0
H  H23  1  0.14585393  0.01646877  0.25477881  1  0.149956  0  0.127628  0.145065  0  0.9727  0
H  H24  1  0.76169207  0.87061417  0.01646684  1  0.152208  0  0.127636  0.145103  0  0.972681  0
H  H25  1  0.85414131  0.10892120  0.87061931  1  0.162738  0  0.127603  0.145045  0  0.972733  0
H  H26  1  0.14584981  0.12937969  0.89107629  1  0.162728  0  0.127625  0.14506  0  0.972614  0
H  H27  1  0.76170056  0.89108038  0.74522105  1  0.153853  0  0.127636  0.145086  0  0.972603  0
H  H28  1  0.85414589  0.74521933  0.98352969  1  0.150053  0  0.127642  0.145081  0  0.972615  0
H  H29  1  0.23830856  0.98353396  0.12938418  1  0.152449  0  0.127648  0.145082  0  0.9726  0
C  C30  1  0.38147815  0.38148027  0.99999818  1  1.673797  0  0.215639  0.594255  0  4.266389  0
C  C31  1  0.38148098  0.99999834  0.38148205  1  1.667267  0  0.215554  0.594194  0  4.26648  0
C  C32  1  0.61851688  0.61851753  0.00000016  1  1.667142  0  0.215594  0.594234  0  4.266335  0
C  C33  1  0.61852010  0.00000045  0.61851694  1  1.673775  0  0.215564  0.593008  0  4.26674  0
C  C34  1  0.24209837  0.25134619  0.06100699  1  -0.007716  0  -0.055455  -0.114084  0  3.899246  0
C  C35  1  0.19034086  0.00924691  0.25134905  1  0.016582  0  -0.055485  -0.114074  0  3.899467  0
C  C36  1  0.75789996  0.81890516  0.00924519  1  0.02008  0  -0.055428  -0.114118  0  3.899369  0
C  C37  1  0.80965864  0.06100542  0.81890857  1  0.001628  0  -0.055394  -0.114439  0  3.899369  0
C  C38  1  0.19033871  0.18109173  0.93899528  1  0.001512  0  -0.055407  -0.11428  0  3.898995  0
C  C39  1  0.75790801  0.93899930  0.74865208  1  -0.007391  0  -0.05552  -0.114127  0  3.89974  0
C  C40  1  0.80965801  0.74865022  0.99075227  1  0.016444  0  -0.055472  -0.114087  0  3.899501  0
C  C41  1  0.24210092  0.99075563  0.18109523  1  0.020008  0  -0.055436  -0.113986  0  3.899452  0
C  C42  1  0.49999777  0.41574846  0.91574493  1  1.522273  0  0.225893  0.611485  0  4.13357  0
C  C43  1  0.49999465  0.91574433  0.41574641  1  1.522606  0  0.225999  0.611766  0  4.133439  0
C  C44  1  0.50000251  0.58425236  0.08425581  1  1.523406  0  0.225874  0.611568  0  4.133519  0
C  C45  1  0.50000424  0.08425620  0.58425279  1  1.522187  0  0.225955  0.611429  0  4.133621  0
C  C46  1  0.31291171  0.31291239  0.99999922  1  0.093153  0  0.023924  -0.061749  0  3.868016  0
C  C47  1  0.31291286  0.99999773  0.31291329  1  0.069009  0  0.023955  -0.061201  0  3.868013  0
C  C48  1  0.68708562  0.68708490  0.00000048  1  0.068144  0  0.024018  -0.061086  0  3.868031  0
C  C49  1  0.68709114  0.00000228  0.68708436  1  0.092924  0  0.024066  -0.05703  0  3.861516  0
C  C50  1  0.30424910  0.31385912  0.05964936  1  0.205244  0  0.09134  0.063593  0  3.899693  0
C  C51  1  0.25420928  0.00960622  0.31386066  1  0.22107  0  0.091335  0.063485  0  3.89966  0
C  C52  1  0.69574936  0.75539846  0.00960855  1  0.22685  0  0.091328  0.063469  0  3.899702  0
C  C53  1  0.74578869  0.05964841  0.75539919  1  0.216373  0  0.091333  0.063333  0  3.896955  0
C  C54  1  0.25420627  0.24459662  0.94034856  1  0.216391  0  0.091396  0.064731  0  3.89795  0
C  C55  1  0.69575928  0.94035516  0.68613724  1  0.205683  0  0.091369  0.06215  0  3.899019  0
C  C56  1  0.74579021  0.68613785  0.99039170  1  0.221824  0  0.091436  0.063601  0  3.899614  0
C  C57  1  0.30425134  0.99039085  0.24460040  1  0.2264  0  0.091415  0.063566  0  3.899736  0
C  C58  1  0.53231520  0.27874336  0.84936440  1  -0.025693  0  -0.087941  -0.135812  0  3.980779  0
C  C59  1  0.42936953  0.74642560  0.27873746  1  -0.028351  0  -0.087954  -0.135712  0  3.980681  0
C  C60  1  0.46768476  0.31705529  0.74642268  1  -0.00879  0  -0.087914  -0.135674  0  3.980514  0
C  C61  1  0.57062274  0.84937008  0.31704921  1  -0.042316  0  -0.087995  -0.135786  0  3.980617  0
C  C62  1  0.42935926  0.68292615  0.15063773  1  -0.048414  0  -0.08796  -0.135472  0  3.980633  0
C  C63  1  0.46771788  0.15064427  0.72127890  1  -0.023412  0  -0.087889  -0.135522  0  3.98071  0
C  C64  1  0.57064082  0.72128521  0.25356551  1  -0.024041  0  -0.087802  -0.135365  0  3.980552  0
C  C65  1  0.53228889  0.25357019  0.68292466  1  -0.008467  0  -0.087914  -0.135495  0  3.980544  0
C  C66  1  0.53368581  0.32547687  0.89558469  1  -0.060841  0  -0.077098  -0.074372  0  3.967857  0
C  C67  1  0.42988285  0.79178635  0.32547210  1  -0.054228  0  -0.077111  -0.074298  0  3.967878  0
C  C68  1  0.46631309  0.36190337  0.79178538  1  -0.048571  0  -0.07714  -0.074452  0  3.967923  0
C  C69  1  0.57010881  0.89558913  0.36189935  1  -0.091  0  -0.077115  -0.0744  0  3.967905  0
C  C70  1  0.42987343  0.63807631  0.10441933  1  -0.075939  0  -0.077276  -0.074724  0  3.967988  0
C  C71  1  0.46634685  0.10442359  0.67454674  1  -0.075639  0  -0.077259  -0.074896  0  3.967879  0
C  C72  1  0.57012841  0.67455026  0.20820503  1  -0.053426  0  -0.077249  -0.074656  0  3.96781  0
C  C73  1  0.53366169  0.20820834  0.63807660  1  -0.049331  0  -0.077139  -0.074822  0  3.967796  0
C  C74  1  0.49999971  0.36689980  0.86689583  1  -0.006311  0  -0.017564  -0.038898  0  3.974917  0
C  C75  1  0.49999702  0.86689723  0.36689760  1  0.001956  0  -0.017638  -0.039085  0  3.974965  0
C  C76  1  0.50000158  0.63310315  0.13310368  1  -0.000805  0  -0.017612  -0.039083  0  3.974546  0
C  C77  1  0.50000434  0.13310576  0.63310092  1  -0.006442  0  -0.017664  -0.038533  0  3.974211  0
C  C78  1  0.50000110  0.27432633  0.77432040  1  -0.03776  0  0.001592  0.079929  0  3.995774  0
C  C79  1  0.49999667  0.77432594  0.27431913  1  -0.021539  0  0.001624  0.079909  0  3.995656  0
C  C80  1  0.49999910  0.72567940  0.22567355  1  0.063247  0  0.001504  0.079674  0  3.995657  0
C  C81  1  0.50000234  0.22567972  0.72567400  1  0.039529  0  0.001464  0.079712  0  3.995735  0
C  C82  1  0.88335007  0.00000716  0.88335609  1  1.546666  0  0.225383  0.604259  0  4.152493  0
C  C83  1  0.11665061  0.11665533  0.00000879  1  1.546294  0  0.225443  0.6043  0  4.152581  0
C  C84  1  0.11664986  0.00000604  0.11665988  1  1.537623  0  0.225471  0.604488  0  4.152325  0
C  C85  1  0.88334738  0.88335106  0.00000291  1  1.537547  0  0.225393  0.604234  0  4.152652  0
C  C86  1  0.18440920  0.18440967  0.99999848  1  0.072983  0  -0.004557  -0.004919  0  3.953077  0
C  C87  1  0.18441487  0.00000169  0.18441249  1  0.043378  0  -0.004581  -0.004969  0  3.953061  0
C  C88  1  0.81558765  0.81558318  0.99999725  1  0.043723  0  -0.004609  -0.004859  0  3.953087  0
C  C89  1  0.81559017  0.99999964  0.81558799  1  0.073197  0  -0.004492  -0.004876  0  3.953155  0
N  N90  1  0.36126491  0.38435547  0.12398431  1  0.418334  0  0.064346  0.518254  0  4.205251  0
N  N91  1  0.26036834  0.02308397  0.38435624  1  0.424733  0  0.064314  0.518412  0  4.205373  0
N  N92  1  0.63873883  0.76272102  0.02309287  1  0.421358  0  0.064327  0.518227  0  4.205209  0
N  N93  1  0.73962327  0.12397963  0.76272391  1  0.413348  0  0.064147  0.517747  0  4.206059  0
N  N94  1  0.26036594  0.23727441  0.87601414  1  0.413601  0  0.064438  0.518022  0  4.205018  0
N  N95  1  0.63874832  0.87601728  0.61564373  1  0.418508  0  0.064243  0.518113  0  4.205942  0
N  N96  1  0.73963389  0.61564368  0.97691710  1  0.424862  0  0.0644  0.518405  0  4.205158  0
N  N97  1  0.36126594  0.97691202  0.23727864  1  0.421582  0  0.064346  0.518188  0  4.205103  0
O  O98  1  0.35422778  0.40570643  0.94763626  1  -1.144657  0  -0.307278  -0.536538  0  2.270118  0
O  O99  1  0.45806960  0.05147530  0.40570984  1  -1.139718  0  -0.307224  -0.536559  0  2.270154  0
O  O100  1  0.64576748  0.59340532  0.05147838  1  -1.146099  0  -0.307266  -0.536616  0  2.269962  0
O  O101  1  0.54193588  0.94764330  0.59340598  1  -1.147029  0  -0.307123  -0.536569  0  2.271167  0
O  O102  1  0.45806651  0.40659518  0.05235740  1  -1.147079  0  -0.307183  -0.53647  0  2.270138  0
O  O103  1  0.64576873  0.05236342  0.59428828  1  -1.144762  0  -0.307284  -0.536754  0  2.270602  0
O  O104  1  0.54193016  0.59428830  0.94852682  1  -1.139724  0  -0.307196  -0.536502  0  2.270377  0
O  O105  1  0.35423492  0.94852423  0.40659618  1  -1.146222  0  -0.307188  -0.536489  0  2.270323  0
O  O106  1  0.45055432  0.43738446  0.88359420  1  -1.136382  0  -0.312277  -0.547058  0  2.298353  0
O  O107  1  0.55378417  0.98682541  0.43738358  1  -1.142852  0  -0.312181  -0.547015  0  2.298055  0
O  O108  1  0.54944169  0.43303983  0.98682588  1  -1.140719  0  -0.312181  -0.546963  0  2.298029  0
O  O109  1  0.44620934  0.88359383  0.43303986  1  -1.135242  0  -0.312331  -0.54717  0  2.29829  0
O  O110  1  0.55379311  0.56696350  0.11640912  1  -1.135145  0  -0.312259  -0.547029  0  2.298369  0
O  O111  1  0.54944585  0.11640869  0.56261321  1  -1.136394  0  -0.312336  -0.547119  0  2.298386  0
O  O112  1  0.44621159  0.56261232  0.01317662  1  -1.143406  0  -0.312143  -0.546925  0  2.298202  0
O  O113  1  0.45056354  0.01317771  0.56696356  1  -1.14065  0  -0.312102  -0.546867  0  2.298248  0
O  O114  1  0.92325655  0.04979995  0.94583420  1  -1.150558  0  -0.310109  -0.546034  0  2.272499  0
O  O115  1  0.10396814  0.12654379  0.04980241  1  -1.142151  0  -0.310155  -0.546082  0  2.272561  0
O  O116  1  0.07674524  0.02257728  0.12654807  1  -1.141385  0  -0.310139  -0.546059  0  2.272506  0
O  O117  1  0.89603135  0.94582737  0.02257298  1  -1.142985  0  -0.310138  -0.546111  0  2.272633  0
O  O118  1  0.10396786  0.97742431  0.05416167  1  -1.142473  0  -0.310445  -0.546584  0  2.271175  0
O  O119  1  0.07673354  0.05415674  0.95019212  1  -1.149845  0  -0.310419  -0.546434  0  2.271342  0
O  O120  1  0.89603043  0.95018893  0.87345654  1  -1.142217  0  -0.310429  -0.546455  0  2.271251  0
O  O121  1  0.92326354  0.87344941  0.97742190  1  -1.141025  0  -0.310406  -0.54634  0  2.271277  0
O  O122  1  0.38595011  0.37881331  0.18686826  1  -0.441584  0  -0.129347  -0.32278  0  1.848101  0
O  O123  1  0.37815180  0.44285750  0.10966235  1  -0.430289  0  -0.110502  -0.30037  0  1.920676  0
O  O124  1  0.19194252  0.99285194  0.37881301  1  -0.446781  0  -0.129414  -0.322917  0  1.848191  0
O  O125  1  0.33319325  0.06470182  0.44285956  1  -0.43258  0  -0.110436  -0.300373  0  1.920784  0
O  O126  1  0.61406318  0.80092944  0.99287345  1  -0.443949  0  -0.129443  -0.322822  0  1.84785  0
O  O127  1  0.62184466  0.73150679  0.06470088  1  -0.430854  0  -0.110392  -0.300254  0  1.920842  0
O  O128  1  0.80804829  0.18686334  0.80093921  1  -0.439186  0  -0.129386  -0.322877  0  1.848353  0
O  O129  1  0.66679688  0.10965590  0.73150103  1  -0.427872  0  -0.110322  -0.300224  0  1.921383  0
O  O130  1  0.19194265  0.19906910  0.81313296  1  -0.439298  0  -0.12941  -0.322788  0  1.848326  0
O  O131  1  0.33319361  0.26849168  0.89033622  1  -0.42805  0  -0.110547  -0.300481  0  1.920627  0
O  O132  1  0.61408148  0.81314265  0.62118409  1  -0.441762  0  -0.129311  -0.322693  0  1.848702  0
O  O133  1  0.62184712  0.89034311  0.55713305  1  -0.430544  0  -0.11045  -0.300378  0  1.920483  0
O  O134  1  0.80805566  0.62118582  0.00714909  1  -0.446766  0  -0.129393  -0.322847  0  1.848386  0
O  O135  1  0.66680415  0.55713702  0.93529592  1  -0.432675  0  -0.110552  -0.30047  0  1.920339  0
O  O136  1  0.38594791  0.00713367  0.19908101  1  -0.443961  0  -0.129272  -0.322643  0  1.848262  0
O  O137  1  0.37815722  0.93529629  0.26849384  1  -0.430918  0  -0.110564  -0.300406  0  1.920317  0
