# generated using pymatgen
data_FeH14C20N2O5
_symmetry_space_group_name_H-M   'P 1'
_cell_length_a   9.14556989
_cell_length_b   10.11022696
_cell_length_c   11.29098848
_cell_angle_alpha   112.21997364
_cell_angle_beta   93.96965064
_cell_angle_gamma   114.41207717
_symmetry_Int_Tables_number   1
_chemical_formula_structural   FeH14C20N2O5
_chemical_formula_sum   'Fe2 H28 C40 N4 O10'
_cell_volume   847.99260242
_cell_formula_units_Z   2
loop_
 _symmetry_equiv_pos_site_id
 _symmetry_equiv_pos_as_xyz
  1  'x, y, z'
loop_
 _atom_site_type_symbol
 _atom_site_label
 _atom_site_symmetry_multiplicity
 _atom_site_fract_x
 _atom_site_fract_y
 _atom_site_fract_z
 _atom_site_occupancy
 _atom_site_hse06_10hf_ddec_charge
 _atom_site_hse06_10hf_ddec_spin_density
 _atom_site_hse06_10hf_ddec_sum_bond_order
 _atom_site_hse06_10hf_magmom
 _atom_site_hse06_ddec_charge
 _atom_site_hse06_ddec_spin_density
 _atom_site_hse06_ddec_sum_bond_order
 _atom_site_hse06_magmom
 _atom_site_pbe_cm5_charge
 _atom_site_pbe_ddec_charge
 _atom_site_pbe_ddec_spin_density
 _atom_site_pbe_ddec_sum_bond_order
 _atom_site_pbe_magmom
Fe  Fe0  1  0.47157758  0.85729194  0.19961599  1  0.795016  2.17352  2.954916  2.03  0.837413  2.103531  2.892448  1.977  0.719537  0.756964  2.173213  2.998753  2.014
Fe  Fe1  1  0.52616931  0.12311736  0.78964890  1  0.933937  3.947109  2.527517  3.684  0.964353  3.923964  2.463384  3.692  0.733218  0.903232  3.95498  2.571234  3.658
H  H2  1  0.63258056  0.88857894  0.46461934  1  0.108167  -0.001123  1.012297  0.0  0.112977  -0.000792  1.005578  0.0  0.123954  0.104639  -0.001269  1.016999  0.0
H  H3  1  0.35990773  0.12313075  0.52667023  1  0.106035  0.000172  1.017015  0.001  0.110915  4.6e-05  1.011252  0.001  0.120076  0.102642  0.000275  1.021162  0.001
H  H4  1  0.83595896  0.80928793  0.52543313  1  0.123346  -5.1e-05  1.009893  0.0  0.127533  -9.3e-05  1.007977  0.0  0.1077  0.120493  -7.5e-05  1.011117  0.0
H  H5  1  0.15539182  0.20762119  0.47392262  1  0.117843  0.000355  1.009597  0.0  0.121825  0.000212  1.008177  0.0  0.107289  0.115212  0.000411  1.01064  0.0
H  H6  1  0.94423784  0.66259718  0.34952055  1  0.109079  -0.00115  1.019953  0.0  0.112713  -0.00069  1.01624  0.0  0.103  0.106749  -0.001136  1.02168  0.0
H  H7  1  0.04999756  0.34653497  0.65693365  1  0.10821  -0.000535  1.018486  0.0  0.111422  -0.000157  1.015569  0.0  0.104163  0.105976  -0.000564  1.020125  0.0
H  H8  1  0.83199640  0.50379041  0.87378109  1  0.11447  -0.000208  1.021304  0.0  0.11813  -0.00016  1.018432  0.0  0.104023  0.111863  -0.00021  1.023405  0.0
H  H9  1  0.16605357  0.49149960  0.12603519  1  0.112596  0.000227  1.019394  0.0  0.116383  0.00015  1.016359  0.0  0.104398  0.10989  0.000333  1.021525  0.0
H  H10  1  0.93650270  0.54497546  0.09983485  1  0.115896  -0.000216  0.993975  0.0  0.118961  -0.000188  0.992855  0.0  0.108168  0.113724  -0.000228  0.99483  0.0
H  H11  1  0.05866937  0.45336395  0.90113336  1  0.116515  1e-06  0.99415  0.0  0.119393  -3.6e-05  0.993153  0.0  0.108513  0.114365  7.5e-05  0.994974  0.0
H  H12  1  0.65696236  0.55615618  0.72167716  1  0.11368  -0.000125  0.99823  0.0  0.11657  -0.000119  0.995561  0.0  0.109065  0.11145  -0.000203  1.000409  0.0
H  H13  1  0.34111515  0.44331879  0.27424630  1  0.111195  -0.000284  0.996542  0.0  0.114056  -0.000144  0.993888  0.0  0.108247  0.108768  -0.000483  0.999081  0.0
H  H14  1  0.46500636  0.67077598  0.70531321  1  0.119637  -0.000114  0.99549  0.0  0.122452  -8.1e-05  0.995078  0.0  0.110021  0.117196  -0.000191  0.996491  0.0
H  H15  1  0.53710000  0.33325624  0.29407127  1  0.119632  0.000166  0.996768  0.0  0.122337  7.4e-05  0.996713  0.0  0.109712  0.117282  0.000237  0.997466  0.001
H  H16  1  0.38109553  0.79887819  0.90590192  1  0.106387  -0.000273  1.006487  0.0  0.110438  -0.000252  1.001233  0.0  0.124829  0.103219  -0.000254  1.010665  0.0
H  H17  1  0.61995468  0.20329391  0.09295915  1  0.103692  0.000103  1.001615  0.001  0.108199  9e-06  0.995952  0.001  0.122851  0.100121  0.000217  1.006143  0.001
H  H18  1  0.95350277  0.29449908  0.27261864  1  0.106641  7.6e-05  1.046707  0.0  0.110037  4.5e-05  1.045447  0.0  0.102923  0.104304  9.8e-05  1.047576  0.0
H  H19  1  0.03893644  0.70601928  0.72475313  1  0.108084  5.4e-05  1.050132  0.0  0.111168  3.4e-05  1.049338  0.0  0.103559  0.105866  8.4e-05  1.050822  0.0
H  H20  1  0.78064765  0.43827874  0.61967377  1  0.100362  -2.4e-05  1.048056  0.0  0.103751  -6.9e-05  1.045924  0.0  0.101796  0.098057  -3e-06  1.049623  0.0
H  H21  1  0.21046504  0.56356825  0.37631400  1  0.101661  -4.3e-05  1.044073  0.0  0.105472  -5.4e-05  1.04141  0.0  0.101254  0.099087  -5.8e-05  1.046006  0.0
H  H22  1  0.20921650  0.90959497  0.91764855  1  0.112398  -0.000193  1.051941  0.0  0.116227  -0.000241  1.04916  0.0  0.103357  0.109371  -0.00016  1.054273  0.0
H  H23  1  0.79910914  0.08136199  0.08723299  1  0.112258  -0.000111  1.044336  0.0  0.116839  -0.000145  1.040534  0.0  0.103011  0.108848  -5.5e-05  1.047212  0.0
H  H24  1  0.97829722  0.03968737  0.23059920  1  0.107355  -5.9e-05  1.013123  0.0  0.110123  -6.9e-05  1.01222  0.0  0.102863  0.105027  -5.2e-05  1.014477  0.0
H  H25  1  0.03182278  0.95391199  0.77563413  1  0.108829  -9.7e-05  1.014297  0.0  0.111677  -8.2e-05  1.013371  0.0  0.103022  0.106309  -0.000109  1.015698  0.0
H  H26  1  0.26213821  0.86237064  0.31041909  1  0.377119  5e-06  0.97699  0.001  0.389271  -3.3e-05  0.960064  0.001  0.288397  0.368372  8e-05  0.989173  0.001
H  H27  1  0.75720401  0.14136647  0.69355250  1  0.376995  0.000466  0.975767  0.002  0.388651  0.00023  0.959454  0.001  0.283836  0.368654  0.000674  0.987415  0.002
H  H28  1  0.36071147  0.81730124  0.40214443  1  0.393222  0.000129  0.949228  0.001  0.40253  -5.1e-05  0.936339  0.001  0.292321  0.386033  0.000289  0.959128  0.002
H  H29  1  0.66264072  0.19298315  0.60390150  1  0.391217  0.00056  0.956049  0.003  0.400948  0.000265  0.942571  0.002  0.287138  0.384133  0.000772  0.965822  0.003
C  C30  1  0.67936073  0.82592853  0.38855722  1  0.101578  -0.042988  3.882669  -0.025  0.117773  -0.035077  3.887402  -0.021  0.046281  0.092065  -0.040054  3.877815  -0.022
C  C31  1  0.31214122  0.18166007  0.60456846  1  0.118928  -0.01826  3.90461  -0.01  0.132836  -0.007598  3.912142  -0.004  0.052815  0.110413  -0.019444  3.898651  -0.01
C  C32  1  0.79449054  0.77900704  0.42148361  1  -0.125935  0.001528  3.985054  0.007  -0.131891  0.004906  3.996472  0.01  -0.084251  -0.122623  -0.001585  3.976065  0.004
C  C33  1  0.19756516  0.23160835  0.57601491  1  -0.126591  0.001422  3.9816  0.005  -0.13367  0.001732  3.996025  0.003  -0.083899  -0.123168  -0.00044  3.972098  0.004
C  C34  1  0.85450650  0.69918891  0.32456069  1  -0.080872  -0.050081  3.932328  -0.029  -0.068706  -0.037321  3.939333  -0.022  -0.072886  -0.086598  -0.049771  3.925325  -0.029
C  C35  1  0.13950668  0.30721830  0.67666267  1  -0.067788  -0.024837  3.924437  -0.014  -0.05739  -0.00874  3.933993  -0.005  -0.066341  -0.073464  -0.03158  3.917231  -0.018
C  C36  1  0.79865161  0.66773572  0.19244199  1  0.052354  0.001828  4.032189  0.007  0.049125  0.003388  4.051443  0.008  0.00132  0.053799  0.000168  4.018379  0.006
C  C37  1  0.19670871  0.33233256  0.80660015  1  0.049292  0.001447  4.020735  0.005  0.045699  0.001246  4.041907  0.003  0.000283  0.050834  0.000649  4.006822  0.005
C  C38  1  0.68327368  0.71965615  0.16737907  1  0.10697  -0.030891  4.008309  -0.018  0.115138  -0.023939  4.024655  -0.015  0.10668  0.102559  -0.030477  3.995636  -0.018
C  C39  1  0.31124059  0.27687753  0.82667502  1  0.117008  -0.014819  3.996131  -0.008  0.124035  -0.005278  4.013815  -0.003  0.112057  0.112448  -0.019271  3.983797  -0.01
C  C40  1  0.62562810  0.69830411  0.03900315  1  0.114631  -0.005461  4.018447  0.0  0.121935  0.000632  4.035269  0.005  0.112707  0.109703  -0.008162  4.006479  -0.002
C  C41  1  0.37146882  0.29698797  0.95594012  1  0.12416  -0.00546  3.995219  -0.001  0.130261  0.000806  4.014792  0.002  0.116176  0.119305  -0.011194  3.983518  -0.004
C  C42  1  0.68045453  0.62354053  0.93150589  1  0.049545  -0.004293  4.026591  -0.002  0.045951  -0.006313  4.04831  -0.004  0.001167  0.051747  -0.003665  4.012536  -0.001
C  C43  1  0.31740148  0.37276120  0.06420264  1  0.047723  0.000242  4.022452  0.002  0.044012  -0.000869  4.045103  0.0  0.001279  0.050031  0.00046  4.008183  0.004
C  C44  1  0.79375822  0.56694389  0.95698561  1  -0.120392  0.002799  3.973652  0.005  -0.120024  0.004105  3.9887  0.006  -0.081124  -0.121105  0.001472  3.963961  0.003
C  C45  1  0.20362571  0.42988332  0.04156273  1  -0.125738  0.002152  3.991484  0.002  -0.125817  0.001844  4.007632  0.002  -0.0825  -0.125755  0.001866  3.981001  0.001
C  C46  1  0.85038501  0.58865254  0.08197086  1  -0.110759  -0.007189  3.964458  -0.004  -0.111445  -0.008154  3.981828  -0.005  -0.079384  -0.109589  -0.006195  3.952786  -0.004
C  C47  1  0.14546970  0.40989012  0.91779408  1  -0.107819  -0.001002  3.970152  -0.001  -0.109018  -0.001347  3.98866  -0.001  -0.078695  -0.106515  0.000729  3.957979  0.001
C  C48  1  0.61933804  0.61256978  0.80824447  1  -0.070419  7.4e-05  3.92199  0.001  -0.063634  0.00427  3.935694  0.006  -0.064303  -0.075624  -0.001997  3.913575  0.0
C  C49  1  0.37959895  0.38632762  0.18842269  1  -0.068855  -0.008872  3.926363  -0.005  -0.062557  0.00102  3.941059  0.002  -0.064671  -0.074433  -0.017993  3.918171  -0.01
C  C50  1  0.51214690  0.67544450  0.79878506  1  -0.127313  -0.009702  3.99047  -0.005  -0.132539  -0.009623  4.005978  -0.006  -0.081912  -0.124444  -0.010489  3.981468  -0.006
C  C51  1  0.48857048  0.32626394  0.19989421  1  -0.127974  -0.001347  3.995726  0.001  -0.134289  -0.001981  4.012858  0.0  -0.082177  -0.124479  -0.002269  3.985814  0.002
C  C52  1  0.46375988  0.74746427  0.91040627  1  0.122254  0.002353  3.885794  0.006  0.136733  0.004991  3.892152  0.009  0.061025  0.111924  0.001998  3.882291  0.006
C  C53  1  0.53607903  0.25349075  0.08802340  1  0.126195  -0.003898  3.908348  -0.001  0.140131  0.001798  3.916277  0.003  0.060133  0.116145  -0.008569  3.904899  -0.003
C  C54  1  0.97222568  0.38517008  0.37142725  1  -0.099198  -0.000116  3.974074  0.001  -0.100832  -9.3e-05  3.993954  0.0  -0.084789  -0.097847  -0.000376  3.960143  0.001
C  C55  1  0.01950502  0.61588475  0.62559548  1  -0.095029  -0.001715  3.975411  -0.001  -0.096078  -0.000413  3.996048  0.0  -0.084264  -0.093907  -0.002409  3.96147  -0.001
C  C56  1  0.85004150  0.34928288  0.43970388  1  -0.036944  -0.002586  3.990673  -0.001  -0.041136  -0.000486  4.011453  0.001  -0.01625  -0.033755  -0.003512  3.976328  -0.001
C  C57  1  0.14211636  0.65179909  0.55762914  1  -0.03584  -0.00098  3.995505  0.001  -0.041929  -0.000243  4.017396  0.0  -0.016985  -0.03261  -0.001704  3.981642  0.0
C  C58  1  0.87528473  0.46702798  0.56687454  1  -0.11042  9e-06  4.013662  0.001  -0.112637  -2.5e-05  4.034148  0.0  -0.088181  -0.10919  -0.000619  3.999586  0.0
C  C59  1  0.11649713  0.53491326  0.42979546  1  -0.110556  -0.001824  3.998532  -0.001  -0.111505  -0.000431  4.018112  0.0  -0.088058  -0.109872  -0.002931  3.98516  -0.001
C  C60  1  0.69621548  0.18685007  0.38224085  1  0.573723  -0.002653  4.217083  -0.001  0.607265  -0.001832  4.212273  0.0  0.206533  0.550213  -0.002464  4.219239  -0.001
C  C61  1  0.29485508  0.81377441  0.62198636  1  0.574378  -0.009154  4.204347  -0.005  0.608983  -0.004031  4.19712  -0.002  0.20384  0.550616  -0.010571  4.206958  -0.007
C  C62  1  0.20915715  0.94245340  0.16756299  1  0.585272  -0.002548  4.156545  -0.001  0.620588  -0.002676  4.153188  -0.001  0.21422  0.560446  -0.002183  4.158776  -0.001
C  C63  1  0.80213349  0.05021856  0.83724560  1  0.592377  -0.000339  4.192653  0.001  0.626335  -0.001236  4.190212  0.0  0.209972  0.569209  0.001117  4.192605  0.003
C  C64  1  0.10521021  0.97187075  0.08310468  1  -0.044827  -0.003127  4.01272  -0.002  -0.052787  -0.002176  4.038577  -0.001  -0.019687  -0.038907  -0.003751  3.994695  -0.002
C  C65  1  0.90546725  0.02133459  0.92281674  1  -0.042781  0.001142  4.010029  0.002  -0.049709  0.000851  4.034541  0.002  -0.019968  -0.038949  0.001292  3.994149  0.002
C  C66  1  0.11896616  0.94652783  0.95460827  1  -0.105815  0.000149  3.994486  0.001  -0.107472  6.6e-05  4.016677  0.0  -0.090639  -0.104571  0.000142  3.979558  0.001
C  C67  1  0.89101658  0.04618609  0.05122170  1  -0.10554  -0.000362  3.987733  0.0  -0.107424  -0.000318  4.008963  0.0  -0.089559  -0.10405  -0.000213  3.973801  0.0
C  C68  1  0.99037960  0.02212950  0.13113629  1  -0.102527  -0.000757  3.991329  0.0  -0.105355  -0.000303  4.01483  0.0  -0.086911  -0.101022  -0.001157  3.976075  -0.001
C  C69  1  0.02023989  0.97134424  0.87509796  1  -0.102293  -0.000684  3.997506  0.0  -0.105422  -0.000311  4.020862  0.0  -0.087717  -0.10015  -0.000726  3.982621  0.0
N  N70  1  0.62212328  0.79657977  0.26304773  1  -0.266541  -0.040688  3.665485  -0.026  -0.284991  -0.02379  3.676755  -0.011  -0.356674  -0.252144  -0.047142  3.654566  -0.033
N  N71  1  0.36807108  0.20287028  0.72667895  1  -0.30863  0.018066  3.567108  0.032  -0.322416  0.01635  3.573806  0.027  -0.333982  -0.296729  0.019579  3.557724  0.034
N  N72  1  0.51778885  0.75766164  0.02857567  1  -0.25763  -0.013214  3.601262  -0.017  -0.27668  -0.010281  3.609872  -0.015  -0.340238  -0.243381  -0.011577  3.594158  -0.016
N  N73  1  0.47993415  0.23983428  0.96915009  1  -0.294545  0.025233  3.561528  0.032  -0.310879  0.01997  3.571203  0.023  -0.333265  -0.282848  0.028583  3.556743  0.039
O  O74  1  0.66777944  0.08934578  0.26064969  1  -0.532618  0.02592  2.328516  0.043  -0.56737  0.020015  2.323047  0.032  -0.301321  -0.504886  0.031397  2.329925  0.052
O  O75  1  0.31990183  0.90265281  0.74539876  1  -0.5551  0.028083  2.347017  0.048  -0.585784  0.02314  2.331818  0.035  -0.307567  -0.528458  0.034077  2.351268  0.06
O  O76  1  0.60178585  0.15151381  0.45477488  1  -0.573354  -0.000303  2.238079  0.001  -0.597067  -0.000347  2.226983  0.0  -0.31275  -0.555881  0.001062  2.244943  0.003
O  O77  1  0.39620342  0.86387874  0.55783757  1  -0.573852  0.008393  2.223664  0.016  -0.598542  0.006589  2.21499  0.013  -0.30748  -0.554452  0.010984  2.228498  0.02
O  O78  1  0.31374335  0.89846127  0.11601435  1  -0.530477  -0.013652  2.393223  -0.013  -0.569672  -0.012696  2.387792  -0.012  -0.31438  -0.503051  -0.012296  2.397811  -0.012
O  O79  1  0.69653687  0.09320492  0.88602013  1  -0.578497  0.032016  2.344632  0.05  -0.616157  0.022977  2.342129  0.036  -0.328768  -0.549488  0.040251  2.344995  0.063
O  O80  1  0.18808174  0.95811961  0.28066412  1  -0.543505  0.001206  2.206582  0.004  -0.571747  0.000575  2.199528  0.002  -0.304185  -0.524622  0.0018  2.211389  0.005
O  O81  1  0.82484918  0.03449694  0.72436841  1  -0.563672  0.00131  2.192878  0.004  -0.592556  0.000745  2.18691  0.003  -0.310883  -0.542632  0.002572  2.195601  0.006
O  O82  1  0.32098293  0.79338611  0.30710563  1  -0.764019  0.01424  2.249441  0.015  -0.799405  0.011242  2.219266  0.01  -0.575882  -0.737727  0.018358  2.270426  0.021
O  O83  1  0.70279319  0.21306919  0.69816763  1  -0.793193  0.035854  2.169057  0.048  -0.823035  0.02957  2.133887  0.036  -0.586207  -0.770376  0.041544  2.19338  0.059
