# generated using pymatgen
data_NiH12C15NO4
_symmetry_space_group_name_H-M   'P 1'
_cell_length_a   9.53919345
_cell_length_b   18.33948971
_cell_length_c   18.52365485
_cell_angle_alpha   89.99998386
_cell_angle_beta   89.99976381
_cell_angle_gamma   97.44049747
_symmetry_Int_Tables_number   1
_chemical_formula_structural   NiH12C15NO4
_chemical_formula_sum   'Ni4 H48 C60 N4 O16'
_cell_volume   3213.31491266
_cell_formula_units_Z   4
loop_
 _symmetry_equiv_pos_site_id
 _symmetry_equiv_pos_as_xyz
  1  'x, y, z'
loop_
 _atom_site_type_symbol
 _atom_site_label
 _atom_site_symmetry_multiplicity
 _atom_site_fract_x
 _atom_site_fract_y
 _atom_site_fract_z
 _atom_site_occupancy
 _atom_site_pbe_bader_charge
 _atom_site_pbe_bader_spin_density
 _atom_site_pbe_cm5_charge
 _atom_site_pbe_ddec_charge
 _atom_site_pbe_ddec_spin_density
 _atom_site_pbe_ddec_sum_bond_order
 _atom_site_pbe_magmom
Ni  Ni0  1  0.60428442  0.25008746  0.25000020  1  1.037212  0.369046  0.581834  0.636639  0.412338  2.903115  0.369
Ni  Ni1  1  0.39576301  0.74994040  0.75000049  1  1.0375  0.368561  0.582073  0.636689  0.411798  2.903747  0.369
Ni  Ni2  1  0.34946982  0.24776665  0.25000101  1  1.013916  1.306076  0.549968  0.597995  1.431209  2.66921  1.298
Ni  Ni3  1  0.65057836  0.75225025  0.75000022  1  1.013841  1.3065  0.550112  0.59788  1.431758  2.669105  1.298
H  H4  1  0.67825922  0.10670193  0.07513887  1  0.075294  -4e-06  0.106464  0.111321  6e-06  1.008384  0.0
H  H5  1  0.32172877  0.89331129  0.57514467  1  0.075176  -4e-06  0.106382  0.111221  6e-06  1.00849  0.0
H  H6  1  0.32172933  0.89331555  0.92485373  1  0.075215  -4e-06  0.106399  0.111246  6e-06  1.008485  0.0
H  H7  1  0.67825706  0.10669848  0.42485873  1  0.075315  -3e-06  0.106437  0.111343  6e-06  1.008361  0.0
H  H8  1  0.74213160  0.44703049  0.13403210  1  0.076968  1e-06  0.104089  0.107942  1e-05  1.005583  0.0
H  H9  1  0.25785503  0.55297389  0.63408672  1  0.076479  1e-06  0.104101  0.108046  1e-05  1.005463  0.0
H  H10  1  0.25785422  0.55297928  0.86591731  1  0.076527  1e-06  0.104084  0.108  1e-05  1.00549  0.0
H  H11  1  0.74213418  0.44703701  0.36596419  1  0.076841  1e-06  0.104103  0.107984  1e-05  1.005491  0.0
H  H12  1  0.79122678  0.03488399  0.98254392  1  0.047442  -3.8e-05  0.102525  0.103504  -3.1e-05  0.994275  0.0
H  H13  1  0.20876532  0.96508615  0.48249297  1  0.047809  -3.8e-05  0.102499  0.103518  -3.1e-05  0.994291  0.0
H  H14  1  0.20876550  0.96508797  0.01750914  1  0.047864  -3.8e-05  0.102529  0.10357  -3.1e-05  0.99422  0.0
H  H15  1  0.79122705  0.03488142  0.51745482  1  0.047488  -3.8e-05  0.102477  0.103423  -3.1e-05  0.99426  0.0
H  H16  1  0.14139478  0.35519724  0.29777257  1  0.064559  0.000762  0.10744  0.096066  0.000248  0.982452  0.0
H  H17  1  0.85861029  0.64479675  0.79777623  1  0.064366  0.000763  0.107444  0.096098  0.000248  0.982323  0.0
H  H18  1  0.85860987  0.64479788  0.70222381  1  0.064487  0.000763  0.107444  0.09609  0.000248  0.982341  0.0
H  H19  1  0.14139656  0.35519400  0.20222069  1  0.064515  0.000763  0.107409  0.096023  0.000248  0.982338  0.0
H  H20  1  0.89220401  0.35549433  0.20212219  1  0.053117  0.00069  0.104675  0.087035  0.000258  0.987039  0.0
H  H21  1  0.10780773  0.64450747  0.70212473  1  0.053533  0.00069  0.104668  0.087012  0.000258  0.987059  0.0
H  H22  1  0.10780803  0.64450579  0.79787041  1  0.053616  0.00069  0.104623  0.086985  0.000258  0.987203  0.0
H  H23  1  0.89220316  0.35549703  0.29786679  1  0.053358  0.00069  0.104603  0.086952  0.000258  0.987245  0.0
H  H24  1  0.32068715  0.38116980  0.05589732  1  0.082071  0.000156  0.10618  0.111468  0.000121  1.00172  0.0
H  H25  1  0.67930919  0.61880399  0.55594347  1  0.083223  0.000156  0.106198  0.111647  0.000121  1.001683  0.0
H  H26  1  0.67931167  0.61880331  0.94405425  1  0.083173  0.000156  0.106172  0.111605  0.000121  1.001747  0.0
H  H27  1  0.32069521  0.38116588  0.44410365  1  0.082137  0.000156  0.106166  0.111487  0.000121  1.001631  0.0
H  H28  1  0.23039652  0.06392126  0.11085692  1  0.099699  0.000187  0.103842  0.108349  0.000162  1.008944  0.0
H  H29  1  0.76961028  0.93606410  0.61081587  1  0.099031  0.000187  0.103868  0.108375  0.000162  1.008938  0.0
H  H30  1  0.76961138  0.93606949  0.88917887  1  0.098785  0.000187  0.103849  0.108358  0.000162  1.008977  0.0
H  H31  1  0.23039384  0.06391894  0.38914487  1  0.099905  0.000187  0.103821  0.108338  0.000162  1.008922  0.0
H  H32  1  0.77365439  0.55066440  0.04595224  1  0.058927  8.7e-05  0.103251  0.10399  3.7e-05  0.993747  0.0
H  H33  1  0.22632597  0.44931749  0.54603395  1  0.058442  8.7e-05  0.103255  0.104041  3.7e-05  0.993929  0.0
H  H34  1  0.22632698  0.44932009  0.95396802  1  0.058514  8.7e-05  0.103248  0.104033  3.7e-05  0.993926  0.0
H  H35  1  0.77365063  0.55066915  0.45404719  1  0.058809  8.7e-05  0.103264  0.103993  3.7e-05  0.993804  0.0
H  H36  1  0.11202774  0.24122335  0.13755531  1  0.046962  0.000813  0.108546  0.095326  0.000244  0.966462  0.0
H  H37  1  0.88797251  0.75875700  0.63755564  1  0.047313  0.000812  0.108653  0.095529  0.000243  0.966381  0.0
H  H38  1  0.88796969  0.75875305  0.86244430  1  0.04725  0.000812  0.108632  0.095508  0.000243  0.966357  0.0
H  H39  1  0.11202651  0.24123148  0.36244452  1  0.046761  0.000812  0.1086  0.09536  0.000244  0.966486  0.0
H  H40  1  0.08938231  0.15694174  0.18503680  1  0.058123  0.000764  0.107211  0.093341  0.00023  0.985896  0.0
H  H41  1  0.91060136  0.84304611  0.68502464  1  0.057474  0.000765  0.107222  0.093454  0.00023  0.985647  0.0
H  H42  1  0.91059954  0.84304495  0.81497793  1  0.05751  0.000765  0.107229  0.093485  0.00023  0.985665  0.0
H  H43  1  0.08937865  0.15694660  0.31496958  1  0.057465  0.000764  0.107253  0.093369  0.00023  0.985682  0.0
H  H44  1  0.84168333  0.15762041  0.18534156  1  0.022744  0.000667  0.106234  0.090282  0.000246  0.983659  0.0
H  H45  1  0.15830472  0.84237791  0.68533692  1  0.022817  0.000667  0.106252  0.090233  0.000246  0.983677  0.0
H  H46  1  0.15830488  0.84237621  0.81466561  1  0.022676  0.000667  0.106217  0.090107  0.000246  0.983748  0.0
H  H47  1  0.84168027  0.15762801  0.31466755  1  0.021781  0.000667  0.106234  0.09023  0.000246  0.983788  0.0
H  H48  1  0.86272683  0.24196508  0.13766249  1  0.042342  0.000736  0.106951  0.090932  0.000268  0.967273  0.0
H  H49  1  0.13727887  0.75803067  0.63766332  1  0.042571  0.000736  0.106978  0.090989  0.000268  0.96715  0.0
H  H50  1  0.13727464  0.75802507  0.86233712  1  0.042585  0.000736  0.107001  0.090986  0.000268  0.967055  0.0
H  H51  1  0.86272691  0.24197927  0.36233684  1  0.042587  0.000736  0.107032  0.091015  0.000268  0.967082  0.0
C  C52  1  0.46262194  0.14970487  0.15403659  1  1.515872  -0.00166  0.216625  0.554982  -0.004009  4.150451  -0.002
C  C53  1  0.53739706  0.85031403  0.65403816  1  1.516517  -0.001659  0.216445  0.554426  -0.004009  4.150823  -0.002
C  C54  1  0.53739815  0.85031781  0.84595925  1  1.516339  -0.001659  0.216494  0.55459  -0.004009  4.150655  -0.002
C  C55  1  0.46261671  0.14970366  0.34596577  1  1.515899  -0.001661  0.216577  0.55485  -0.00401  4.150675  -0.002
C  C56  1  0.45614039  0.09078442  0.09812863  1  -0.028859  -0.000751  -0.015276  -0.018937  -0.00119  3.989396  -0.001
C  C57  1  0.54384366  0.90922600  0.59812316  1  -0.028525  -0.000745  -0.015467  -0.019067  -0.001183  3.989556  -0.001
C  C58  1  0.54384732  0.90922921  0.90187369  1  -0.028925  -0.000745  -0.015434  -0.019039  -0.001183  3.989352  -0.001
C  C59  1  0.45613797  0.09078374  0.40187160  1  -0.028908  -0.00075  -0.015318  -0.018899  -0.00119  3.989253  -0.001
C  C60  1  0.57614514  0.07551304  0.06215342  1  -0.025293  -0.000102  -0.07855  -0.14052  -0.000474  3.93046  0.0
C  C61  1  0.42383651  0.92449464  0.56215576  1  -0.025716  -0.000104  -0.078338  -0.140324  -0.000476  3.929992  0.0
C  C62  1  0.42383859  0.92449671  0.93784296  1  -0.02537  -0.000104  -0.078377  -0.140385  -0.000475  3.929866  0.0
C  C63  1  0.57614638  0.07551126  0.43784494  1  -0.025623  -0.000102  -0.078515  -0.140574  -0.000473  3.930355  0.0
C  C64  1  0.65829157  0.45592155  0.09636899  1  -0.028484  0.000916  -0.088605  -0.104361  0.000479  4.005711  0.001
C  C65  1  0.34169463  0.54407462  0.59642074  1  -0.024737  0.000915  -0.088618  -0.104423  0.000479  4.005596  0.001
C  C66  1  0.34169537  0.54407890  0.90358150  1  -0.024551  0.000915  -0.088619  -0.104404  0.000479  4.005715  0.001
C  C67  1  0.65829558  0.45592641  0.40363017  1  -0.028497  0.000917  -0.088577  -0.104384  0.000479  4.005818  0.001
C  C68  1  0.68862984  0.00377437  0.97009455  1  0.017264  -0.000181  -0.090781  -0.136122  -0.000303  4.009859  0.0
C  C69  1  0.31137135  0.99621780  0.47007307  1  0.01662  -0.000181  -0.090696  -0.136152  -0.000303  4.010466  0.0
C  C70  1  0.31137155  0.99622017  0.02992720  1  0.016642  -0.00018  -0.090729  -0.136206  -0.000303  4.010393  0.0
C  C71  1  0.68862755  0.00377013  0.52990388  1  0.017573  -0.00018  -0.0907  -0.135926  -0.000303  4.009959  0.0
C  C72  1  0.56756623  0.02035690  0.00833523  1  -0.032104  3.8e-05  -0.004557  0.07856  -0.000109  4.003765  0.0
C  C73  1  0.43241037  0.97964968  0.50832457  1  0.026222  3.8e-05  -0.004536  0.078541  -0.000109  4.003842  0.0
C  C74  1  0.43240991  0.97965169  0.99167411  1  0.02578  3.8e-05  -0.004551  0.078525  -0.000109  4.003741  0.0
C  C75  1  0.56756678  0.02035398  0.49166371  1  -0.032464  3.7e-05  -0.004631  0.078407  -0.000109  4.0039  0.0
C  C76  1  0.50720556  0.34792185  0.15383515  1  1.543621  -0.001439  0.217627  0.557511  -0.003854  4.145007  -0.002
C  C77  1  0.49279961  0.65208651  0.65385415  1  1.543758  -0.001444  0.217366  0.556749  -0.003856  4.145536  -0.002
C  C78  1  0.49280070  0.65209029  0.84614935  1  1.543978  -0.001444  0.217329  0.556781  -0.003857  4.145498  -0.002
C  C79  1  0.50721575  0.34792406  0.34616706  1  1.543875  -0.001441  0.217653  0.557484  -0.003854  4.14511  -0.002
C  C80  1  0.52875075  0.40818677  0.09936368  1  -0.020886  -0.000539  -0.014681  -0.017892  -0.000987  3.98998  -0.001
C  C81  1  0.47122927  0.59181484  0.59940272  1  -0.024027  -0.000529  -0.014624  -0.017482  -0.000978  3.990097  -0.001
C  C82  1  0.47122932  0.59181582  0.90059922  1  -0.024085  -0.00053  -0.014569  -0.017404  -0.000979  3.99015  -0.001
C  C83  1  0.52875839  0.40818891  0.40063630  1  -0.020873  -0.00054  -0.014752  -0.017953  -0.000988  3.990047  -0.001
C  C84  1  0.41954241  0.41824292  0.05268564  1  -0.039891  0.0004  -0.077772  -0.139649  4e-06  3.933235  0.0
C  C85  1  0.58045064  0.58174456  0.55272878  1  -0.040499  0.0004  -0.077833  -0.140081  4e-06  3.933148  0.0
C  C86  1  0.58045322  0.58174443  0.94727079  1  -0.040496  0.0004  -0.077788  -0.140036  4e-06  3.933365  0.0
C  C87  1  0.41954381  0.41824223  0.44731511  1  -0.039896  0.000402  -0.077712  -0.139557  6e-06  3.932888  0.0
C  C88  1  0.32261393  0.05055099  0.08151056  1  -0.089456  0.00034  -0.088464  -0.10085  0.000149  4.005811  0.0
C  C89  1  0.67738047  0.94944856  0.58148644  1  -0.089104  0.000339  -0.088364  -0.100812  0.000149  4.005923  0.0
C  C90  1  0.67738295  0.94945175  0.91851119  1  -0.088736  0.00034  -0.088401  -0.100844  0.000149  4.005869  0.0
C  C91  1  0.32261161  0.05055139  0.41849158  1  -0.089628  0.000339  -0.088407  -0.100806  0.000148  4.005721  0.0
C  C92  1  0.67519060  0.51301511  0.04763452  1  -0.0623  0.000193  -0.089786  -0.133936  3.8e-05  4.004981  0.0
C  C93  1  0.32477621  0.48696721  0.54769820  1  -0.061105  0.000194  -0.089856  -0.134288  3.9e-05  4.005104  0.0
C  C94  1  0.32477817  0.48696927  0.95230247  1  -0.061804  0.000193  -0.089795  -0.134271  3.8e-05  4.005173  0.0
C  C95  1  0.67519337  0.51301607  0.45236404  1  -0.062203  0.000192  -0.089825  -0.133954  3.8e-05  4.005069  0.0
C  C96  1  0.43471870  0.47561035  0.00121899  1  0.038133  -3.3e-05  -0.004805  0.078733  -0.000146  4.004925  0.0
C  C97  1  0.56525476  0.52436712  0.50127837  1  -0.016262  -3.2e-05  -0.005163  0.078249  -0.000145  4.005273  0.0
C  C98  1  0.56525796  0.52436696  0.99872124  1  -0.016283  -3.3e-05  -0.005193  0.078214  -0.000146  4.005288  0.0
C  C99  1  0.43472202  0.47561074  0.49878117  1  0.037663  -3.3e-05  -0.004787  0.078659  -0.000146  4.004949  0.0
C  C100  1  0.06114932  0.21303190  0.18487379  1  0.256367  0.001835  -0.07105  -0.094157  0.000822  3.837684  0.0
C  C101  1  0.93885246  0.78695721  0.68487076  1  0.256609  0.00183  -0.071187  -0.094628  0.000819  3.837848  0.0
C  C102  1  0.93885249  0.78695496  0.81513069  1  0.256638  0.001831  -0.071129  -0.094627  0.00082  3.837817  0.0
C  C103  1  0.06115010  0.21303789  0.31512832  1  0.257219  0.001834  -0.071194  -0.094324  0.000822  3.837706  0.0
C  C104  1  0.89856720  0.21360799  0.18516982  1  0.279082  0.004244  -0.071344  -0.091528  0.002498  3.861023  0.003
C  C105  1  0.10143006  0.78638931  0.68516856  1  0.278764  0.004245  -0.071379  -0.091397  0.002498  3.861043  0.003
C  C106  1  0.10142776  0.78638595  0.81483088  1  0.279048  0.004244  -0.071321  -0.091159  0.002498  3.860911  0.003
C  C107  1  0.89856997  0.21361345  0.31483160  1  0.279723  0.004243  -0.071379  -0.09146  0.002497  3.86093  0.003
C  C108  1  0.09114451  0.32773673  0.24999966  1  0.2497  0.0023  -0.071995  -0.09515  0.00125  3.819844  0.001
C  C109  1  0.90886330  0.67225841  0.74999834  1  0.249726  0.002299  -0.072174  -0.095397  0.00125  3.819846  0.001
C  C110  1  0.92792136  0.32773766  0.24999607  1  0.247351  0.00462  -0.069439  -0.087719  0.002732  3.847798  0.003
C  C111  1  0.07208227  0.67226238  0.74999868  1  0.246683  0.004623  -0.069384  -0.087623  0.002734  3.847715  0.003
N  N112  1  0.85471927  0.25168411  0.24999994  1  -0.949487  0.030694  -0.329856  -0.101615  0.017487  3.416212  0.027
N  N113  1  0.14527958  0.74831809  0.75000022  1  -0.949673  0.030664  -0.329886  -0.101754  0.017468  3.416029  0.027
N  N114  1  0.12521058  0.25090485  0.24999963  1  -0.949785  0.062615  -0.336022  -0.081173  0.035128  3.448805  0.056
N  N115  1  0.87479209  0.74909080  0.75000053  1  -0.94958  0.062638  -0.336009  -0.08113  0.035141  3.448915  0.057
O  O116  1  0.38155086  0.32470075  0.17242826  1  -1.127855  0.047266  -0.295561  -0.497143  0.025788  2.404316  0.044
O  O117  1  0.61848284  0.67530455  0.67244106  1  -1.128127  0.047313  -0.295534  -0.496813  0.025815  2.403925  0.044
O  O118  1  0.61848349  0.67530560  0.82756109  1  -1.128159  0.04732  -0.295511  -0.496871  0.025819  2.403984  0.044
O  O119  1  0.38155445  0.32470566  0.32756935  1  -1.127853  0.047264  -0.295558  -0.497219  0.025788  2.404345  0.044
O  O120  1  0.58597405  0.17610953  0.17734395  1  -1.07239  0.004542  -0.288397  -0.468461  0.001664  2.427707  0.005
O  O121  1  0.41404802  0.82390994  0.67735011  1  -1.072877  0.004512  -0.28834  -0.467988  0.001645  2.428031  0.005
O  O122  1  0.41405132  0.82391814  0.82264379  1  -1.072899  0.004523  -0.288395  -0.4681  0.001652  2.428071  0.005
O  O123  1  0.58597799  0.17610622  0.32265490  1  -1.072322  0.004531  -0.288401  -0.468423  0.001657  2.427408  0.005
O  O124  1  0.34642364  0.16932307  0.17445816  1  -1.111584  0.048247  -0.294131  -0.493445  0.026267  2.42414  0.045
O  O125  1  0.65359882  0.83069805  0.67445464  1  -1.111518  0.048259  -0.29411  -0.493288  0.026273  2.423871  0.045
O  O126  1  0.65360437  0.83069749  0.82554739  1  -1.111292  0.048261  -0.294121  -0.493356  0.026274  2.423704  0.045
O  O127  1  0.34643145  0.16932802  0.32554660  1  -1.111654  0.048243  -0.294085  -0.493363  0.026265  2.424475  0.045
O  O128  1  0.61992120  0.32461159  0.17817472  1  -1.065753  0.004186  -0.289931  -0.466332  0.001479  2.409346  0.005
O  O129  1  0.38010852  0.67541892  0.67819180  1  -1.066174  0.004182  -0.289806  -0.466108  0.001478  2.409977  0.005
O  O130  1  0.38011134  0.67542493  0.82181410  1  -1.066338  0.004171  -0.289845  -0.466142  0.001471  2.40997  0.005
O  O131  1  0.61992514  0.32460827  0.32182618  1  -1.065865  0.004199  -0.289925  -0.466246  0.001488  2.409395  0.005
