# generated using pymatgen
data_Zr6H15C52S10O32F5
_symmetry_space_group_name_H-M   'P 1'
_cell_length_a   16.46396474
_cell_length_b   16.45391729
_cell_length_c   16.52058844
_cell_angle_alpha   61.75634784
_cell_angle_beta   59.84175212
_cell_angle_gamma   60.25060900
_symmetry_Int_Tables_number   1
_chemical_formula_structural   Zr6H15C52S10O32F5
_chemical_formula_sum   'Zr6 H15 C52 S10 O32 F5'
_cell_volume   3206.63576857
_cell_formula_units_Z   1
loop_
 _symmetry_equiv_pos_site_id
 _symmetry_equiv_pos_as_xyz
  1  'x, y, z'
loop_
 _atom_site_type_symbol
 _atom_site_label
 _atom_site_symmetry_multiplicity
 _atom_site_fract_x
 _atom_site_fract_y
 _atom_site_fract_z
 _atom_site_occupancy
 _atom_site_pbe_bader_charge
 _atom_site_pbe_bader_spin_density
 _atom_site_pbe_cm5_charge
 _atom_site_pbe_ddec_charge
 _atom_site_pbe_ddec_spin_density
 _atom_site_pbe_ddec_sum_bond_order
 _atom_site_pbe_magmom
Zr  Zr0  1  0.88774861  0.90253175  0.59756133  1  2.636575  0  1.629487  2.373944  0  2.781806  0
Zr  Zr1  1  0.11173903  0.10180893  0.39835426  1  2.637477  0  1.631193  2.376244  0  2.774014  0
Zr  Zr2  1  0.10203561  0.89288158  0.60756933  1  2.636327  0  1.624031  2.380145  0  2.728673  0
Zr  Zr3  1  0.89744154  0.11144060  0.38914872  1  2.634226  0  1.618829  2.375243  0  2.737782  0
Zr  Zr4  1  0.10887770  0.89283207  0.38921894  1  2.63919  0  1.619674  2.378333  0  2.727597  0
Zr  Zr5  1  0.89054741  0.11097435  0.60759464  1  2.639455  0  1.62  2.378334  0  2.728451  0
H  H6  1  0.07747261  0.75210181  0.57716044  1  0.587622  0  0.331736  0.424643  0  0.854678  0
H  H7  1  0.09271253  0.08133358  0.24816267  1  0.628498  0  0.331557  0.424739  0  0.854536  0
H  H8  1  0.08328702  0.08108641  0.59014321  1  0.606932  0  0.331126  0.425072  0  0.85332  0
H  H9  1  0.74486652  0.09403086  0.57720556  1  0.596005  0  0.330834  0.42463  0  0.85299  0
H  H10  1  0.12551932  0.61144333  0.36208187  1  0.126583  0  0.12356  0.149994  0  0.967433  0
H  H11  1  0.61054742  0.12647107  0.89984770  1  0.12066  0  0.123408  0.149555  0  0.966955  0
H  H12  1  0.86810182  0.12459172  0.11803466  1  0.117986  0  0.121337  0.146843  0  0.970614  0
H  H13  1  0.62234521  0.39450515  0.36455836  1  0.10659  0  0.121454  0.147219  0  0.969814  0
H  H14  1  0.10124339  0.63606948  0.87097573  1  0.094836  0  0.112688  0.12236  0  0.989428  0
H  H15  1  0.84135840  0.65499498  0.85162866  1  0.068592  0  0.107109  0.113756  0  1.002703  0
H  H16  1  0.82741087  0.50739179  0.99830786  1  0.058786  0  0.104555  0.105827  0  0.989858  0
H  H17  1  0.89114483  0.37503832  0.13172584  1  0.066907  0  0.108819  0.115882  0  0.99646  0
H  H18  1  0.15110418  0.35574419  0.15112648  1  0.087886  0  0.107979  0.114728  0  1.001309  0
H  H19  1  0.16597023  0.50255631  0.00349194  1  0.063072  0  0.106954  0.109162  0  0.986899  0
H  H20  1  0.62163608  0.87592622  0.61048154  1  0.111786  0  0.122927  0.149418  0  0.968707  0
C  C21  1  0.99409317  0.73899343  0.48432098  1  1.593646  0  0.22599  0.643776  0  4.157827  0
C  C22  1  0.28190254  0.98740742  0.23547448  1  1.564152  0  0.223758  0.664005  0  4.153388  0
C  C23  1  0.99737100  0.27215298  0.50513272  1  1.576527  0  0.224487  0.662895  0  4.153348  0
C  C24  1  0.72435437  0.00832595  0.76842531  1  1.580062  0  0.226838  0.643964  0  4.158139  0
C  C25  1  0.98042440  0.74041400  0.76575701  1  1.533763  0  0.235861  0.641249  0  4.095558  0
C  C26  1  0.73107164  0.00673630  0.48590760  1  1.583067  0  0.225704  0.64405  0  4.158824  0
C  C27  1  0.01241631  0.26995085  0.23635751  1  1.540666  0  0.235429  0.64156  0  4.095447  0
C  C28  1  0.27574724  0.99082189  0.50172048  1  1.609438  0  0.223336  0.663746  0  4.158222  0
C  C29  1  0.27245285  0.73001848  0.49620381  1  1.560574  0  0.224029  0.663501  0  4.151445  0
C  C30  1  0.99009261  0.99670843  0.77799517  1  1.587941  0  0.223534  0.663546  0  4.150617  0
C  C31  1  0.73415773  0.28149519  0.49368250  1  1.573385  0  0.225595  0.644145  0  4.154091  0
C  C32  1  0.00074007  0.99952212  0.22643691  1  1.589793  0  0.226514  0.644553  0  4.152482  0
C  C33  1  0.92692735  0.42277076  0.56251053  1  0.570065  0  0.101306  0.25124  0  4.086407  0
C  C34  1  0.06177348  0.59257175  0.42347038  1  0.076072  0  -0.087099  -0.133197  0  3.960056  0
C  C35  1  0.99492236  0.36396201  0.50133326  1  -0.082785  0  -0.036178  -0.247895  0  3.97245  0
C  C36  1  0.99319246  0.64940514  0.48601731  1  -0.190549  0  -0.020761  -0.11687  0  3.966449  0
C  C37  1  0.03692315  0.50999289  0.45154872  1  -0.164148  0  -0.019553  0.006683  0  4.084669  0
C  C38  1  0.94967438  0.50627366  0.53521974  1  -0.148809  0  -0.033213  -0.13826  0  4.113015  0
C  C39  1  0.42319361  0.92654904  0.08804674  1  0.564516  0  0.100609  0.250808  0  4.087706  0
C  C40  1  0.58953343  0.06490055  0.91882132  1  0.06576  0  -0.086387  -0.131793  0  3.957949  0
C  C41  1  0.37111079  0.98773037  0.14685930  1  -0.092809  0  -0.036956  -0.250535  0  3.973662  0
C  C42  1  0.63908645  0.00344735  0.86102148  1  -0.175502  0  -0.020342  -0.115227  0  3.963752  0
C  C43  1  0.51084523  0.03618455  0.00197093  1  -0.183009  0  -0.020007  0.005271  0  4.086683  0
C  C44  1  0.50289864  0.95313118  0.00513759  1  -0.119328  0  -0.032688  -0.137185  0  4.112687  0
C  C45  1  0.05667282  0.93006738  0.91703804  1  0.612837  0  0.10094  0.250891  0  4.082147  0
C  C46  1  0.92921584  0.06273040  0.09312473  1  -0.018829  0  -0.087975  -0.132486  0  3.960372  0
C  C47  1  0.99001084  0.99545872  0.86744417  1  -0.138562  0  -0.035725  -0.24677  0  3.961079  0
C  C48  1  0.99752439  0.99689897  0.14021445  1  -0.120758  0  -0.02028  -0.116525  0  3.957272  0
C  C49  1  0.95091355  0.03785340  0.01175429  1  -0.155979  0  -0.020305  0.006496  0  4.085163  0
C  C50  1  0.03567666  0.95310679  0.99913204  1  -0.140989  0  -0.032942  -0.138425  0  4.112901  0
C  C51  1  0.41480201  0.59464725  0.55980417  1  0.571005  0  0.100785  0.25094  0  4.081635  0
C  C52  1  0.59690171  0.41930672  0.42642760  1  0.022285  0  -0.088414  -0.132942  0  3.958344  0
C  C53  1  0.36397631  0.64403907  0.49439145  1  -0.092552  0  -0.035713  -0.246155  0  3.961427  0
C  C54  1  0.64554022  0.37116265  0.49318783  1  -0.125632  0  -0.021002  -0.118186  0  3.957661  0
C  C55  1  0.51281242  0.50109366  0.45092538  1  -0.175503  0  -0.02004  0.00739  0  4.083237  0
C  C56  1  0.49960214  0.51312994  0.53625966  1  -0.114936  0  -0.033239  -0.139832  0  4.111084  0
C  C57  1  0.04182710  0.60708347  0.89986626  1  0.027919  0  -0.072041  -0.128506  0  3.913495  0
C  C58  1  0.89437966  0.61700940  0.88968388  1  -0.054896  0  -0.087134  -0.100042  0  4.000791  0
C  C59  1  0.88700545  0.53582927  0.97044770  1  0.001908  0  -0.087902  -0.13274  0  3.999384  0
C  C60  1  0.95673417  0.48720021  0.01938178  1  -0.027251  0  -0.002384  0.079963  0  3.999662  0
C  C61  1  0.95057946  0.40398872  0.10285385  1  0.049068  0  -0.074559  -0.130777  0  3.924899  0
C  C62  1  0.09804298  0.39386074  0.11307572  1  -0.013676  0  -0.085669  -0.098565  0  3.999598  0
C  C63  1  0.10586521  0.47462839  0.03186763  1  -0.032615  0  -0.085583  -0.130271  0  3.992982  0
C  C64  1  0.03595491  0.52354390  0.98307838  1  -0.06812  0  -0.001346  0.080336  0  3.995504  0
C  C65  1  0.97255537  0.65312685  0.85398518  1  -0.029063  0  -0.018506  -0.041498  0  3.987994  0
C  C66  1  0.01950751  0.35813976  0.14908782  1  -0.041077  0  -0.019147  -0.041864  0  3.990899  0
C  C67  1  0.41765893  0.05656393  0.43052928  1  0.538651  0  0.101475  0.252699  0  4.079376  0
C  C68  1  0.59660217  0.93502490  0.55114460  1  0.12306  0  -0.086077  -0.129985  0  3.954702  0
C  C69  1  0.36703292  0.99050218  0.49715371  1  -0.091345  0  -0.035853  -0.248357  0  3.968321  0
C  C70  1  0.64434816  0.00299170  0.48479745  1  -0.220609  0  -0.022001  -0.117559  0  3.964025  0
C  C71  1  0.51400062  0.95462728  0.53071926  1  -0.174563  0  -0.019432  0.007263  0  4.085107  0
C  C72  1  0.50137293  0.03724640  0.44870697  1  -0.135041  0  -0.03396  -0.14025  0  4.116638  0
S  S73  1  0.08873522  0.41151865  0.40830600  1  0.267998  0  0.090276  0.14661  0  2.746614  0
S  S74  1  0.89811828  0.60380908  0.57914802  1  0.284577  0  0.092701  0.155744  0  2.752981  0
S  S75  1  0.42087001  0.07946019  0.10042608  1  0.288817  0  0.089475  0.146575  0  2.747167  0
S  S76  1  0.59160840  0.91027607  0.90666349  1  0.277633  0  0.093725  0.156797  0  2.752401  0
S  S77  1  0.89930953  0.08723753  0.92273838  1  0.273103  0  0.085071  0.139082  0  2.732147  0
S  S78  1  0.08835969  0.90404746  0.08675269  1  0.294949  0  0.095451  0.159877  0  2.736762  0
S  S79  1  0.42158241  0.58991347  0.40151355  1  0.264796  0  0.086187  0.140499  0  2.733338  0
S  S80  1  0.59005727  0.42457293  0.58609938  1  0.290706  0  0.09618  0.161366  0  2.737374  0
S  S81  1  0.42340848  0.90240897  0.58346295  1  0.29761  0  0.093024  0.150089  0  2.725156  0
S  S82  1  0.59035991  0.09073468  0.39674332  1  0.282551  0  0.09006  0.151703  0  2.736835  0
O  O83  1  0.92257409  0.77729049  0.55186561  1  -1.176096  0  -0.357686  -0.617866  0  2.294301  0
O  O84  1  0.24757840  0.05581575  0.27269198  1  -1.175239  0  -0.356548  -0.614059  0  2.277079  0
O  O85  1  0.07039388  0.23328969  0.43852215  1  -1.18092  0  -0.3572  -0.61435  0  2.275771  0
O  O86  1  0.75673236  0.94252360  0.72861776  1  -1.175178  0  -0.357449  -0.617789  0  2.293537  0
O  O87  1  0.05192612  0.77079068  0.73455125  1  -1.176382  0  -0.351894  -0.61526  0  2.274485  0
O  O88  1  0.76590857  0.07515841  0.42003804  1  -1.176976  0  -0.352366  -0.61775  0  2.253333  0
O  O89  1  0.94153223  0.23883148  0.26679903  1  -1.180655  0  -0.356048  -0.623499  0  2.273793  0
O  O90  1  0.23897811  0.92459257  0.57031329  1  -1.183315  0  -0.350153  -0.611998  0  2.234951  0
O  O91  1  0.23956657  0.76207689  0.42713469  1  -1.171037  0  -0.354473  -0.615711  0  2.248374  0
O  O92  1  0.92233330  0.06751545  0.74380318  1  -1.179599  0  -0.354962  -0.617783  0  2.246947  0
O  O93  1  0.76551887  0.24655831  0.56435376  1  -1.173286  0  -0.351543  -0.61368  0  2.263564  0
O  O94  1  0.07004294  0.93061469  0.25921061  1  -1.180579  0  -0.352266  -0.613666  0  2.262607  0
O  O95  1  0.05889201  0.92769159  0.74075306  1  -1.165523  0  -0.360137  -0.613935  0  2.275786  0
O  O96  1  0.77117876  0.24527630  0.42393885  1  -1.17741  0  -0.35882  -0.614095  0  2.260175  0
O  O97  1  0.93446174  0.07152069  0.26028477  1  -1.178762  0  -0.359515  -0.614744  0  2.261974  0
O  O98  1  0.23241854  0.76505970  0.56741427  1  -1.164005  0  -0.361594  -0.615565  0  2.279191  0
O  O99  1  0.91475495  0.77811642  0.72625360  1  -1.182279  0  -0.363572  -0.622422  0  2.302206  0
O  O100  1  0.23960719  0.05997883  0.43595367  1  -1.175991  0  -0.367148  -0.617135  0  2.308573  0
O  O101  1  0.07977297  0.23038184  0.27407783  1  -1.182978  0  -0.360238  -0.618483  0  2.304507  0
O  O102  1  0.76311697  0.94047514  0.55533042  1  -1.184209  0  -0.363242  -0.613493  0  2.289316  0
O  O103  1  0.75821612  0.07740294  0.73509408  1  -1.178459  0  -0.356643  -0.610427  0  2.253234  0
O  O104  1  0.06625377  0.76978672  0.41787926  1  -1.179115  0  -0.355666  -0.609335  0  2.251255  0
O  O105  1  0.24463137  0.92128183  0.26706328  1  -1.164219  0  -0.360312  -0.613276  0  2.2674  0
O  O106  1  0.92815097  0.23804123  0.57399417  1  -1.169372  0  -0.360173  -0.612819  0  2.268006  0
O  O107  1  0.81723737  0.06899749  0.55427745  1  -1.225578  0  -0.693225  -1.070264  0  2.351337  0
O  O108  1  0.05880485  0.05818433  0.56514698  1  -1.232588  0  -0.692331  -1.070222  0  2.353  0
O  O109  1  0.06653358  0.05804505  0.31920631  1  -1.255136  0  -0.693436  -1.070203  0  2.357683  0
O  O110  1  0.05544565  0.82315911  0.55398349  1  -1.214072  0  -0.693765  -1.070574  0  2.359799  0
O  O111  1  0.13363350  0.95273676  0.45697891  1  -1.200621  0  -0.788607  -1.150479  0  2.119823  0
O  O112  1  0.95592526  0.96089592  0.44850448  1  -1.203009  0  -0.789036  -1.149622  0  2.116053  0
O  O113  1  0.95816075  0.13374108  0.45723658  1  -1.197285  0  -0.789848  -1.149004  0  2.12332  0
O  O114  1  0.95027280  0.96096525  0.62983284  1  -1.200549  0  -0.78982  -1.149548  0  2.122898  0
F  F115  1  0.84726638  0.40352901  0.64045930  1  -0.623719  0  -0.088023  -0.107534  0  1.353767  0
F  F116  1  0.40085185  0.84990645  0.10616679  1  -0.620417  0  -0.087904  -0.107548  0  1.354131  0
F  F117  1  0.13463841  0.85233757  0.89079767  1  -0.625302  0  -0.086998  -0.105305  0  1.353076  0
F  F118  1  0.38743736  0.61999330  0.63856233  1  -0.620951  0  -0.087098  -0.105633  0  1.354262  0
F  F119  1  0.39121718  0.13248315  0.35603979  1  -0.625146  0  -0.087444  -0.10761  0  1.362759  0
