# generated using pymatgen
data_LaH41C39N2O11
_symmetry_space_group_name_H-M   'P 1'
_cell_length_a   12.74125105
_cell_length_b   13.80993729
_cell_length_c   16.36900228
_cell_angle_alpha   76.63007395
_cell_angle_beta   74.74040787
_cell_angle_gamma   84.10998607
_symmetry_Int_Tables_number   1
_chemical_formula_structural   LaH41C39N2O11
_chemical_formula_sum   'La2 H82 C78 N4 O22'
_cell_volume   2700.68868368
_cell_formula_units_Z   2
loop_
 _symmetry_equiv_pos_site_id
 _symmetry_equiv_pos_as_xyz
  1  'x, y, z'
loop_
 _atom_site_type_symbol
 _atom_site_label
 _atom_site_symmetry_multiplicity
 _atom_site_fract_x
 _atom_site_fract_y
 _atom_site_fract_z
 _atom_site_occupancy
 _atom_site_pbe_bader_charge
 _atom_site_pbe_bader_spin_density
 _atom_site_pbe_cm5_charge
 _atom_site_pbe_ddec_charge
 _atom_site_pbe_ddec_spin_density
 _atom_site_pbe_ddec_sum_bond_order
 _atom_site_pbe_magmom
La  La0  1  0.37419188  0.04002520  0.43903028  1  2.25214  0  1.400821  1.871029  0  2.435163  0
La  La1  1  0.62580422  0.95997003  0.56097081  1  2.251803  0  1.400767  1.871074  0  2.435057  0
H  H2  1  0.01702953  0.33640850  0.00201109  1  0.056276  0  0.092727  0.129618  0  1.029812  0
H  H3  1  0.98297254  0.66358143  0.99799401  1  0.056167  0  0.092736  0.129585  0  1.029778  0
H  H4  1  0.04344722  0.27775614  0.10289887  1  0.043691  0  0.097936  0.140939  0  0.996049  0
H  H5  1  0.95655699  0.72224196  0.89710545  1  0.043742  0  0.097974  0.141013  0  0.9961  0
H  H6  1  0.13929281  0.26475669  0.00480425  1  0.04048  0  0.093443  0.131092  0  1.018983  0
H  H7  1  0.86071405  0.73523617  0.99520111  1  0.040559  0  0.093441  0.13114  0  1.019068  0
H  H8  1  0.42645957  0.61545501  0.93479542  1  0.035899  0  0.092941  0.127175  0  1.025734  0
H  H9  1  0.57353795  0.38454615  0.06520546  1  0.035902  0  0.092938  0.127164  0  1.025757  0
H  H10  1  0.40419057  0.54569154  0.86340615  1  0.063892  0  0.098881  0.141193  0  0.99945  0
H  H11  1  0.59580861  0.45430887  0.13659452  1  0.063871  0  0.098872  0.14121  0  0.999436  0
H  H12  1  0.46042982  0.48648799  0.95077485  1  0.042955  0  0.093515  0.129937  0  1.020097  0
H  H13  1  0.53957436  0.51351012  0.04922764  1  0.042749  0  0.093527  0.129932  0  1.020152  0
H  H14  1  0.00958873  0.57732557  0.21462475  1  0.051865  0  0.098162  0.141174  0  0.998566  0
H  H15  1  0.99041124  0.42267412  0.78537222  1  0.051985  0  0.098201  0.14119  0  0.998563  0
H  H16  1  0.00643720  0.68188214  0.12923395  1  0.040104  0  0.095063  0.134037  0  0.997711  0
H  H17  1  0.99356106  0.31811979  0.87076358  1  0.040183  0  0.095062  0.134036  0  0.99768  0
H  H18  1  0.11613131  0.66079335  0.18005995  1  0.045394  0  0.094363  0.133369  0  1.022791  0
H  H19  1  0.88386950  0.33920558  0.81993760  1  0.045345  0  0.094383  0.133367  0  1.022803  0
H  H20  1  0.90905097  0.52296219  0.14692836  1  0.099004  0  0.102546  0.074597  0  1.025774  0
H  H21  1  0.09094733  0.47703825  0.85306821  1  0.099002  0  0.102556  0.074618  0  1.025777  0
H  H22  1  0.92034484  0.42166785  0.09580414  1  0.061397  0  0.100277  0.064032  0  1.037378  0
H  H23  1  0.07965364  0.57832959  0.90419725  1  0.061527  0  0.100268  0.064018  0  1.037385  0
H  H24  1  0.93581195  0.24708489  0.35315994  1  0.062734  0  0.104  0.117854  0  1.001307  0
H  H25  1  0.06418484  0.75291478  0.64684321  1  0.063043  0  0.104005  0.117818  0  1.001351  0
H  H26  1  0.77252500  0.14692732  0.42824947  1  0.160738  0  0.113495  0.118316  0  1.042881  0
H  H27  1  0.22747192  0.85306644  0.57174806  1  0.160726  0  0.113496  0.118258  0  1.042959  0
H  H28  1  0.60217065  0.31254922  0.24268496  1  0.059406  0  0.096697  0.093392  0  1.031518  0
H  H29  1  0.39782760  0.68745344  0.75731364  1  0.059272  0  0.096717  0.093411  0  1.031495  0
H  H30  1  0.76182234  0.41808947  0.17025068  1  0.064253  0  0.094694  0.101438  0  1.081183  0
H  H31  1  0.23817513  0.58191245  0.82974823  1  0.06421  0  0.094705  0.101457  0  1.0812  0
H  H32  1  0.29470101  0.28383702  0.97028974  1  0.064592  0  0.101396  0.065614  0  1.001905  0
H  H33  1  0.70529957  0.71616641  0.02970272  1  0.06449  0  0.101386  0.065613  0  1.001852  0
H  H34  1  0.39115515  0.37489245  0.91256051  1  0.074609  0  0.104593  0.077312  0  0.995543  0
H  H35  1  0.60884124  0.62511400  0.08743227  1  0.07459  0  0.104615  0.077274  0  0.995576  0
H  H36  1  0.40820811  0.21757364  0.87315335  1  0.029457  0  0.097208  0.105866  0  1.0346  0
H  H37  1  0.59179321  0.78243274  0.12684084  1  0.029458  0  0.09719  0.105822  0  1.03456  0
H  H38  1  0.46060635  0.10639042  0.76872394  1  0.101536  0  0.107837  0.111317  0  1.00999  0
H  H39  1  0.53939510  0.89361298  0.23127201  1  0.101534  0  0.107826  0.111328  0  1.009995  0
H  H40  1  0.25306886  0.27837705  0.61575878  1  0.086814  0  0.102148  0.101567  0  1.010591  0
H  H41  1  0.74693025  0.72162339  0.38423762  1  0.086902  0  0.102139  0.101546  0  1.010494  0
H  H42  1  0.19552403  0.39096867  0.72176061  1  0.074029  0  0.102618  0.118173  0  1.001414  0
H  H43  1  0.80447412  0.60903550  0.27823529  1  0.074083  0  0.102569  0.118111  0  1.001458  0
H  H44  1  0.33266885  0.71081839  0.98634298  1  0.067681  0  0.104291  0.075703  0  0.986169  0
H  H45  1  0.66733363  0.28918123  0.01365897  1  0.067676  0  0.104288  0.075629  0  0.986227  0
H  H46  1  0.20890280  0.73599864  0.05944474  1  0.066803  0  0.105859  0.074579  0  1.001881  0
H  H47  1  0.79110062  0.26399799  0.94055819  1  0.066745  0  0.105838  0.074546  0  1.001876  0
H  H48  1  0.33992260  0.60620492  0.27449324  1  0.038523  0  0.103532  0.116598  0  0.998521  0
H  H49  1  0.66007619  0.39378651  0.72551472  1  0.037959  0  0.103501  0.116601  0  0.998522  0
H  H50  1  0.33228856  0.72581355  0.37116900  1  0.132865  0  0.111973  0.117767  0  0.982623  0
H  H51  1  0.66770444  0.27418016  0.62883975  1  0.132416  0  0.112001  0.117736  0  0.982596  0
H  H52  1  0.30562990  0.97174034  0.16244253  1  0.059773  0  0.101564  0.102935  0  1.001907  0
H  H53  1  0.69436852  0.02826296  0.83756998  1  0.05993  0  0.101555  0.102943  0  1.001886  0
H  H54  1  0.31092620  0.85502222  0.06545837  1  0.064501  0  0.102273  0.114019  0  1.011286  0
H  H55  1  0.68908436  0.14498174  0.93454898  1  0.064593  0  0.102292  0.114094  0  1.011201  0
H  H56  1  0.34876209  0.32465109  0.35355164  1  0.082823  0  0.127352  0.047854  0  0.970012  0
H  H57  1  0.65124124  0.67534632  0.64644689  1  0.082574  0  0.127357  0.047871  0  0.970029  0
H  H58  1  0.36968361  0.42395748  0.22891189  1  0.054646  0  0.109363  0.115946  0  1.002377  0
H  H59  1  0.63031959  0.57604364  0.77108718  1  0.05461  0  0.109384  0.115979  0  1.00236  0
H  H60  1  0.25125718  0.44636523  0.18709176  1  0.091403  0  0.100902  0.115302  0  1.025868  0
H  H61  1  0.74874110  0.55363742  0.81290929  1  0.091434  0  0.100909  0.115298  0  1.0259  0
H  H62  1  0.36114035  0.36802624  0.14302901  1  0.081431  0  0.101264  0.113841  0  0.987268  0
H  H63  1  0.63886035  0.63197639  0.85696970  1  0.081471  0  0.101246  0.113817  0  0.987331  0
H  H64  1  0.24436381  0.19793172  0.19948384  1  0.060227  0  0.105928  0.121969  0  0.977556  0
H  H65  1  0.75563181  0.80207471  0.80051156  1  0.060143  0  0.10594  0.121957  0  0.977558  0
H  H66  1  0.13940403  0.29588430  0.21029164  1  0.08151  0  0.099668  0.111079  0  1.044491  0
H  H67  1  0.86059815  0.70412278  0.78970774  1  0.081582  0  0.099661  0.111057  0  1.044401  0
H  H68  1  0.15061262  0.19731826  0.30138210  1  0.085694  0  0.115354  0.131249  0  1.009615  0
H  H69  1  0.84938319  0.80268442  0.69861763  1  0.085758  0  0.11535  0.13123  0  1.009725  0
H  H70  1  0.16660600  0.15413775  0.57309555  1  0.119831  0  0.125426  0.046047  0  1.034487  0
H  H71  1  0.83339467  0.84586564  0.42690301  1  0.11989  0  0.125431  0.046035  0  1.034489  0
H  H72  1  0.02698679  0.21901404  0.65071878  1  0.063836  0  0.108881  0.117457  0  0.997095  0
H  H73  1  0.97301484  0.78098634  0.34928260  1  0.063889  0  0.108873  0.117477  0  0.997058  0
H  H74  1  0.93105525  0.13529901  0.72677802  1  0.039331  0  0.101125  0.112687  0  0.995397  0
H  H75  1  0.06894794  0.86470285  0.27322213  1  0.039338  0  0.101117  0.112673  0  0.99533  0
H  H76  1  0.90152343  0.20005443  0.62755293  1  0.07297  0  0.106389  0.125111  0  0.991735  0
H  H77  1  0.09847737  0.79994670  0.37244909  1  0.072931  0  0.106386  0.125148  0  0.991767  0
H  H78  1  0.89654360  0.02263540  0.58314145  1  0.099317  0  0.113538  0.134966  0  1.013335  0
H  H79  1  0.10345708  0.97736725  0.41685603  1  0.099298  0  0.113556  0.135006  0  1.01327  0
H  H80  1  0.91341350  0.97201055  0.68966832  1  0.052444  0  0.104651  0.116073  0  0.992107  0
H  H81  1  0.08658723  0.02798989  0.31032652  1  0.052356  0  0.104625  0.116036  0  0.992174  0
H  H82  1  0.01211341  0.94116673  0.59745531  1  0.096058  0  0.113984  0.132368  0  1.00086  0
H  H83  1  0.98788730  0.05883444  0.40254061  1  0.095891  0  0.11399  0.132369  0  1.000934  0
C  C84  1  0.07431384  0.47592972  0.08858189  1  -0.00237  0  -0.023008  -0.05577  0  3.945245  0
C  C85  1  0.92568533  0.52407069  0.91141818  1  -0.002348  0  -0.022948  -0.055718  0  3.945023  0
C  C86  1  0.13431050  0.40969584  0.03774438  1  0.019167  0  -0.000862  0.096247  0  3.941112  0
C  C87  1  0.86568871  0.59030309  0.96225534  1  0.019113  0  -0.000904  0.096291  0  3.941193  0
C  C88  1  0.24075167  0.43207761  0.98867706  1  -0.029129  0  -0.023472  -0.058961  0  3.942348  0
C  C89  1  0.75924819  0.56792504  0.01132059  1  -0.029161  0  -0.023452  -0.05901  0  3.942232  0
C  C90  1  0.28681031  0.52109513  0.98810651  1  -0.009696  0  -0.00225  0.093375  0  3.938946  0
C  C91  1  0.71319129  0.47890526  0.01189304  1  -0.009661  0  -0.00227  0.093443  0  3.938838  0
C  C92  1  0.22677728  0.58533169  0.04088091  1  0.002876  0  -0.024243  -0.056809  0  3.937304  0
C  C93  1  0.77322617  0.41466420  0.95912155  1  0.002826  0  -0.024238  -0.056929  0  3.937495  0
C  C94  1  0.12169966  0.56109580  0.09369854  1  -0.089938  0  -0.003511  0.087694  0  3.949212  0
C  C95  1  0.87830045  0.43890089  0.90630141  1  -0.089883  0  -0.003525  0.087667  0  3.949342  0
C  C96  1  0.08183435  0.31697810  0.03686540  1  -0.071425  0  -0.239415  -0.413325  0  3.950318  0
C  C97  1  0.91816749  0.68301706  0.96313754  1  -0.071399  0  -0.239458  -0.413455  0  3.950509  0
C  C98  1  0.39984874  0.54384101  0.93172356  1  -0.076385  0  -0.238724  -0.420123  0  3.964083  0
C  C99  1  0.60015379  0.45615713  0.06827744  1  -0.076116  0  -0.238723  -0.420107  0  3.964108  0
C  C100  1  0.06067976  0.62379778  0.15725927  1  -0.076596  0  -0.239034  -0.419365  0  3.956102  0
C  C101  1  0.93931530  0.37620269  0.84273921  1  -0.07676  0  -0.239111  -0.419409  0  3.956236  0
C  C102  1  0.95797005  0.45499623  0.13537399  1  0.360788  0  -0.070678  -0.014007  0  3.908396  0
C  C103  1  0.04203237  0.54500416  0.86462538  1  0.360704  0  -0.070721  -0.013991  0  3.908253  0
C  C104  1  0.86030810  0.33629558  0.25578496  1  0.402502  0  0.079766  0.2629  0  4.065181  0
C  C105  1  0.13968859  0.66370633  0.74421718  1  0.402748  0  0.079738  0.262758  0  4.065259  0
C  C106  1  0.86205470  0.26089128  0.32951845  1  -0.041789  0  -0.108713  -0.213512  0  3.999064  0
C  C107  1  0.13794036  0.73910991  0.67048172  1  -0.041914  0  -0.10876  -0.213492  0  3.99899  0
C  C108  1  0.77105999  0.20493264  0.37087367  1  -0.018978  0  -0.073613  -0.054572  0  3.952993  0
C  C109  1  0.22893743  0.79507076  0.62912619  1  -0.018995  0  -0.073561  -0.054409  0  3.953025  0
C  C110  1  0.67740250  0.22237729  0.33867963  1  -0.039136  0  -0.027059  -0.065457  0  3.983409  0
C  C111  1  0.32259330  0.77762467  0.66131719  1  -0.039145  0  -0.027098  -0.065546  0  3.983464  0
C  C112  1  0.67593479  0.29917176  0.26624164  1  0.034255  0  -0.088758  -0.067806  0  4.015215  0
C  C113  1  0.32406511  0.70083014  0.73375676  1  0.034293  0  -0.088714  -0.06772  0  4.015051  0
C  C114  1  0.76582370  0.35705904  0.22497824  1  -0.083691  0  -0.124297  -0.243053  0  4.032289  0
C  C115  1  0.23417544  0.64294357  0.77502568  1  -0.083973  0  -0.124334  -0.243072  0  4.032253  0
C  C116  1  0.58015599  0.16104581  0.37896932  1  1.556056  0  0.221707  0.617861  0  4.173593  0
C  C117  1  0.41984232  0.83895463  0.62102847  1  1.556039  0  0.221611  0.617673  0  4.17389  0
C  C118  1  0.30363088  0.36157671  0.93393195  1  0.373896  0  -0.065509  -0.007369  0  3.922518  0
C  C119  1  0.69636731  0.63842671  0.06606469  1  0.374155  0  -0.065505  -0.007349  0  3.922429  0
C  C120  1  0.29619823  0.31034669  0.80460432  1  0.422461  0  0.077409  0.256521  0  4.070819  0
C  C121  1  0.70380238  0.68965745  0.19539229  1  0.421792  0  0.077419  0.256418  0  4.070952  0
C  C122  1  0.37142376  0.23075462  0.81837946  1  -0.03923  0  -0.120577  -0.2422  0  4.044485  0
C  C123  1  0.62858010  0.76924950  0.18161585  1  -0.038499  0  -0.120451  -0.241939  0  4.044526  0
C  C124  1  0.40180340  0.16841225  0.75940362  1  0.01938  0  -0.08027  -0.052718  0  3.98363  0
C  C125  1  0.59819888  0.83159041  0.24059108  1  0.018808  0  -0.080381  -0.052974  0  3.983882  0
C  C126  1  0.35948752  0.18461119  0.68652893  1  -0.009485  0  -0.029617  -0.065909  0  3.979843  0
C  C127  1  0.64051234  0.81539147  0.31346811  1  -0.009613  0  -0.029473  -0.065744  0  3.979928  0
C  C128  1  0.28454024  0.26503316  0.67343680  1  -0.033402  0  -0.088647  -0.077684  0  4.023855  0
C  C129  1  0.71546036  0.73497099  0.32655919  1  -0.033396  0  -0.088737  -0.077759  0  4.023957  0
C  C130  1  0.25262948  0.32751419  0.73182504  1  -0.07938  0  -0.112392  -0.216587  0  4.019636  0
C  C131  1  0.74736867  0.67248999  0.26817086  1  -0.079294  0  -0.112355  -0.216484  0  4.019713  0
C  C132  1  0.39759289  0.11809536  0.62293239  1  1.573313  0  0.228892  0.626428  0  4.184395  0
C  C133  1  0.60240395  0.88190063  0.37706535  1  1.573239  0  0.228867  0.626336  0  4.184332  0
C  C134  1  0.27365053  0.67857719  0.04634915  1  0.36265  0  -0.063576  -0.003947  0  3.913293  0
C  C135  1  0.72635120  0.32142095  0.95365385  1  0.362556  0  -0.063499  -0.00372  0  3.913344  0
C  C136  1  0.32393806  0.72296324  0.16511799  1  0.413824  0  0.073672  0.245096  0  4.101584  0
C  C137  1  0.67606308  0.27702894  0.83488565  1  0.414087  0  0.073613  0.245069  0  4.101728  0
C  C138  1  0.33181740  0.68652004  0.25085312  1  0.032711  0  -0.107617  -0.210184  0  4.015123  0
C  C139  1  0.66818069  0.31346696  0.74915155  1  0.033237  0  -0.107504  -0.21019  0  4.015515  0
C  C140  1  0.32751450  0.75256622  0.30409959  1  -0.103348  0  -0.076526  -0.062787  0  3.982629  0
C  C141  1  0.67248733  0.24743040  0.69590612  1  -0.102769  0  -0.076633  -0.062771  0  3.983032  0
C  C142  1  0.31674601  0.85574857  0.27277907  1  0.054688  0  -0.023792  -0.051999  0  3.986582  0
C  C143  1  0.68326243  0.14424576  0.72722628  1  0.054355  0  -0.023724  -0.051904  0  3.986613  0
C  C144  1  0.31173511  0.89138148  0.18665833  1  -0.063187  0  -0.086071  -0.074873  0  4.007981  0
C  C145  1  0.68827232  0.10861879  0.81334916  1  -0.06349  0  -0.086038  -0.074797  0  4.008115  0
C  C146  1  0.31463748  0.82588718  0.13250472  1  -0.06936  0  -0.118721  -0.240977  0  4.040912  0
C  C147  1  0.68536754  0.17411092  0.86749943  1  -0.069288  0  -0.118773  -0.241155  0  4.041384  0
C  C148  1  0.31101671  0.92560103  0.33165487  1  1.564479  0  0.181743  0.549275  0  4.284306  0
C  C149  1  0.68898838  0.07439629  0.66835246  1  1.564256  0  0.181775  0.549197  0  4.28435  0
C  C150  1  0.29246048  0.27557129  0.34306721  1  1.414546  0  0.188731  0.327099  0  4.115839  0
C  C151  1  0.70754116  0.72442763  0.65693078  1  1.41483  0  0.188722  0.327036  0  4.115711  0
C  C152  1  0.31446639  0.39038272  0.20309023  1  0.231183  0  -0.128255  -0.269432  0  3.931043  0
C  C153  1  0.68553515  0.60961916  0.79690844  1  0.231227  0  -0.12832  -0.269565  0  3.931261  0
C  C154  1  0.19583692  0.24566418  0.24238647  1  0.254829  0  -0.130871  -0.267043  0  3.878974  0
C  C155  1  0.80416127  0.75433997  0.75761186  1  0.254059  0  -0.130834  -0.266998  0  3.879013  0
C  C156  1  0.12579762  0.08786148  0.57226548  1  1.382409  0  0.185024  0.314219  0  4.094585  0
C  C157  1  0.87420134  0.91214343  0.42773133  1  1.382419  0  0.185021  0.314292  0  4.094487  0
C  C158  1  0.96730281  0.16398674  0.65750339  1  0.287665  0  -0.127233  -0.270598  0  3.924922  0
C  C159  1  0.03269968  0.83601288  0.34249856  1  0.287661  0  -0.1272  -0.270654  0  3.924868  0
C  C160  1  0.95682851  0.99984251  0.62192748  1  0.238046  0  -0.131938  -0.275826  0  3.872649  0
C  C161  1  0.04317135  0.00016015  0.37807018  1  0.238264  0  -0.131944  -0.27586  0  3.87273  0
N  N162  1  0.26685451  0.30437699  0.26651390  1  -1.214197  0  -0.279016  0.029807  0  3.706803  0
N  N163  1  0.73314704  0.69562416  0.73348368  1  -1.213529  0  -0.278978  0.030019  0  3.706837  0
N  N164  1  0.02130222  0.08323174  0.61662179  1  -1.225702  0  -0.280299  0.031134  0  3.718486  0
N  N165  1  0.97869766  0.91677091  0.38337648  1  -1.225682  0  -0.280284  0.031195  0  3.71844  0
O  O166  1  0.95485324  0.38574460  0.21715892  1  -1.062015  0  -0.186689  -0.216541  0  2.514687  0
O  O167  1  0.04514421  0.61425879  0.78284278  1  -1.06204  0  -0.186623  -0.216458  0  2.514665  0
O  O168  1  0.49895016  0.17813036  0.34520730  1  -1.189063  0  -0.373627  -0.613109  0  2.181238  0
O  O169  1  0.50104984  0.82186784  0.65478873  1  -1.188919  0  -0.373611  -0.61305  0  2.181369  0
O  O170  1  0.57985330  0.09175769  0.44654401  1  -1.213244  0  -0.405874  -0.660742  0  2.360468  0
O  O171  1  0.42014104  0.90824054  0.55345566  1  -1.213203  0  -0.405829  -0.660637  0  2.360681  0
O  O172  1  0.25978226  0.37555356  0.85903872  1  -1.061147  0  -0.18256  -0.209008  0  2.543351  0
O  O173  1  0.74021671  0.62445061  0.14095700  1  -1.060888  0  -0.18255  -0.208919  0  2.543248  0
O  O174  1  0.47127312  0.05199685  0.63769798  1  -1.200627  0  -0.388248  -0.623691  0  2.307776  0
O  O175  1  0.52871967  0.94799844  0.36230013  1  -1.200643  0  -0.388235  -0.623602  0  2.30757  0
O  O176  1  0.35450357  0.13197041  0.55887399  1  -1.202268  0  -0.376835  -0.635935  0  2.267321  0
O  O177  1  0.64549088  0.86802557  0.44112730  1  -1.202126  0  -0.376825  -0.63592  0  2.267281  0
O  O178  1  0.32612584  0.65225718  0.11769960  1  -1.059548  0  -0.192621  -0.224567  0  2.510107  0
O  O179  1  0.67387519  0.34773798  0.88230350  1  -1.05948  0  -0.192652  -0.224596  0  2.510189  0
O  O180  1  0.29717517  0.88851480  0.41270169  1  -1.185252  0  -0.377545  -0.608077  0  2.185931  0
O  O181  1  0.70283498  0.11147509  0.58729864  1  -1.185248  0  -0.377525  -0.608045  0  2.185844  0
O  O182  1  0.32126472  0.01881732  0.29972954  1  -1.201669  0  -0.377054  -0.623991  0  2.134209  0
O  O183  1  0.67872657  0.98118083  0.70028485  1  -1.201389  0  -0.377089  -0.624036  0  2.134167  0
O  O184  1  0.25683862  0.20026241  0.39884421  1  -1.187639  0  -0.34618  -0.515716  0  2.328122  0
O  O185  1  0.74316298  0.79973652  0.60115133  1  -1.187595  0  -0.346197  -0.515753  0  2.328026  0
O  O186  1  0.17632782  0.02291519  0.53266354  1  -1.185785  0  -0.339844  -0.506026  0  2.34926  0
O  O187  1  0.82366956  0.97708824  0.46733327  1  -1.185823  0  -0.339837  -0.506094  0  2.34917  0
