# generated using pymatgen
data_CdH8C14(SeN3)2
_symmetry_space_group_name_H-M   'P 1'
_cell_length_a   5.79331261
_cell_length_b   8.94703724
_cell_length_c   17.71535222
_cell_angle_alpha   89.99888368
_cell_angle_beta   90.00122643
_cell_angle_gamma   112.22774930
_symmetry_Int_Tables_number   1
_chemical_formula_structural   CdH8C14(SeN3)2
_chemical_formula_sum   'Cd2 H16 C28 Se4 N12'
_cell_volume   850.00286666
_cell_formula_units_Z   2
loop_
 _symmetry_equiv_pos_site_id
 _symmetry_equiv_pos_as_xyz
  1  'x, y, z'
loop_
 _atom_site_type_symbol
 _atom_site_label
 _atom_site_symmetry_multiplicity
 _atom_site_fract_x
 _atom_site_fract_y
 _atom_site_fract_z
 _atom_site_occupancy
 _atom_site_hle17_bader_spin_density
 _atom_site_hle17_ddec_charge
 _atom_site_hle17_ddec_spin_density
 _atom_site_hle17_ddec_sum_bond_order
 _atom_site_hle17_magmom
 _atom_site_hse06_10hf_bader_spin_density
 _atom_site_hse06_10hf_ddec_charge
 _atom_site_hse06_10hf_ddec_spin_density
 _atom_site_hse06_10hf_ddec_sum_bond_order
 _atom_site_hse06_10hf_magmom
 _atom_site_hse06_bader_spin_density
 _atom_site_hse06_ddec_charge
 _atom_site_hse06_ddec_spin_density
 _atom_site_hse06_ddec_sum_bond_order
 _atom_site_hse06_magmom
 _atom_site_pbe_bader_spin_density
 _atom_site_pbe_cm5_charge
 _atom_site_pbe_ddec_charge
 _atom_site_pbe_ddec_spin_density
 _atom_site_pbe_ddec_sum_bond_order
 _atom_site_pbe_magmom
Cd  Cd0  1  0.00001879  0.00000341  0.99999367  1  0  0.89212  0  2.020681  0  0  0.710338  0  2.481629  0  0  0.758296  0  2.444763  0  0  0.682083  0.67719  0  2.506045  0
Cd  Cd1  1  0.50000804  0.50001338  0.50000571  1  0  0.892111  0  2.02073  0  0  0.710346  0  2.481621  0  0  0.758303  0  2.444757  0  0  0.682111  0.677197  0  2.506035  0
H  H2  1  0.70159923  0.78670233  0.86424444  1  0  0.093754  0  0.971005  0  0  0.096172  0  1.042851  0  0  0.098784  0  1.040564  0  0  0.113656  0.094294  0  1.044512  0
H  H3  1  0.20164246  0.28671979  0.63574844  1  0  0.093804  0  0.970915  0  0  0.096217  0  1.042793  0  0  0.098829  0  1.040508  0  0  0.113684  0.09433  0  1.044469  0
H  H4  1  0.29838701  0.21327844  0.13576189  1  0  0.093782  0  0.971016  0  0  0.09623  0  1.042832  0  0  0.098845  0  1.040546  0  0  0.113681  0.094341  0  1.044517  0
H  H5  1  0.79835037  0.71328617  0.36424379  1  0  0.09374  0  0.971003  0  0  0.096199  0  1.042824  0  0  0.098818  0  1.040527  0  0  0.113682  0.094308  0  1.044513  0
H  H6  1  0.67664753  0.56071052  0.77827540  1  0  0.121528  0  0.957608  0  0  0.126064  0  1.025493  0  0  0.130259  0  1.022841  0  0  0.10769  0.122984  0  1.027619  0
H  H7  1  0.17667331  0.06072045  0.72172009  1  0  0.12155  0  0.957367  0  0  0.126067  0  1.025283  0  0  0.130253  0  1.022643  0  0  0.107688  0.123003  0  1.027395  0
H  H8  1  0.32330445  0.43926112  0.22173940  1  0  0.121446  0  0.957385  0  0  0.126028  0  1.025272  0  0  0.130224  0  1.0226  0  0  0.107654  0.122981  0  1.027368  0
H  H9  1  0.82330016  0.93927195  0.27826875  1  0  0.121383  0  0.957385  0  0  0.125922  0  1.025328  0  0  0.130121  0  1.022653  0  0  0.107587  0.122877  0  1.027424  0
H  H10  1  0.25687279  0.49526452  0.91279770  1  0  0.11296  0  0.945243  0  0  0.122271  0  1.006499  0  0  0.12586  0  1.005428  0  0  0.107021  0.119676  0  1.007412  0
H  H11  1  0.75688229  0.99526303  0.58719239  1  0  0.113024  0  0.945202  0  0  0.122289  0  1.0065  0  0  0.125884  0  1.005429  0  0  0.107048  0.119679  0  1.007442  0
H  H12  1  0.74311725  0.50473303  0.08719565  1  0  0.112933  0  0.945068  0  0  0.122213  0  1.006376  0  0  0.125804  0  1.005304  0  0  0.106999  0.119605  0  1.007317  0
H  H13  1  0.24311857  0.00475145  0.41280661  1  0  0.112998  0  0.945141  0  0  0.122301  0  1.006408  0  0  0.125897  0  1.005339  0  0  0.107024  0.119693  0  1.007348  0
H  H14  1  0.25411442  0.72314860  0.99400975  1  0  0.073128  0  0.978232  0  0  0.077286  0  1.050295  0  0  0.078999  0  1.049601  0  0  0.107732  0.07602  0  1.050829  0
H  H15  1  0.75413049  0.22315324  0.50597847  1  0  0.073115  0  0.978014  0  0  0.07727  0  1.050125  0  0  0.078984  0  1.04943  0  0  0.107707  0.076012  0  1.050652  0
H  H16  1  0.74589966  0.27685189  0.00597909  1  0  0.073212  0  0.978101  0  0  0.077391  0  1.050175  0  0  0.079104  0  1.049481  0  0  0.107733  0.076129  0  1.050703  0
H  H17  1  0.24589530  0.77685943  0.49402052  1  0  0.073185  0  0.978165  0  0  0.077366  0  1.050204  0  0  0.079079  0  1.049509  0  0  0.107734  0.076104  0  1.050732  0
C  C18  1  0.54670074  0.08098557  0.90669981  1  0  0.238904  0  3.831201  0  0  0.225053  0  4.138395  0  0  0.247512  0  4.151086  0  0  0.105707  0.209762  0  4.129353  0
C  C19  1  0.04668906  0.58100871  0.59330192  1  0  0.238748  0  3.83122  0  0  0.224889  0  4.13845  0  0  0.247351  0  4.151147  0  0  0.105509  0.209594  0  4.129412  0
C  C20  1  0.45332636  0.91899734  0.09328677  1  0  0.238789  0  3.831388  0  0  0.224935  0  4.138607  0  0  0.247396  0  4.151308  0  0  0.10553  0.209639  0  4.129568  0
C  C21  1  0.95330649  0.41901519  0.40672361  1  0  0.238884  0  3.83107  0  0  0.225011  0  4.138285  0  0  0.24747  0  4.150986  0  0  0.105586  0.209715  0  4.129252  0
C  C22  1  0.81889127  0.71770266  0.87364325  1  0  0.127108  0  3.685253  0  0  0.097524  0  3.938274  0  0  0.10371  0  3.955763  0  0  0.047239  0.093482  0  3.926326  0
C  C23  1  0.31892340  0.21770701  0.62635337  1  0  0.126828  0  3.685366  0  0  0.097197  0  3.938412  0  0  0.103377  0  3.955908  0  0  0.04704  0.093155  0  3.926459  0
C  C24  1  0.18109425  0.28228644  0.12636083  1  0  0.126861  0  3.685533  0  0  0.097234  0  3.938583  0  0  0.103413  0  3.956084  0  0  0.047114  0.09319  0  3.926637  0
C  C25  1  0.68107118  0.78229899  0.37364054  1  0  0.126949  0  3.68567  0  0  0.097346  0  3.938646  0  0  0.103526  0  3.956146  0  0  0.047083  0.093301  0  3.926703  0
C  C26  1  0.80533845  0.59183488  0.82569557  1  0  -0.128427  0  3.687929  0  0  -0.152742  0  3.939725  0  0  -0.157823  0  3.957651  0  0  -0.068122  -0.149452  0  3.92783  0
C  C27  1  0.30535768  0.09184477  0.67428751  1  0  -0.128439  0  3.6876  0  0  -0.152624  0  3.93937  0  0  -0.157701  0  3.957299  0  0  -0.06811  -0.149356  0  3.927469  0
C  C28  1  0.19464247  0.40815530  0.17430455  1  0  -0.128243  0  3.687692  0  0  -0.152592  0  3.939479  0  0  -0.157665  0  3.957422  0  0  -0.068037  -0.149326  0  3.927547  0
C  C29  1  0.69462116  0.90816087  0.32570640  1  0  -0.128298  0  3.688036  0  0  -0.152575  0  3.939773  0  0  -0.157658  0  3.957725  0  0  -0.068044  -0.149321  0  3.927847  0
C  C30  1  0.96497545  0.50980222  0.83941514  1  0  0.081852  0  3.858158  0  0  0.0963  0  4.090399  0  0  0.099318  0  4.108912  0  0  0.025318  0.094337  0  4.077997  0
C  C31  1  0.46499586  0.00979344  0.66057776  1  0  0.081596  0  3.857751  0  0  0.095892  0  4.090245  0  0  0.098922  0  4.108723  0  0  0.025158  0.093928  0  4.077846  0
C  C32  1  0.03500638  0.49018322  0.16058273  1  0  0.081751  0  3.858204  0  0  0.09621  0  4.090448  0  0  0.099233  0  4.10895  0  0  0.02524  0.094245  0  4.078054  0
C  C33  1  0.53499776  0.99019465  0.33941898  1  0  0.081832  0  3.858404  0  0  0.096238  0  4.090693  0  0  0.099274  0  4.109192  0  0  0.025293  0.094268  0  4.078308  0
C  C34  1  0.13009838  0.55633331  0.90067979  1  0  -0.124364  0  3.664875  0  0  -0.142572  0  3.90641  0  0  -0.148921  0  3.925823  0  0  -0.066622  -0.138402  0  3.893444  0
C  C35  1  0.63011001  0.05633767  0.59930582  1  0  -0.124325  0  3.664859  0  0  -0.142438  0  3.906431  0  0  -0.148788  0  3.925831  0  0  -0.066585  -0.138278  0  3.893478  0
C  C36  1  0.86990760  0.44366818  0.09931526  1  0  -0.124307  0  3.664808  0  0  -0.142466  0  3.906354  0  0  -0.14881  0  3.925755  0  0  -0.066573  -0.138299  0  3.893384  0
C  C37  1  0.36990834  0.94367722  0.40068696  1  0  -0.1243  0  3.66501  0  0  -0.142458  0  3.906532  0  0  -0.148821  0  3.925955  0  0  -0.066575  -0.138289  0  3.893562  0
C  C38  1  0.12848925  0.68295499  0.94590716  1  0  0.135761  0  3.700497  0  0  0.107358  0  3.950622  0  0  0.113098  0  3.970713  0  0  0.048491  0.103545  0  3.93703  0
C  C39  1  0.62849605  0.18294618  0.55408340  1  0  0.135899  0  3.700309  0  0  0.107433  0  3.950479  0  0  0.113174  0  3.970572  0  0  0.048507  0.103626  0  3.93686  0
C  C40  1  0.87151498  0.31704646  0.05408562  1  0  0.135782  0  3.70021  0  0  0.107286  0  3.950416  0  0  0.113028  0  3.970508  0  0  0.048526  0.103477  0  3.936812  0
C  C41  1  0.37151621  0.81706380  0.44591672  1  0  0.135676  0  3.70028  0  0  0.107201  0  3.950469  0  0  0.112944  0  3.970561  0  0  0.048505  0.103397  0  3.936847  0
C  C42  1  0.95995089  0.38068565  0.79141897  1  0  0.27791  0  3.690017  0  0  0.265038  0  3.957036  0  0  0.27514  0  3.972999  0  0  0.196857  0.258148  0  3.946363  0
C  C43  1  0.45995966  0.88068465  0.70857082  1  0  0.278072  0  3.690142  0  0  0.265239  0  3.957217  0  0  0.275342  0  3.97317  0  0  0.196958  0.258348  0  3.946556  0
C  C44  1  0.04005003  0.61931930  0.20857946  1  0  0.277901  0  3.689772  0  0  0.265044  0  3.956773  0  0  0.275141  0  3.972735  0  0  0.196901  0.258155  0  3.94611  0
C  C45  1  0.54005124  0.11933245  0.29142761  1  0  0.277964  0  3.689666  0  0  0.265125  0  3.95668  0  0  0.275218  0  3.972644  0  0  0.196963  0.258236  0  3.946016  0
Se  Se46  1  0.33075453  0.17329433  0.88177616  1  0  -0.283093  0  1.97215  0  0  -0.26377  0  2.314571  0  0  -0.286242  0  2.308216  0  0  -0.082291  -0.24766  0  2.31831  0
Se  Se47  1  0.83075965  0.67330023  0.61823679  1  0  -0.283004  0  1.972372  0  0  -0.263675  0  2.314808  0  0  -0.286152  0  2.308465  0  0  -0.082213  -0.247546  0  2.318509  0
Se  Se48  1  0.66925838  0.82668468  0.11820195  1  0  -0.283028  0  1.972349  0  0  -0.2637  0  2.314772  0  0  -0.286175  0  2.308419  0  0  -0.082255  -0.247559  0  2.318457  0
Se  Se49  1  0.16916203  0.32662781  0.38184011  1  0  -0.283035  0  1.972171  0  0  -0.26375  0  2.314673  0  0  -0.286223  0  2.308318  0  0  -0.082288  -0.247612  0  2.318365  0
N  N50  1  0.68606241  0.01826205  0.92318404  1  0  -0.497562  0  2.916286  0  0  -0.437335  0  3.188471  0  0  -0.457412  0  3.195344  0  0  -0.38217  -0.423629  0  3.183613  0
N  N51  1  0.18606544  0.51828240  0.57681531  1  0  -0.497537  0  2.915951  0  0  -0.437296  0  3.188131  0  0  -0.457377  0  3.19501  0  0  -0.382074  -0.423591  0  3.183273  0
N  N52  1  0.31396611  0.98173639  0.07680366  1  0  -0.49747  0  2.916108  0  0  -0.437239  0  3.188275  0  0  -0.457318  0  3.195153  0  0  -0.382019  -0.423533  0  3.183419  0
N  N53  1  0.81396177  0.48177798  0.42319102  1  0  -0.497552  0  2.915954  0  0  -0.437294  0  3.188079  0  0  -0.457372  0  3.194962  0  0  -0.382016  -0.423589  0  3.183222  0
N  N54  1  0.97624084  0.76218307  0.93277646  1  0  -0.316001  0  3.261066  0  0  -0.23914  0  3.51663  0  0  -0.257901  0  3.537668  0  0  -0.321192  -0.226323  0  3.502065  0
N  N55  1  0.47626602  0.26219126  0.56721403  1  0  -0.315878  0  3.260456  0  0  -0.238946  0  3.515936  0  0  -0.257711  0  3.536976  0  0  -0.321056  -0.226127  0  3.501368  0
N  N56  1  0.02376863  0.23781850  0.06721858  1  0  -0.315914  0  3.261039  0  0  -0.239004  0  3.516589  0  0  -0.257768  0  3.537635  0  0  -0.321103  -0.226186  0  3.502018  0
N  N57  1  0.52374385  0.73781747  0.43278101  1  0  -0.315855  0  3.260711  0  0  -0.238994  0  3.516287  0  0  -0.257757  0  3.537322  0  0  -0.321087  -0.226174  0  3.501717  0
N  N58  1  0.95626301  0.27416668  0.75280664  1  0  -0.359552  0  2.567366  0  0  -0.332703  0  2.785734  0  0  -0.343555  0  2.799783  0  0  -0.280374  -0.325401  0  2.776345  0
N  N59  1  0.45626280  0.77416679  0.74718868  1  0  -0.359561  0  2.567104  0  0  -0.332737  0  2.78549  0  0  -0.343592  0  2.799539  0  0  -0.280385  -0.325439  0  2.776106  0
N  N60  1  0.04374433  0.72582769  0.24719236  1  0  -0.359514  0  2.567363  0  0  -0.332699  0  2.785757  0  0  -0.34356  0  2.799815  0  0  -0.28041  -0.325401  0  2.776379  0
N  N61  1  0.54376034  0.22585059  0.25280918  1  0  -0.359582  0  2.567044  0  0  -0.332776  0  2.785454  0  0  -0.343628  0  2.799499  0  0  -0.280435  -0.325483  0  2.776086  0
