# generated using pymatgen
data_AgH4C6NO3
_symmetry_space_group_name_H-M   'P 1'
_cell_length_a   3.61156759
_cell_length_b   10.84126451
_cell_length_c   17.64316242
_cell_angle_alpha   90.00147752
_cell_angle_beta   90.00152626
_cell_angle_gamma   91.77613488
_symmetry_Int_Tables_number   1
_chemical_formula_structural   AgH4C6NO3
_chemical_formula_sum   'Ag4 H16 C24 N4 O12'
_cell_volume   690.46777643
_cell_formula_units_Z   4
loop_
 _symmetry_equiv_pos_site_id
 _symmetry_equiv_pos_as_xyz
  1  'x, y, z'
loop_
 _atom_site_type_symbol
 _atom_site_label
 _atom_site_symmetry_multiplicity
 _atom_site_fract_x
 _atom_site_fract_y
 _atom_site_fract_z
 _atom_site_occupancy
 _atom_site_hle17_bader_spin_density
 _atom_site_hle17_ddec_charge
 _atom_site_hle17_ddec_spin_density
 _atom_site_hle17_ddec_sum_bond_order
 _atom_site_hle17_magmom
 _atom_site_hse06_10hf_bader_spin_density
 _atom_site_hse06_10hf_ddec_charge
 _atom_site_hse06_10hf_ddec_spin_density
 _atom_site_hse06_10hf_ddec_sum_bond_order
 _atom_site_hse06_10hf_magmom
 _atom_site_hse06_bader_spin_density
 _atom_site_hse06_ddec_charge
 _atom_site_hse06_ddec_spin_density
 _atom_site_hse06_ddec_sum_bond_order
 _atom_site_hse06_magmom
 _atom_site_pbe_bader_spin_density
 _atom_site_pbe_cm5_charge
 _atom_site_pbe_ddec_charge
 _atom_site_pbe_ddec_spin_density
 _atom_site_pbe_ddec_sum_bond_order
 _atom_site_pbe_magmom
Ag  Ag0  1  0.69203637  0.39819203  0.47560440  1  0  0.536091  0  1.499938  0  0  0.414358  0  1.992448  0  0  0.45294  0  1.920198  0  0  0.392699  0.387858  0  2.042344  0
Ag  Ag1  1  0.30799804  0.10181410  0.97560617  1  0  0.536131  0  1.499989  0  0  0.414362  0  1.992557  0  0  0.452951  0  1.920288  0  0  0.392728  0.387862  0  2.042451  0
Ag  Ag2  1  0.30795514  0.60180356  0.52439549  1  0  0.536087  0  1.500033  0  0  0.414349  0  1.992499  0  0  0.452909  0  1.920289  0  0  0.392703  0.387849  0  2.042385  0
Ag  Ag3  1  0.69205551  0.89819733  0.02439258  1  0  0.536133  0  1.500075  0  0  0.414388  0  1.992554  0  0  0.452957  0  1.920313  0  0  0.392686  0.38789  0  2.042435  0
H  H4  1  0.91864283  0.34311274  0.32866437  1  0  0.124383  0  0.982714  0  0  0.130324  0  1.049113  0  0  0.134498  0  1.04497  0  0  0.123102  0.127235  0  1.052201  0
H  H5  1  0.08132159  0.15688753  0.82866577  1  0  0.124378  0  0.982792  0  0  0.130351  0  1.049142  0  0  0.134526  0  1.044997  0  0  0.123118  0.12727  0  1.05222  0
H  H6  1  0.08135145  0.65688286  0.67133494  1  0  0.124419  0  0.98266  0  0  0.130312  0  1.049099  0  0  0.134487  0  1.044955  0  0  0.123096  0.127226  0  1.052184  0
H  H7  1  0.91866432  0.84310712  0.17133411  1  0  0.124427  0  0.98271  0  0  0.130322  0  1.049131  0  0  0.134497  0  1.044984  0  0  0.123117  0.127239  0  1.052218  0
H  H8  1  0.05314941  0.28052208  0.19360531  1  0  0.122299  0  0.930213  0  0  0.133341  0  0.984748  0  0  0.136894  0  0.982869  0  0  0.116637  0.13077  0  0.986265  0
H  H9  1  0.94681099  0.21948225  0.69360432  1  0  0.122367  0  0.930129  0  0  0.133432  0  0.984634  0  0  0.136988  0  0.98275  0  0  0.116747  0.130862  0  0.986152  0
H  H10  1  0.94682265  0.71947254  0.80639344  1  0  0.122354  0  0.930194  0  0  0.133407  0  0.984721  0  0  0.136962  0  0.982839  0  0  0.116689  0.130834  0  0.986238  0
H  H11  1  0.05315830  0.78051236  0.30639329  1  0  0.1223  0  0.930347  0  0  0.13339  0  0.984823  0  0  0.136944  0  0.982939  0  0  0.116676  0.130819  0  0.986341  0
H  H12  1  0.52696755  0.95039595  0.28033135  1  0  0.115797  0  0.944971  0  0  0.126698  0  1.003557  0  0  0.129243  0  1.003149  0  0  0.113182  0.124879  0  1.003948  0
H  H13  1  0.47303973  0.54961921  0.78033774  1  0  0.115855  0  0.944827  0  0  0.126676  0  1.003508  0  0  0.129222  0  1.003099  0  0  0.113199  0.124858  0  1.003897  0
H  H14  1  0.47304387  0.04960707  0.71966570  1  0  0.11576  0  0.945029  0  0  0.126642  0  1.003649  0  0  0.129189  0  1.003238  0  0  0.113177  0.124824  0  1.004042  0
H  H15  1  0.52695579  0.45039392  0.21966781  1  0  0.115781  0  0.945044  0  0  0.126643  0  1.003662  0  0  0.129189  0  1.003254  0  0  0.113185  0.124826  0  1.004053  0
H  H16  1  0.37064786  0.02358159  0.41263581  1  0  0.127489  0  0.903042  0  0  0.140525  0  0.953553  0  0  0.145051  0  0.949305  0  0  0.138795  0.137235  0  0.956668  0
H  H17  1  0.62937538  0.47642536  0.91263985  1  0  0.127432  0  0.903089  0  0  0.140466  0  0.953615  0  0  0.14499  0  0.949375  0  0  0.138749  0.137178  0  0.956724  0
H  H18  1  0.62937966  0.97641409  0.58736464  1  0  0.127533  0  0.90307  0  0  0.140531  0  0.953624  0  0  0.145055  0  0.949377  0  0  0.138766  0.137244  0  0.956735  0
H  H19  1  0.37061961  0.52358038  0.08736797  1  0  0.127467  0  0.903316  0  0  0.140515  0  0.953785  0  0  0.145038  0  0.949535  0  0  0.13879  0.137226  0  0.9569  0
C  C20  1  0.05598820  0.25849052  0.31409092  1  0  -0.013372  0  3.601182  0  0  -0.054764  0  3.865901  0  0  -0.050693  0  3.880141  0  0  0.026215  -0.057173  0  3.856349  0
C  C21  1  0.94400217  0.24151285  0.81409025  1  0  -0.013546  0  3.601437  0  0  -0.054916  0  3.866079  0  0  -0.05085  0  3.880322  0  0  0.026191  -0.057321  0  3.856523  0
C  C22  1  0.94400068  0.74150691  0.68590613  1  0  -0.013455  0  3.601443  0  0  -0.054786  0  3.86615  0  0  -0.050717  0  3.88039  0  0  0.026239  -0.057198  0  3.856599  0
C  C23  1  0.05597318  0.75848916  0.18590226  1  0  -0.013291  0  3.600648  0  0  -0.054606  0  3.865356  0  0  -0.050534  0  3.879591  0  0  0.026329  -0.057023  0  3.855812  0
C  C24  1  0.13164144  0.22235429  0.24092936  1  0  -0.096148  0  3.750401  0  0  -0.117161  0  4.00371  0  0  -0.119907  0  4.022363  0  0  -0.075843  -0.115597  0  3.991215  0
C  C25  1  0.86832179  0.27763926  0.74093224  1  0  -0.096023  0  3.750168  0  0  -0.11709  0  4.003503  0  0  -0.119836  0  4.02216  0  0  -0.076008  -0.115516  0  3.991025  0
C  C26  1  0.86836682  0.77764319  0.75906655  1  0  -0.096226  0  3.750601  0  0  -0.117308  0  4.003868  0  0  -0.120056  0  4.022523  0  0  -0.075923  -0.115741  0  3.991373  0
C  C27  1  0.13163333  0.72235070  0.25907615  1  0  -0.096196  0  3.749815  0  0  -0.117278  0  4.003188  0  0  -0.120024  0  4.021841  0  0  -0.075953  -0.115719  0  3.990697  0
C  C28  1  0.30644328  0.11156800  0.22633523  1  0  -0.035085  0  3.742595  0  0  -0.021392  0  3.983296  0  0  -0.024488  0  4.002419  0  0  -0.012174  -0.019037  0  3.970137  0
C  C29  1  0.69355821  0.38844621  0.72633829  1  0  -0.035577  0  3.742496  0  0  -0.021899  0  3.983264  0  0  -0.025002  0  4.002389  0  0  -0.012368  -0.019592  0  3.970173  0
C  C30  1  0.69354559  0.88842943  0.77366182  1  0  -0.034972  0  3.742322  0  0  -0.021129  0  3.982831  0  0  -0.024224  0  4.00195  0  0  -0.012153  -0.018781  0  3.969682  0
C  C31  1  0.30642828  0.61155675  0.27365989  1  0  -0.035179  0  3.742949  0  0  -0.021564  0  3.983732  0  0  -0.024665  0  4.002864  0  0  -0.012287  -0.019207  0  3.970566  0
C  C32  1  0.39243530  0.03772024  0.28868937  1  0  -0.102161  0  3.762973  0  0  -0.123901  0  4.01974  0  0  -0.126614  0  4.040066  0  0  -0.077094  -0.12233  0  4.005987  0
C  C33  1  0.60757675  0.46228573  0.78870272  1  0  -0.10198  0  3.762745  0  0  -0.123617  0  4.01947  0  0  -0.126325  0  4.0398  0  0  -0.076984  -0.122033  0  4.005726  0
C  C34  1  0.60757856  0.96227818  0.71130258  1  0  -0.102109  0  3.762804  0  0  -0.123872  0  4.019534  0  0  -0.126587  0  4.039868  0  0  -0.077081  -0.122301  0  4.005787  0
C  C35  1  0.39240104  0.53771167  0.21131247  1  0  -0.102015  0  3.762737  0  0  -0.123695  0  4.01946  0  0  -0.126409  0  4.03979  0  0  -0.077024  -0.122127  0  4.005706  0
C  C36  1  0.31160181  0.07527551  0.36145984  1  0  -0.012751  0  3.600628  0  0  -0.056141  0  3.865696  0  0  -0.051241  0  3.877724  0  0  0.031221  -0.059058  0  3.857435  0
C  C37  1  0.68842277  0.42473008  0.86146795  1  0  -0.012583  0  3.600748  0  0  -0.055995  0  3.865816  0  0  -0.0511  0  3.877845  0  0  0.031353  -0.05891  0  3.857549  0
C  C38  1  0.68843150  0.92472388  0.63853607  1  0  -0.012939  0  3.600773  0  0  -0.056303  0  3.865867  0  0  -0.051405  0  3.877897  0  0  0.031145  -0.059221  0  3.857612  0
C  C39  1  0.31156907  0.57527013  0.13852853  1  0  -0.012699  0  3.600224  0  0  -0.056068  0  3.865238  0  0  -0.051159  0  3.877253  0  0  0.031321  -0.058991  0  3.856989  0
C  C40  1  0.39019102  0.07537153  0.14643001  1  0  0.634945  0  3.918711  0  0  0.580322  0  4.20915  0  0  0.615847  0  4.204913  0  0  0.202785  0.556126  0  4.211095  0
C  C41  1  0.60984057  0.42463271  0.64643543  1  0  0.635179  0  3.918364  0  0  0.58055  0  4.208823  0  0  0.616079  0  4.204573  0  0  0.202846  0.556368  0  4.210775  0
C  C42  1  0.60982587  0.92463058  0.85356761  1  0  0.634787  0  3.918729  0  0  0.580155  0  4.209153  0  0  0.615683  0  4.204915  0  0  0.202784  0.555958  0  4.211096  0
C  C43  1  0.39012074  0.57536650  0.35357239  1  0  0.634854  0  3.918808  0  0  0.580314  0  4.209196  0  0  0.615842  0  4.204952  0  0  0.202815  0.556118  0  4.211141  0
N  N44  1  0.14768002  0.18583976  0.37423346  1  0  0.279173  0  3.741291  0  0  0.333673  0  4.001741  0  0  0.336124  0  4.026153  0  0  -0.111144  0.331492  0  3.985236  0
N  N45  1  0.85235713  0.31416274  0.87423624  1  0  0.279041  0  3.741744  0  0  0.333517  0  4.002204  0  0  0.335972  0  4.026619  0  0  -0.111249  0.331333  0  3.985699  0
N  N46  1  0.85235574  0.81415502  0.62576359  1  0  0.279075  0  3.741973  0  0  0.333565  0  4.002389  0  0  0.33602  0  4.0268  0  0  -0.111225  0.331382  0  3.985884  0
N  N47  1  0.14766478  0.68583200  0.12577101  1  0  0.27907  0  3.74175  0  0  0.333511  0  4.002212  0  0  0.33596  0  4.026622  0  0  -0.111259  0.331331  0  3.985706  0
O  O48  1  0.07887277  0.21940676  0.44370350  1  0  -0.495832  0  1.755877  0  0  -0.452146  0  2.002866  0  0  -0.479914  0  1.9994  0  0  -0.231546  -0.433062  0  2.005105  0
O  O49  1  0.92113536  0.28060156  0.94370387  1  0  -0.495673  0  1.756274  0  0  -0.451934  0  2.003239  0  0  -0.479703  0  1.999777  0  0  -0.231399  -0.432852  0  2.005473  0
O  O50  1  0.92115553  0.78059999  0.55629581  1  0  -0.495578  0  1.756278  0  0  -0.451902  0  2.003266  0  0  -0.479663  0  1.999798  0  0  -0.231391  -0.43282  0  2.0055  0
O  O51  1  0.07886479  0.71939867  0.05629828  1  0  -0.495889  0  1.755882  0  0  -0.452149  0  2.002839  0  0  -0.479918  0  1.999369  0  0  -0.231577  -0.433065  0  2.005074  0
O  O52  1  0.55268112  0.97341345  0.13730791  1  0  -0.618187  0  2.139138  0  0  -0.541524  0  2.411828  0  0  -0.574753  0  2.402799  0  0  -0.321789  -0.518447  0  2.417279  0
O  O53  1  0.44731459  0.52659248  0.63731099  1  0  -0.618283  0  2.138906  0  0  -0.541613  0  2.411579  0  0  -0.574845  0  2.402542  0  0  -0.321835  -0.518528  0  2.417023  0
O  O54  1  0.44733030  0.02658957  0.86268744  1  0  -0.618025  0  2.1391  0  0  -0.541439  0  2.411858  0  0  -0.574668  0  2.402825  0  0  -0.321768  -0.518362  0  2.417309  0
O  O55  1  0.55267764  0.47341326  0.36268606  1  0  -0.61804  0  2.139017  0  0  -0.541466  0  2.411734  0  0  -0.574697  0  2.4027  0  0  -0.32176  -0.518384  0  2.417184  0
O  O56  1  0.28927459  0.14964368  0.09551822  1  0  -0.566702  0  2.07707  0  0  -0.492242  0  2.33384  0  0  -0.523012  0  2.321898  0  0  -0.315055  -0.470922  0  2.341331  0
O  O57  1  0.71073641  0.35036191  0.59552590  1  0  -0.566721  0  2.076922  0  0  -0.492271  0  2.333684  0  0  -0.523036  0  2.321737  0  0  -0.315039  -0.470954  0  2.341172  0
O  O58  1  0.71074198  0.85035382  0.90447996  1  0  -0.566703  0  2.077032  0  0  -0.49225  0  2.333803  0  0  -0.523022  0  2.32186  0  0  -0.315082  -0.470928  0  2.341287  0
O  O59  1  0.28925878  0.64964661  0.40447739  1  0  -0.566669  0  2.07735  0  0  -0.49222  0  2.334053  0  0  -0.522988  0  2.32212  0  0  -0.315075  -0.470898  0  2.341528  0
