# generated using pymatgen
data_ZnH20C19(NO)4
_symmetry_space_group_name_H-M   'P 1'
_cell_length_a   11.87243600
_cell_length_b   11.87307809
_cell_length_c   17.86977215
_cell_angle_alpha   102.86611200
_cell_angle_beta   101.82181440
_cell_angle_gamma   110.88139672
_symmetry_Int_Tables_number   1
_chemical_formula_structural   ZnH20C19(NO)4
_chemical_formula_sum   'Zn4 H80 C76 N16 O16'
_cell_volume   2179.85751297
_cell_formula_units_Z   4
loop_
 _symmetry_equiv_pos_site_id
 _symmetry_equiv_pos_as_xyz
  1  'x, y, z'
loop_
 _atom_site_type_symbol
 _atom_site_label
 _atom_site_symmetry_multiplicity
 _atom_site_fract_x
 _atom_site_fract_y
 _atom_site_fract_z
 _atom_site_occupancy
 _atom_site_pbe_bader_charge
 _atom_site_pbe_bader_spin_density
 _atom_site_pbe_cm5_charge
 _atom_site_pbe_ddec_charge
 _atom_site_pbe_ddec_spin_density
 _atom_site_pbe_ddec_sum_bond_order
 _atom_site_pbe_magmom
Zn  Zn0  1  0.27987059  0.22272644  0.04678140  1  1.260637  0  0.721637  0.775865  0  2.510082  0
Zn  Zn1  1  0.17605457  0.73333056  0.45327380  1  1.264484  0  0.721705  0.775287  0  2.506773  0
Zn  Zn2  1  0.72012998  0.77727490  0.95321896  1  1.260658  0  0.721627  0.775835  0  2.510097  0
Zn  Zn3  1  0.82394639  0.26666693  0.54672408  1  1.264463  0  0.72169  0.775268  0  2.506842  0
H  H4  1  0.79528362  0.29868819  0.14544027  1  0.044055  0  0.097144  0.098508  0  0.995396  0
H  H5  1  0.15346801  0.15002628  0.35477684  1  0.043554  0  0.09714  0.099309  0  0.995513  0
H  H6  1  0.20471655  0.70131072  0.85456064  1  0.044084  0  0.097148  0.098506  0  0.995396  0
H  H7  1  0.84653287  0.84997396  0.64522289  1  0.043532  0  0.097138  0.099319  0  0.995486  0
H  H8  1  0.86720905  0.44023674  0.12554016  1  0.056621  0  0.096751  0.098189  0  1.010065  0
H  H9  1  0.31486736  0.24179674  0.37447683  1  0.062558  0  0.095935  0.097912  0  1.010528  0
H  H10  1  0.13279108  0.55976329  0.87445975  1  0.056622  0  0.096754  0.098183  0  1.010063  0
H  H11  1  0.68513332  0.75820385  0.62552365  1  0.062584  0  0.095942  0.09792  0  1.01051  0
H  H12  1  0.67611544  0.69587802  0.17733644  1  0.048485  0  0.102389  0.144682  0  0.978129  0
H  H13  1  0.51890077  0.99917253  0.32264557  1  0.043217  0  0.102554  0.144212  0  0.978737  0
H  H14  1  0.32388468  0.30412201  0.82266348  1  0.04848  0  0.10238  0.1447  0  0.978139  0
H  H15  1  0.48110024  0.00083011  0.67735523  1  0.043397  0  0.102559  0.144219  0  0.978729  0
H  H16  1  0.76900767  0.67002135  0.11479167  1  0.072464  0  0.097379  0.146263  0  1.017534  0
H  H17  1  0.55543733  0.15449415  0.38519554  1  0.106338  0  0.098965  0.147484  0  1.017796  0
H  H18  1  0.23099333  0.32997815  0.88520817  1  0.072049  0  0.097379  0.146268  0  1.01753  0
H  H19  1  0.44456379  0.84550775  0.61480538  1  0.106365  0  0.098939  0.147433  0  1.017767  0
H  H20  1  0.80917170  0.66413525  0.21479668  1  0.064666  0  0.0955  0.136347  0  1.007238  0
H  H21  1  0.44958874  0.09467348  0.28526102  1  0.067138  0  0.09632  0.135977  0  1.008998  0
H  H22  1  0.19082623  0.33586456  0.78520295  1  0.064649  0  0.0955  0.136341  0  1.007246  0
H  H23  1  0.55041318  0.90532750  0.71474069  1  0.067071  0  0.096319  0.136  0  1.008918  0
H  H24  1  0.44275889  0.08997937  0.03270917  1  0.076956  0  0.097201  0.139883  0  1.019915  0
H  H25  1  0.05739731  0.91012478  0.46721301  1  0.08375  0  0.097894  0.141244  0  1.020433  0
H  H26  1  0.55724115  0.91002028  0.96729162  1  0.076954  0  0.097206  0.139899  0  1.019921  0
H  H27  1  0.94260314  0.08987730  0.53278723  1  0.083717  0  0.097907  0.14126  0  1.020451  0
H  H28  1  0.53438591  0.12365556  0.13376625  1  0.029717  0  0.094869  0.131849  0  0.997512  0
H  H29  1  0.99008852  0.90067388  0.36613424  1  0.062028  0  0.094487  0.131787  0  0.996895  0
H  H30  1  0.46561478  0.87634504  0.86623423  1  0.029729  0  0.094855  0.131833  0  0.997529  0
H  H31  1  0.00991240  0.09932523  0.63386647  1  0.06202  0  0.094478  0.131773  0  0.9969  0
H  H32  1  0.60838427  0.13022219  0.05751014  1  0.037056  0  0.098004  0.141199  0  0.993383  0
H  H33  1  0.07284855  0.05095911  0.44238731  1  0.029903  0  0.098414  0.14181  0  0.992795  0
H  H34  1  0.39161609  0.86977636  0.94249001  1  0.037059  0  0.097999  0.141185  0  0.993423  0
H  H35  1  0.92715082  0.94904073  0.55761280  1  0.029906  0  0.098416  0.141812  0  0.992794  0
H  H36  1  0.27784233  0.05780746  0.82414054  1  0.091405  0  0.102596  0.106584  0  1.012489  0
H  H37  1  0.23367886  0.95388542  0.67600682  1  0.087774  0  0.10269  0.107367  0  1.013012  0
H  H38  1  0.72215659  0.94219107  0.17585914  1  0.091519  0  0.10259  0.106593  0  1.012441  0
H  H39  1  0.76631919  0.04611364  0.32399293  1  0.087751  0  0.102723  0.107412  0  1.012963  0
H  H40  1  0.96121607  0.73875642  0.82504267  1  0.094899  0  0.105112  0.106404  0  1.004758  0
H  H41  1  0.91360207  0.63637449  0.67499442  1  0.071222  0  0.105248  0.108241  0  1.005079  0
H  H42  1  0.03878094  0.26124191  0.17495508  1  0.094902  0  0.105123  0.10639  0  1.004765  0
H  H43  1  0.08639482  0.36362459  0.32500322  1  0.070867  0  0.105239  0.108244  0  1.005063  0
H  H44  1  0.22168143  0.66538062  0.04159981  1  0.087507  0  0.105079  0.109712  0  0.992869  0
H  H45  1  0.62402325  0.68035601  0.45865717  1  0.077449  0  0.105948  0.111006  0  0.992214  0
H  H46  1  0.77831583  0.33461937  0.95839915  1  0.087494  0  0.105083  0.109719  0  0.992846  0
H  H47  1  0.37598038  0.31964502  0.54134340  1  0.077178  0  0.105942  0.111002  0  0.992249  0
H  H48  1  0.45557696  0.49566839  0.09407759  1  0.568936  0  0.311676  0.274374  0  1.009693  0
H  H49  1  0.40190125  0.86176395  0.40600554  1  0.548818  0  0.311305  0.274537  0  1.009387  0
H  H50  1  0.54442269  0.50433147  0.90592090  1  0.568949  0  0.311675  0.274394  0  1.009679  0
H  H51  1  0.59810131  0.13823797  0.59399586  1  0.549007  0  0.311311  0.274556  0  1.00938  0
H  H52  1  0.96292862  0.27916709  0.99742581  1  0.105878  0  0.103358  0.116528  0  1.035032  0
H  H53  1  0.28177745  0.46567039  0.50274509  1  0.124574  0  0.103427  0.115906  0  1.03528  0
H  H54  1  0.03707083  0.72083627  0.00257439  1  0.10586  0  0.103319  0.116483  0  1.035071  0
H  H55  1  0.71822208  0.53432757  0.49725613  1  0.124589  0  0.103423  0.11588  0  1.03531  0
H  H56  1  0.17862329  0.68838232  0.28225774  1  0.034577  0  0.096364  0.133402  0  1.023451  0
H  H57  1  0.40614645  0.39637090  0.21771230  1  0.049994  0  0.096097  0.133998  0  1.023214  0
H  H58  1  0.82137711  0.31161775  0.71774055  1  0.034554  0  0.096364  0.13341  0  1.023446  0
H  H59  1  0.59385511  0.60362916  0.78228810  1  0.050008  0  0.096081  0.133978  0  1.023222  0
H  H60  1  0.05862307  0.61372450  0.18634275  1  0.054404  0  0.095454  0.135644  0  1.016528  0
H  H61  1  0.42737966  0.37236958  0.31365289  1  0.056208  0  0.095823  0.135556  0  1.016556  0
H  H62  1  0.94137626  0.38627647  0.81365637  1  0.054425  0  0.095469  0.135665  0  1.016504  0
H  H63  1  0.57262221  0.62762938  0.68634688  1  0.05622  0  0.095828  0.135554  0  1.016576  0
H  H64  1  0.13346330  0.52688861  0.22696081  1  0.0475  0  0.098002  0.142522  0  0.981997  0
H  H65  1  0.30001840  0.40676825  0.27305619  1  0.062723  0  0.098078  0.142886  0  0.981631  0
H  H66  1  0.86653746  0.47311238  0.77303879  1  0.047488  0  0.097999  0.142506  0  0.982007  0
H  H67  1  0.69998133  0.59323249  0.72694524  1  0.062729  0  0.098069  0.142855  0  0.981674  0
H  H68  1  0.70332467  0.35420332  0.37199211  1  0.08365  0  0.100282  0.150421  0  1.011246  0
H  H69  1  0.98228978  0.83143440  0.12807275  1  0.103176  0  0.100812  0.149944  0  1.010618  0
H  H70  1  0.29667590  0.64579802  0.62800825  1  0.083618  0  0.100253  0.150383  0  1.011238  0
H  H71  1  0.01770812  0.16856654  0.87192589  1  0.103164  0  0.100806  0.149965  0  1.010597  0
H  H72  1  0.65252228  0.28464555  0.26482160  1  0.037977  0  0.096667  0.138635  0  1.006156  0
H  H73  1  0.01982089  0.88772253  0.23524252  1  0.043267  0  0.095349  0.136658  0  1.005384  0
H  H74  1  0.34747729  0.71535393  0.73517776  1  0.037965  0  0.096686  0.138677  0  1.006169  0
H  H75  1  0.98018274  0.11227850  0.76475805  1  0.043277  0  0.095348  0.136674  0  1.005374  0
H  H76  1  0.63083541  0.42160062  0.30850566  1  0.034692  0  0.095489  0.13547  0  1.008847  0
H  H77  1  0.11321067  0.82248919  0.19155035  1  0.04418  0  0.095284  0.135248  0  1.008669  0
H  H78  1  0.36916622  0.57839668  0.69149291  1  0.034684  0  0.095455  0.135428  0  1.008834  0
H  H79  1  0.88678921  0.17750918  0.80844837  1  0.044149  0  0.095283  0.135289  0  1.008625  0
H  H80  1  0.91983794  0.56297022  0.44151533  1  0.553114  0  0.311277  0.269809  0  1.016678  0
H  H81  1  0.12126893  0.97850374  0.05855574  1  0.562176  0  0.309995  0.26992  0  1.017263  0
H  H82  1  0.08016231  0.43702908  0.55848470  1  0.553118  0  0.311275  0.269806  0  1.016658  0
H  H83  1  0.87873100  0.02149665  0.94144494  1  0.562167  0  0.310007  0.269942  0  1.017207  0
C  C84  1  0.10277622  0.46895359  0.02056818  1  -0.00362  0  -0.018614  -0.036432  0  3.982366  0
C  C85  1  0.44847588  0.58237844  0.47965603  1  -0.051083  0  -0.018768  -0.036502  0  3.981894  0
C  C86  1  0.89722423  0.53104849  0.97943206  1  -0.003662  0  -0.018605  -0.036499  0  3.982414  0
C  C87  1  0.55152497  0.41762028  0.52034555  1  -0.052636  0  -0.018716  -0.036419  0  3.981776  0
C  C88  1  0.14927265  0.96772242  0.92109805  1  1.576258  0  0.210615  0.571032  0  4.219999  0
C  C89  1  0.04651258  0.72846834  0.57894140  1  1.579532  0  0.211025  0.571268  0  4.219465  0
C  C90  1  0.85072460  0.03227757  0.07890090  1  1.576293  0  0.210595  0.570975  0  4.219998  0
C  C91  1  0.95348237  0.27153216  0.42105714  1  1.579504  0  0.211031  0.571263  0  4.219644  0
C  C92  1  0.12213774  0.90361931  0.83281309  1  -0.067892  0  -0.017812  -0.035496  0  3.975762  0
C  C93  1  0.07072475  0.78949925  0.66725154  1  -0.067103  0  -0.016994  -0.035074  0  3.97427  0
C  C94  1  0.87786076  0.09638106  0.16718710  1  -0.068045  0  -0.017844  -0.035571  0  3.975811  0
C  C95  1  0.92927222  0.21050070  0.33274904  1  -0.067502  0  -0.016944  -0.035003  0  3.974284  0
C  C96  1  0.64688438  0.50103568  0.13230976  1  0.427156  0  0.105416  0.210286  0  3.96373  0
C  C97  1  0.36890763  0.01478297  0.36768723  1  0.41048  0  0.107029  0.214425  0  3.961625  0
C  C98  1  0.35311530  0.49896306  0.86768972  1  0.427143  0  0.105444  0.210276  0  3.963837  0
C  C99  1  0.63109274  0.98521872  0.63231388  1  0.410493  0  0.106977  0.214397  0  3.961696  0
C  C100  1  0.67749317  0.39660332  0.12949987  1  0.004608  0  -0.033215  -0.118616  0  3.969623  0
C  C101  1  0.26724793  0.04813959  0.37051545  1  0.036965  0  -0.034131  -0.121555  0  3.972266  0
C  C102  1  0.32250707  0.60339598  0.87050017  1  0.004634  0  -0.033227  -0.118614  0  3.969614  0
C  C103  1  0.73275351  0.95186121  0.62948483  1  0.036963  0  -0.034142  -0.121612  0  3.972369  0
C  C104  1  0.01957285  0.78468517  0.79130025  1  -0.002347  0  -0.080091  -0.094178  0  3.971488  0
C  C105  1  0.99325240  0.72846818  0.70875297  1  -0.053619  0  -0.081826  -0.096485  0  3.974364  0
C  C106  1  0.98042652  0.21531466  0.20869986  1  -0.002556  0  -0.080089  -0.094107  0  3.971485  0
C  C107  1  0.00674478  0.27153142  0.29124685  1  -0.053001  0  -0.081849  -0.096559  0  3.974353  0
C  C108  1  0.97803595  0.37507676  0.99712799  1  -0.079213  0  -0.08735  -0.109628  0  3.9741  0
C  C109  1  0.37795933  0.48094274  0.50298286  1  -0.019308  0  -0.086732  -0.10628  0  3.970702  0
C  C110  1  0.02196290  0.62492452  0.00287352  1  -0.079142  0  -0.08726  -0.109534  0  3.974112  0
C  C111  1  0.62203972  0.51905505  0.49701692  1  -0.017907  0  -0.086794  -0.106355  0  3.970631  0
C  C112  1  0.80552383  0.39769759  0.15934671  1  0.026041  0  -0.15002  -0.156044  0  4.0083  0
C  C113  1  0.23848906  0.14633360  0.34073372  1  0.016844  0  -0.149969  -0.157006  0  4.011338  0
C  C114  1  0.19447574  0.60230188  0.84065265  1  0.026033  0  -0.150007  -0.156004  0  4.008243  0
C  C115  1  0.76151306  0.85366702  0.65926724  1  0.016807  0  -0.149953  -0.156976  0  4.011305  0
C  C116  1  0.56115679  0.28789944  0.09466634  1  0.444571  0  0.093379  0.197689  0  4.030508  0
C  C117  1  0.19337128  0.96655298  0.40528593  1  0.441286  0  0.093336  0.19918  0  4.027407  0
C  C118  1  0.43884258  0.71210039  0.90533377  1  0.444537  0  0.093377  0.197658  0  4.030479  0
C  C119  1  0.80662896  0.03344632  0.59471411  1  0.441285  0  0.093348  0.199191  0  4.027406  0
C  C120  1  0.12412750  0.59401198  0.02361587  1  -0.051959  0  -0.085328  -0.100125  0  3.995933  0
C  C121  1  0.57044902  0.60065395  0.47649068  1  -0.073488  0  -0.086443  -0.103603  0  3.996035  0
C  C122  1  0.87587251  0.40598880  0.97638393  1  -0.051935  0  -0.085277  -0.100086  0  3.995898  0
C  C123  1  0.42955198  0.39934554  0.52350916  1  -0.073103  0  -0.086463  -0.103651  0  3.996145  0
C  C124  1  0.19891429  0.96511578  0.79101104  1  -0.036547  0  -0.090978  -0.104406  0  3.998788  0
C  C125  1  0.17405317  0.90804207  0.70908158  1  -0.009641  0  -0.089448  -0.105407  0  3.998385  0
C  C126  1  0.80108452  0.03488349  0.20898851  1  -0.036665  0  -0.09099  -0.104432  0  3.998696  0
C  C127  1  0.82594620  0.09195776  0.29091853  1  -0.009118  0  -0.089462  -0.105407  0  3.998281  0
C  C128  1  0.21234580  0.43427004  0.04074676  1  1.557138  0  0.2094  0.574791  0  4.2154  0
C  C129  1  0.39364534  0.67185242  0.45954798  1  1.563827  0  0.209502  0.573967  0  4.215002  0
C  C130  1  0.78765257  0.56572793  0.95925235  1  1.557177  0  0.209393  0.574929  0  4.215283  0
C  C131  1  0.60635718  0.32814798  0.54045528  1  1.563979  0  0.209536  0.574056  0  4.214706  0
C  C132  1  0.72940804  0.64026726  0.16136076  1  -0.050809  0  -0.228272  -0.422137  0  3.944727  0
C  C133  1  0.47912613  0.06831363  0.33866865  1  -0.09414  0  -0.23078  -0.422856  0  3.948948  0
C  C134  1  0.27059089  0.35973126  0.83863891  1  -0.0504  0  -0.228267  -0.422159  0  3.944743  0
C  C135  1  0.52087567  0.93168809  0.66133294  1  -0.094275  0  -0.230749  -0.422825  0  3.94881  0
C  C136  1  0.53521459  0.15087036  0.07875532  1  -0.034001  0  -0.230968  -0.4228  0  3.967068  0
C  C137  1  0.07224047  0.95653084  0.42116816  1  -0.072706  0  -0.231127  -0.424886  0  3.96614  0
C  C138  1  0.46478489  0.84912873  0.92124491  1  -0.033997  0  -0.230969  -0.422803  0  3.967114  0
C  C139  1  0.92776030  0.04347015  0.57883144  1  -0.072693  0  -0.231131  -0.42489  0  3.966128  0
C  C140  1  0.99873292  0.55786748  0.28315310  1  0.389024  0  0.091476  0.189816  0  4.042644  0
C  C141  1  0.27472148  0.21572748  0.21689572  1  0.458756  0  0.092613  0.191902  0  4.0419  0
C  C142  1  0.00126676  0.44213126  0.71684637  1  0.389019  0  0.091447  0.189799  0  4.042742  0
C  C143  1  0.72527901  0.78427347  0.78310551  1  0.459122  0  0.092589  0.191879  0  4.041852  0
C  C144  1  0.87155068  0.46749223  0.24781651  1  0.049296  0  -0.036036  -0.125135  0  3.991704  0
C  C145  1  0.21977963  0.12388617  0.25226376  1  0.040898  0  -0.035422  -0.125968  0  3.989947  0
C  C146  1  0.12844801  0.53250778  0.75218292  1  0.049296  0  -0.036031  -0.125135  0  3.991718  0
C  C147  1  0.78021974  0.87611366  0.74773636  1  0.040549  0  -0.035448  -0.126055  0  3.990038  0
C  C148  1  0.82263631  0.45666889  0.31232661  1  0.405599  0  0.103814  0.203825  0  3.974396  0
C  C149  1  0.14433406  0.01046383  0.18777381  1  0.372693  0  0.103014  0.206308  0  3.970871  0
C  C150  1  0.17736513  0.54333191  0.68767368  1  0.405413  0  0.103785  0.20378  0  3.974354  0
C  C151  1  0.85566587  0.98953656  0.81222687  1  0.372684  0  0.103011  0.206355  0  3.970827  0
C  C152  1  0.09743249  0.59953039  0.24301666  1  -0.022847  0  -0.23155  -0.41961  0  3.958665  0
C  C153  1  0.35652168  0.35456695  0.25699479  1  -0.071602  0  -0.231716  -0.420537  0  3.956932  0
C  C154  1  0.90256684  0.40047057  0.75698246  1  -0.022832  0  -0.231564  -0.419624  0  3.958685  0
C  C155  1  0.64347965  0.64543459  0.74300537  1  -0.071622  0  -0.231686  -0.420462  0  3.956998  0
C  C156  1  0.69572024  0.37495842  0.31472064  1  -0.034904  0  -0.231398  -0.427218  0  3.951308  0
C  C157  1  0.06028749  0.88111554  0.18536315  1  -0.03856  0  -0.230387  -0.424763  0  3.94891  0
C  C158  1  0.30428240  0.62504389  0.68527989  1  -0.034656  0  -0.231364  -0.427196  0  3.951241  0
C  C159  1  0.93971219  0.11888319  0.81463633  1  -0.038519  0  -0.230374  -0.424865  0  3.948848  0
N  N160  1  0.46604700  0.32414089  0.07739978  1  -0.739089  0  -0.275894  -0.258096  0  3.555261  0
N  N161  1  0.24690804  0.88870880  0.42250194  1  -0.777771  0  -0.275691  -0.257824  0  3.553843  0
N  N162  1  0.53395125  0.67585782  0.92259921  1  -0.739082  0  -0.275873  -0.258046  0  3.5552  0
N  N163  1  0.75309427  0.11129146  0.57749826  1  -0.777781  0  -0.275639  -0.257709  0  3.553671  0
N  N164  1  0.51937397  0.45296543  0.10050158  1  -0.892535  0  -0.279786  -0.14842  0  3.686679  0
N  N165  1  0.35266383  0.91901676  0.39943056  1  -0.83544  0  -0.281109  -0.151501  0  3.684854  0
N  N166  1  0.48062408  0.54703364  0.89949817  1  -0.89251  0  -0.279793  -0.148421  0  3.68669  0
N  N167  1  0.64733853  0.08098552  0.60057160  1  -0.835587  0  -0.281131  -0.151561  0  3.684867  0
N  N168  1  0.02441154  0.60066181  0.36409729  1  -0.783764  0  -0.273201  -0.258312  0  3.554939  0
N  N169  1  0.23644690  0.16042678  0.13595486  1  -0.803136  0  -0.274508  -0.25878  0  3.556226  0
N  N170  1  0.97558890  0.39933713  0.63590199  1  -0.783734  0  -0.273213  -0.258341  0  3.554919  0
N  N171  1  0.76355590  0.83957366  0.86404678  1  -0.803158  0  -0.274516  -0.258781  0  3.556039  0
N  N172  1  0.91722440  0.53834413  0.38040383  1  -0.81315  0  -0.27912  -0.13483  0  3.679621  0
N  N173  1  0.15786172  0.03694834  0.11967878  1  -0.832714  0  -0.276764  -0.136859  0  3.679816  0
N  N174  1  0.08277692  0.46165741  0.61959633  1  -0.8132  0  -0.279064  -0.134754  0  3.679515  0
N  N175  1  0.84213741  0.96305297  0.88032110  1  -0.832742  0  -0.276733  -0.136818  0  3.679627  0
O  O176  1  0.18152083  0.31325845  0.01327854  1  -1.173  0  -0.333952  -0.560166  0  2.399059  0
O  O177  1  0.29984030  0.66819232  0.48682321  1  -1.176692  0  -0.334044  -0.558844  0  2.399014  0
O  O178  1  0.81847626  0.68673811  0.98672502  1  -1.172964  0  -0.333955  -0.560198  0  2.399027  0
O  O179  1  0.70016146  0.33180738  0.51317643  1  -1.176766  0  -0.334048  -0.558882  0  2.398859  0
O  O180  1  0.23663074  0.08297945  0.94891192  1  -1.19436  0  -0.337853  -0.562786  0  2.390657  0
O  O181  1  0.13410864  0.78787140  0.55117328  1  -1.192676  0  -0.338971  -0.563304  0  2.388932  0
O  O182  1  0.76336543  0.91701829  0.05108691  1  -1.19444  0  -0.337888  -0.562821  0  2.390648  0
O  O183  1  0.86588502  0.21212721  0.44882590  1  -1.192707  0  -0.339037  -0.563363  0  2.389002  0
O  O184  1  0.08871659  0.90886763  0.96089617  1  -1.181723  0  -0.309514  -0.533949  0  2.194375  0
O  O185  1  0.94770715  0.62829026  0.53911463  1  -1.187662  0  -0.309928  -0.534017  0  2.194663  0
O  O186  1  0.91128110  0.09113052  0.03910226  1  -1.181705  0  -0.309464  -0.53386  0  2.194439  0
O  O187  1  0.05228906  0.37170321  0.46088422  1  -1.187537  0  -0.309888  -0.533995  0  2.194836  0
O  O188  1  0.32187926  0.51967396  0.08011478  1  -1.180441  0  -0.325252  -0.551116  0  2.133289  0
O  O189  1  0.43998272  0.74234992  0.42043504  1  -1.181194  0  -0.325393  -0.551515  0  2.133754  0
O  O190  1  0.67811931  0.48032630  0.91988073  1  -1.180505  0  -0.325244  -0.551183  0  2.133206  0
O  O191  1  0.56001844  0.25764770  0.57956591  1  -1.181232  0  -0.325389  -0.551548  0  2.133675  0
