# generated using pymatgen
data_HoH8C6NO7
_symmetry_space_group_name_H-M   'P 1'
_cell_length_a   6.57567662
_cell_length_b   6.76689951
_cell_length_c   19.44243377
_cell_angle_alpha   93.21434574
_cell_angle_beta   89.99962264
_cell_angle_gamma   90.00011823
_symmetry_Int_Tables_number   1
_chemical_formula_structural   HoH8C6NO7
_chemical_formula_sum   'Ho4 H32 C24 N4 O28'
_cell_volume   863.76780623
_cell_formula_units_Z   4
loop_
 _symmetry_equiv_pos_site_id
 _symmetry_equiv_pos_as_xyz
  1  'x, y, z'
loop_
 _atom_site_type_symbol
 _atom_site_label
 _atom_site_symmetry_multiplicity
 _atom_site_fract_x
 _atom_site_fract_y
 _atom_site_fract_z
 _atom_site_occupancy
 _atom_site_hle17_bader_spin_density
 _atom_site_hle17_ddec_charge
 _atom_site_hle17_ddec_spin_density
 _atom_site_hle17_ddec_sum_bond_order
 _atom_site_hle17_magmom
 _atom_site_hse06_10hf_bader_spin_density
 _atom_site_hse06_10hf_ddec_charge
 _atom_site_hse06_10hf_ddec_spin_density
 _atom_site_hse06_10hf_ddec_sum_bond_order
 _atom_site_hse06_10hf_magmom
 _atom_site_hse06_bader_spin_density
 _atom_site_hse06_ddec_charge
 _atom_site_hse06_ddec_spin_density
 _atom_site_hse06_ddec_sum_bond_order
 _atom_site_hse06_magmom
 _atom_site_pbe_bader_spin_density
 _atom_site_pbe_cm5_charge
 _atom_site_pbe_ddec_charge
 _atom_site_pbe_ddec_spin_density
 _atom_site_pbe_ddec_sum_bond_order
 _atom_site_pbe_magmom
Ho  Ho0  1  0.25813244  0.26777580  0.89797282  1  0  2.209403  0  1.657063  0  0  2.046461  0  2.148013  0  0  2.186404  0  1.937157  0  0  1.521902  2.00882  0  2.178287  0
Ho  Ho1  1  0.75813701  0.23222576  0.60203273  1  0  2.209458  0  1.657045  0  0  2.046363  0  2.148217  0  0  2.186416  0  1.937189  0  0  1.521937  2.008834  0  2.178333  0
Ho  Ho2  1  0.74186717  0.73222777  0.10202786  1  0  2.209404  0  1.657082  0  0  2.046358  0  2.148185  0  0  2.186377  0  1.937194  0  0  1.521899  2.008718  0  2.178456  0
Ho  Ho3  1  0.24186564  0.76777337  0.39796735  1  0  2.209424  0  1.657064  0  0  2.046352  0  2.148251  0  0  2.18641  0  1.937217  0  0  1.521937  2.008813  0  2.178381  0
H  H4  1  0.82230468  0.99822722  0.75032951  1  0  0.103598  0  0.963531  0  0  0.113433  0  1.029827  0  0  0.11624  0  1.028542  0  0  0.113044  0.111196  0  1.031577  0
H  H5  1  0.32230240  0.50176969  0.74967612  1  0  0.103598  0  0.963494  0  0  0.113469  0  1.029772  0  0  0.116275  0  1.028488  0  0  0.113052  0.111239  0  1.031508  0
H  H6  1  0.17769188  0.00177191  0.24967057  1  0  0.103607  0  0.96354  0  0  0.113448  0  1.029829  0  0  0.116256  0  1.028544  0  0  0.113056  0.111213  0  1.031577  0
H  H7  1  0.67769721  0.49823388  0.25032250  1  0  0.10359  0  0.963481  0  0  0.113483  0  1.02973  0  0  0.116289  0  1.028447  0  0  0.113075  0.111249  0  1.031479  0
H  H8  1  0.08838187  0.99337094  0.73549600  1  0  0.117079  0  0.910661  0  0  0.13318  0  0.964752  0  0  0.13577  0  0.963071  0  0  0.125711  0.131401  0  0.966019  0
H  H9  1  0.58837526  0.50662853  0.76450970  1  0  0.117122  0  0.910687  0  0  0.133198  0  0.964815  0  0  0.135787  0  0.963136  0  0  0.125714  0.13142  0  0.966079  0
H  H10  1  0.91161926  0.00662967  0.26450462  1  0  0.117165  0  0.910661  0  0  0.133235  0  0.964776  0  0  0.135826  0  0.963094  0  0  0.125733  0.131458  0  0.966043  0
H  H11  1  0.41162282  0.49337060  0.23548987  1  0  0.117098  0  0.910717  0  0  0.133176  0  0.964849  0  0  0.135765  0  0.963169  0  0  0.125693  0.131399  0  0.966112  0
H  H12  1  0.83763519  0.91790316  0.92597402  1  0  0.13588  0  0.929599  0  0  0.14912  0  0.986697  0  0  0.152303  0  0.984833  0  0  0.129023  0.146949  0  0.988065  0
H  H13  1  0.33765011  0.58209525  0.57403109  1  0  0.135878  0  0.929551  0  0  0.149141  0  0.986665  0  0  0.15232  0  0.984796  0  0  0.129039  0.14697  0  0.98803  0
H  H14  1  0.16235681  0.08209745  0.07402557  1  0  0.135847  0  0.929729  0  0  0.149122  0  0.986808  0  0  0.152298  0  0.984949  0  0  0.129025  0.146948  0  0.988178  0
H  H15  1  0.66235710  0.41790388  0.42596745  1  0  0.135845  0  0.929509  0  0  0.149053  0  0.986689  0  0  0.152228  0  0.984821  0  0  0.129004  0.146884  0  0.988056  0
H  H16  1  0.68962075  0.96283549  0.85245815  1  0  0.109398  0  0.923458  0  0  0.120753  0  0.98344  0  0  0.123987  0  0.98105  0  0  0.113348  0.118504  0  0.98515  0
H  H17  1  0.18962657  0.53717451  0.64754701  1  0  0.109387  0  0.923388  0  0  0.12073  0  0.983431  0  0  0.123963  0  0.981042  0  0  0.113306  0.118495  0  0.985124  0
H  H18  1  0.31037582  0.03717252  0.14754159  1  0  0.109431  0  0.923409  0  0  0.120778  0  0.983426  0  0  0.12401  0  0.981036  0  0  0.113352  0.11854  0  0.985124  0
H  H19  1  0.81037760  0.46282610  0.35245104  1  0  0.109411  0  0.923355  0  0  0.120755  0  0.983391  0  0  0.123986  0  0.981006  0  0  0.113345  0.118527  0  0.985078  0
H  H20  1  0.18597865  0.77697551  0.79373818  1  0  0.108875  0  0.919491  0  0  0.123915  0  0.978659  0  0  0.126469  0  0.97578  0  0  0.120229  0.12229  0  0.98038  0
H  H21  1  0.68597969  0.72303005  0.70626741  1  0  0.108726  0  0.919648  0  0  0.123837  0  0.978759  0  0  0.12639  0  0.975878  0  0  0.120183  0.122212  0  0.98048  0
H  H22  1  0.81401792  0.22302510  0.20626244  1  0  0.108858  0  0.919527  0  0  0.123907  0  0.978718  0  0  0.126461  0  0.975837  0  0  0.120218  0.122282  0  0.980439  0
H  H23  1  0.31402600  0.27696612  0.29373312  1  0  0.108763  0  0.919682  0  0  0.123887  0  0.978761  0  0  0.126442  0  0.975877  0  0  0.120207  0.122262  0  0.980482  0
H  H24  1  0.98604784  0.68976717  0.84328746  1  0  0.123329  0  0.933215  0  0  0.136104  0  0.989741  0  0  0.139893  0  0.986534  0  0  0.117401  0.133494  0  0.991957  0
H  H25  1  0.48604493  0.81023149  0.65671731  1  0  0.123286  0  0.933191  0  0  0.136034  0  0.989782  0  0  0.139821  0  0.986579  0  0  0.117368  0.133466  0  0.991939  0
H  H26  1  0.01395024  0.31023343  0.15671470  1  0  0.123318  0  0.933203  0  0  0.136116  0  0.989726  0  0  0.139904  0  0.986522  0  0  0.117406  0.133505  0  0.991942  0
H  H27  1  0.51396076  0.18976764  0.34328277  1  0  0.123367  0  0.933169  0  0  0.136092  0  0.989772  0  0  0.139879  0  0.986571  0  0  0.117417  0.133525  0  0.991926  0
H  H28  1  0.20810193  0.45561831  0.03329442  1  0  0.436273  0  0.85838  0  0  0.404308  0  0.925964  0  0  0.416174  0  0.908836  0  0  0.304556  0.39598  0  0.938154  0
H  H29  1  0.70810219  0.04438752  0.46670835  1  0  0.436254  0  0.858178  0  0  0.404236  0  0.926009  0  0  0.416114  0  0.90887  0  0  0.304537  0.395914  0  0.93819  0
H  H30  1  0.79190224  0.54438378  0.96670674  1  0  0.436313  0  0.858338  0  0  0.40431  0  0.925965  0  0  0.416189  0  0.908827  0  0  0.304565  0.395982  0  0.938155  0
H  H31  1  0.29189894  0.95561160  0.53329172  1  0  0.436286  0  0.858233  0  0  0.404256  0  0.926003  0  0  0.416134  0  0.908865  0  0  0.304549  0.395933  0  0.938183  0
H  H32  1  0.42228050  0.35097260  0.03825103  1  0  0.445776  0  0.835338  0  0  0.413286  0  0.907181  0  0  0.425107  0  0.889909  0  0  0.309551  0.405015  0  0.919474  0
H  H33  1  0.92228106  0.14902915  0.46175170  1  0  0.44569  0  0.83535  0  0  0.413197  0  0.907295  0  0  0.425017  0  0.890024  0  0  0.309497  0.404928  0  0.919585  0
H  H34  1  0.57772367  0.64902801  0.96174857  1  0  0.445792  0  0.835329  0  0  0.413307  0  0.907155  0  0  0.425127  0  0.889885  0  0  0.309563  0.405034  0  0.919451  0
H  H35  1  0.07772006  0.85096849  0.53824886  1  0  0.445718  0  0.835367  0  0  0.413221  0  0.907271  0  0  0.425042  0  0.889999  0  0  0.309505  0.404952  0  0.919561  0
C  C36  1  0.96905040  0.05711394  0.76951652  1  0  -0.201559  0  3.670555  0  0  -0.256036  0  3.924682  0  0  -0.259352  0  3.935546  0  0  -0.071216  -0.254684  0  3.920812  0
C  C37  1  0.46904788  0.44288502  0.73048799  1  0  -0.201391  0  3.670629  0  0  -0.255975  0  3.924698  0  0  -0.259299  0  3.935568  0  0  -0.071156  -0.254631  0  3.920845  0
C  C38  1  0.03094920  0.94288519  0.23048356  1  0  -0.201552  0  3.670581  0  0  -0.256052  0  3.924673  0  0  -0.259367  0  3.935538  0  0  -0.071229  -0.25471  0  3.920812  0
C  C39  1  0.53095021  0.55711411  0.26951158  1  0  -0.201421  0  3.670685  0  0  -0.256001  0  3.924754  0  0  -0.259324  0  3.935625  0  0  -0.071146  -0.254662  0  3.920897  0
C  C40  1  0.97649178  0.27891598  0.76081874  1  0  0.735699  0  3.819935  0  0  0.690176  0  4.118037  0  0  0.725272  0  4.112051  0  0  0.222985  0.666722  0  4.124765  0
C  C41  1  0.47648710  0.22108594  0.73919095  1  0  0.7358  0  3.819745  0  0  0.690203  0  4.118016  0  0  0.725314  0  4.11201  0  0  0.22311  0.666754  0  4.124734  0
C  C42  1  0.02351239  0.72108019  0.23918025  1  0  0.73571  0  3.8197  0  0  0.690158  0  4.117879  0  0  0.725252  0  4.111902  0  0  0.223025  0.666713  0  4.124596  0
C  C43  1  0.52350490  0.77891467  0.26080761  1  0  0.735795  0  3.819792  0  0  0.690164  0  4.118121  0  0  0.725271  0  4.112124  0  0  0.223053  0.666716  0  4.12484  0
C  C44  1  0.82231913  0.01536856  0.88274112  1  0  -0.202832  0  3.625388  0  0  -0.250775  0  3.86802  0  0  -0.254791  0  3.877918  0  0  -0.068371  -0.24839  0  3.863408  0
C  C45  1  0.32232494  0.48463310  0.61726428  1  0  -0.202641  0  3.625154  0  0  -0.250805  0  3.867915  0  0  -0.254808  0  3.877796  0  0  -0.068371  -0.248458  0  3.863368  0
C  C46  1  0.17767743  0.98463500  0.11725904  1  0  -0.202834  0  3.625471  0  0  -0.250904  0  3.868145  0  0  -0.254917  0  3.878048  0  0  -0.068392  -0.248526  0  3.863531  0
C  C47  1  0.67768075  0.51536603  0.38273425  1  0  -0.202647  0  3.625121  0  0  -0.250755  0  3.867881  0  0  -0.254756  0  3.877763  0  0  -0.068364  -0.248397  0  3.863287  0
C  C48  1  0.77921472  0.22001721  0.91542481  1  0  0.760454  0  3.787708  0  0  0.711497  0  4.084524  0  0  0.747119  0  4.078339  0  0  0.239339  0.687404  0  4.091568  0
C  C49  1  0.27921769  0.27998438  0.58458017  1  0  0.76028  0  3.787789  0  0  0.711363  0  4.084554  0  0  0.746988  0  4.078374  0  0  0.239307  0.68728  0  4.091586  0
C  C50  1  0.22078488  0.77998636  0.08457535  1  0  0.760446  0  3.787781  0  0  0.711526  0  4.084548  0  0  0.747147  0  4.078364  0  0  0.239364  0.687427  0  4.091601  0
C  C51  1  0.72078648  0.72001474  0.41541888  1  0  0.760175  0  3.787912  0  0  0.711286  0  4.08466  0  0  0.746914  0  4.07848  0  0  0.239308  0.68721  0  4.091686  0
C  C52  1  0.10065316  0.80724866  0.84173782  1  0  -0.1908  0  3.664151  0  0  -0.247939  0  3.924503  0  0  -0.249628  0  3.93162  0  0  -0.070398  -0.247182  0  3.9218  0
C  C53  1  0.60065505  0.69275231  0.65826685  1  0  -0.19052  0  3.664172  0  0  -0.247823  0  3.92451  0  0  -0.249505  0  3.93162  0  0  -0.070372  -0.247089  0  3.921782  0
C  C54  1  0.89934644  0.19275195  0.15826331  1  0  -0.190693  0  3.664132  0  0  -0.247969  0  3.924564  0  0  -0.249657  0  3.93168  0  0  -0.070418  -0.247214  0  3.921861  0
C  C55  1  0.39935064  0.30724682  0.34173323  1  0  -0.190756  0  3.664299  0  0  -0.248047  0  3.924661  0  0  -0.249733  0  3.931772  0  0  -0.070463  -0.247312  0  3.921935  0
C  C56  1  0.25429153  0.78943428  0.89952120  1  0  0.744529  0  3.801745  0  0  0.698103  0  4.10252  0  0  0.733095  0  4.097045  0  0  0.235059  0.674609  0  4.109072  0
C  C57  1  0.75428696  0.71056103  0.60048095  1  0  0.744484  0  3.80165  0  0  0.698091  0  4.10241  0  0  0.733082  0  4.096942  0  0  0.235054  0.674605  0  4.108966  0
C  C58  1  0.74570807  0.21056633  0.10047891  1  0  0.744502  0  3.801783  0  0  0.69809  0  4.102579  0  0  0.733083  0  4.097106  0  0  0.235044  0.674598  0  4.109128  0
C  C59  1  0.24571569  0.28943809  0.39951964  1  0  0.744522  0  3.801655  0  0  0.698114  0  4.102431  0  0  0.73311  0  4.096955  0  0  0.235068  0.674624  0  4.108992  0
N  N60  1  0.01061750  0.00597698  0.84080909  1  0  -0.225524  0  3.340017  0  0  -0.153487  0  3.593  0  0  -0.174232  0  3.619506  0  0  -0.388199  -0.144416  0  3.578405  0
N  N61  1  0.51062000  0.49402564  0.65919705  1  0  -0.226012  0  3.340446  0  0  -0.153526  0  3.593047  0  0  -0.174286  0  3.619563  0  0  -0.388234  -0.144473  0  3.578486  0
N  N62  1  0.98938210  0.99402511  0.15919208  1  0  -0.225722  0  3.340159  0  0  -0.153438  0  3.592898  0  0  -0.174191  0  3.619402  0  0  -0.388193  -0.144368  0  3.578311  0
N  N63  1  0.48938265  0.50597201  0.34080249  1  0  -0.225878  0  3.340408  0  0  -0.153412  0  3.593027  0  0  -0.174168  0  3.61954  0  0  -0.388246  -0.144361  0  3.578476  0
O  O64  1  0.05613139  0.38724087  0.80878151  1  0  -0.72492  0  2.113502  0  0  -0.672145  0  2.366945  0  0  -0.708857  0  2.355327  0  0  -0.382494  -0.653965  0  2.372132  0
O  O65  1  0.55614009  0.11275738  0.69122443  1  0  -0.724909  0  2.113288  0  0  -0.672083  0  2.366779  0  0  -0.708813  0  2.355145  0  0  -0.382497  -0.653929  0  2.371979  0
O  O66  1  0.94386213  0.61275826  0.19121805  1  0  -0.724908  0  2.113415  0  0  -0.672114  0  2.366879  0  0  -0.708834  0  2.355266  0  0  -0.382508  -0.653935  0  2.372059  0
O  O67  1  0.44385343  0.88724175  0.30877565  1  0  -0.724927  0  2.113309  0  0  -0.672077  0  2.366795  0  0  -0.708815  0  2.355178  0  0  -0.382511  -0.653919  0  2.371989  0
O  O68  1  0.91093258  0.34376420  0.70498524  1  0  -0.72871  0  2.054238  0  0  -0.678888  0  2.317903  0  0  -0.71748  0  2.304938  0  0  -0.396871  -0.66026  0  2.323187  0
O  O69  1  0.41092063  0.15623170  0.79501676  1  0  -0.728775  0  2.054356  0  0  -0.678961  0  2.318079  0  0  -0.717534  0  2.305111  0  0  -0.396968  -0.660317  0  2.323359  0
O  O70  1  0.08906854  0.65623493  0.29501484  1  0  -0.728729  0  2.054203  0  0  -0.678899  0  2.317896  0  0  -0.717487  0  2.30493  0  0  -0.396885  -0.660272  0  2.323179  0
O  O71  1  0.58906681  0.84376595  0.20498174  1  0  -0.728719  0  2.054434  0  0  -0.678872  0  2.318161  0  0  -0.717452  0  2.305192  0  0  -0.396904  -0.660229  0  2.323443  0
O  O72  1  0.93016939  0.31896225  0.94104430  1  0  -0.725901  0  2.019045  0  0  -0.66671  0  2.26582  0  0  -0.705519  0  2.252139  0  0  -0.386058  -0.647279  0  2.272345  0
O  O73  1  0.43017568  0.18103515  0.55896334  1  0  -0.725828  0  2.01909  0  0  -0.66661  0  2.265883  0  0  -0.70544  0  2.252204  0  0  -0.386045  -0.64719  0  2.272388  0
O  O74  1  0.06983174  0.68103539  0.05895780  1  0  -0.725862  0  2.019087  0  0  -0.66669  0  2.265878  0  0  -0.705506  0  2.252188  0  0  -0.386041  -0.647255  0  2.272402  0
O  O75  1  0.56982697  0.81896398  0.44103622  1  0  -0.725719  0  2.019017  0  0  -0.666588  0  2.265866  0  0  -0.705417  0  2.252185  0  0  -0.386054  -0.647176  0  2.272382  0
O  O76  1  0.59987960  0.28454487  0.91846615  1  0  -0.720695  0  2.080424  0  0  -0.664279  0  2.343401  0  0  -0.702537  0  2.32625  0  0  -0.398818  -0.645745  0  2.350453  0
O  O77  1  0.09988553  0.21546382  0.58153681  1  0  -0.720589  0  2.080454  0  0  -0.66417  0  2.343441  0  0  -0.702435  0  2.326262  0  0  -0.398819  -0.645655  0  2.350495  0
O  O78  1  0.40011848  0.71546314  0.08153255  1  0  -0.720701  0  2.080547  0  0  -0.664277  0  2.343518  0  0  -0.702539  0  2.326345  0  0  -0.398863  -0.645744  0  2.350576  0
O  O79  1  0.90011712  0.78453530  0.41846327  1  0  -0.720516  0  2.08047  0  0  -0.664117  0  2.343474  0  0  -0.702393  0  2.326315  0  0  -0.398802  -0.645608  0  2.350533  0
O  O80  1  0.31102471  0.94725705  0.93232396  1  0  -0.687371  0  1.963774  0  0  -0.635253  0  2.211  0  0  -0.672248  0  2.196296  0  0  -0.38044  -0.617614  0  2.217179  0
O  O81  1  0.81102044  0.55274132  0.56767761  1  0  -0.68734  0  1.963796  0  0  -0.635274  0  2.211087  0  0  -0.672283  0  2.196374  0  0  -0.380448  -0.617645  0  2.21726  0
O  O82  1  0.68898250  0.05274504  0.06767412  1  0  -0.687364  0  1.963771  0  0  -0.635252  0  2.211019  0  0  -0.672258  0  2.196309  0  0  -0.380447  -0.617612  0  2.217196  0
O  O83  1  0.18898829  0.44725633  0.43232347  1  0  -0.687355  0  1.963873  0  0  -0.635235  0  2.211115  0  0  -0.672247  0  2.196401  0  0  -0.380441  -0.617606  0  2.217289  0
O  O84  1  0.32588998  0.61807240  0.90971068  1  0  -0.731055  0  1.983688  0  0  -0.673043  0  2.235956  0  0  -0.710746  0  2.218073  0  0  -0.373156  -0.654866  0  2.244107  0
O  O85  1  0.82588595  0.88192599  0.59029085  1  0  -0.731052  0  1.983582  0  0  -0.672999  0  2.235812  0  0  -0.710717  0  2.217924  0  0  -0.373129  -0.654834  0  2.243955  0
O  O86  1  0.67411115  0.38192672  0.09028991  1  0  -0.731051  0  1.98373  0  0  -0.673014  0  2.235986  0  0  -0.710727  0  2.2181  0  0  -0.373131  -0.654836  0  2.244135  0
O  O87  1  0.17411517  0.11807314  0.40970819  1  0  -0.731038  0  1.983534  0  0  -0.673005  0  2.235812  0  0  -0.710724  0  2.217922  0  0  -0.373128  -0.654838  0  2.243958  0
O  O88  1  0.28429183  0.33379459  0.01828125  1  0  -0.890932  0  1.896318  0  0  -0.841765  0  2.103197  0  0  -0.872439  0  2.061485  0  0  -0.63613  -0.827985  0  2.127271  0
O  O89  1  0.78429357  0.16620990  0.48172235  1  0  -0.890933  0  1.896132  0  0  -0.841655  0  2.103319  0  0  -0.872365  0  2.061575  0  0  -0.636074  -0.827897  0  2.127393  0
O  O90  1  0.71570930  0.66620602  0.98171937  1  0  -0.891006  0  1.896311  0  0  -0.841788  0  2.10323  0  0  -0.872495  0  2.061483  0  0  -0.636146  -0.828009  0  2.127314  0
O  O91  1  0.21570756  0.83379071  0.51827775  1  0  -0.890957  0  1.896198  0  0  -0.841687  0  2.103304  0  0  -0.872396  0  2.061549  0  0  -0.636085  -0.827921  0  2.127366  0
