# generated using pymatgen
data_AgH16C13S(NO)3
_symmetry_space_group_name_H-M   'P 1'
_cell_length_a   8.77913916
_cell_length_b   13.88894867
_cell_length_c   13.77236180
_cell_angle_alpha   109.52949953
_cell_angle_beta   90.01926802
_cell_angle_gamma   108.39814178
_symmetry_Int_Tables_number   1
_chemical_formula_structural   AgH16C13S(NO)3
_chemical_formula_sum   'Ag4 H64 C52 S4 N12 O12'
_cell_volume   1491.24112188
_cell_formula_units_Z   4
loop_
 _symmetry_equiv_pos_site_id
 _symmetry_equiv_pos_as_xyz
  1  'x, y, z'
loop_
 _atom_site_type_symbol
 _atom_site_label
 _atom_site_symmetry_multiplicity
 _atom_site_fract_x
 _atom_site_fract_y
 _atom_site_fract_z
 _atom_site_occupancy
 _atom_site_hle17_bader_spin_density
 _atom_site_hle17_ddec_charge
 _atom_site_hle17_ddec_spin_density
 _atom_site_hle17_ddec_sum_bond_order
 _atom_site_hle17_magmom
 _atom_site_hse06_10hf_bader_spin_density
 _atom_site_hse06_10hf_ddec_charge
 _atom_site_hse06_10hf_ddec_spin_density
 _atom_site_hse06_10hf_ddec_sum_bond_order
 _atom_site_hse06_10hf_magmom
 _atom_site_hse06_bader_spin_density
 _atom_site_hse06_ddec_charge
 _atom_site_hse06_ddec_spin_density
 _atom_site_hse06_ddec_sum_bond_order
 _atom_site_hse06_magmom
 _atom_site_pbe_bader_spin_density
 _atom_site_pbe_cm5_charge
 _atom_site_pbe_ddec_charge
 _atom_site_pbe_ddec_spin_density
 _atom_site_pbe_ddec_sum_bond_order
 _atom_site_pbe_magmom
Ag  Ag0  1  0.18662711  0.73964885  0.93813779  1  0  0.519895  0  1.442481  0  0  0.389296  0  1.869848  0  0  0.410495  0  1.830728  0  0  0.493551  0.376192  0  1.896071  0
Ag  Ag1  1  0.44671863  0.26030732  0.56178291  1  0  0.51946  0  1.441658  0  0  0.389046  0  1.868423  0  0  0.410439  0  1.829266  0  0  0.493156  0.375692  0  1.894761  0
Ag  Ag2  1  0.81338693  0.26036118  0.06186403  1  0  0.519851  0  1.442565  0  0  0.389267  0  1.869914  0  0  0.410459  0  1.830802  0  0  0.493554  0.376153  0  1.896136  0
Ag  Ag3  1  0.55326988  0.73968809  0.43821281  1  0  0.519383  0  1.441621  0  0  0.389025  0  1.8684  0  0  0.410422  0  1.829239  0  0  0.493168  0.375671  0  1.894736  0
H  H4  1  0.55351174  0.83004530  0.94122839  1  0  0.094939  0  0.944431  0  0  0.105185  0  1.005585  0  0  0.107351  0  1.004896  0  0  0.121451  0.103409  0  1.006565  0
H  H5  1  0.72332750  0.17000183  0.55859571  1  0  0.095598  0  0.943937  0  0  0.105497  0  1.005451  0  0  0.107776  0  1.004598  0  0  0.121  0.103637  0  1.00654  0
H  H6  1  0.44650495  0.16996547  0.05877076  1  0  0.094947  0  0.944331  0  0  0.105154  0  1.005545  0  0  0.10732  0  1.00485  0  0  0.121386  0.103376  0  1.00653  0
H  H7  1  0.27665127  0.82999232  0.44141486  1  0  0.095746  0  0.944161  0  0  0.105629  0  1.005645  0  0  0.107909  0  1.004791  0  0  0.12106  0.103775  0  1.006719  0
H  H8  1  0.15425383  0.39106223  0.02522958  1  0  0.110067  0  0.924952  0  0  0.11944  0  0.984186  0  0  0.122318  0  0.981762  0  0  0.124634  0.117289  0  0.986164  0
H  H9  1  0.76306652  0.60885555  0.47474348  1  0  0.109104  0  0.924597  0  0  0.119026  0  0.983296  0  0  0.12197  0  0.980827  0  0  0.12443  0.116824  0  0.985316  0
H  H10  1  0.84574388  0.60893794  0.97476330  1  0  0.110063  0  0.924945  0  0  0.119482  0  0.984101  0  0  0.12236  0  0.981682  0  0  0.124639  0.11733  0  0.986078  0
H  H11  1  0.23693045  0.39114083  0.52525909  1  0  0.109142  0  0.924574  0  0  0.119054  0  0.983264  0  0  0.122001  0  0.980788  0  0  0.124419  0.116856  0  0.985278  0
H  H12  1  0.38390074  0.65733682  0.99533905  1  0  0.100867  0  0.978413  0  0  0.118527  0  1.053579  0  0  0.120603  0  1.051235  0  0  0.085105  0.11696  0  1.055253  0
H  H13  1  0.72659584  0.34265411  0.50499459  1  0  0.101025  0  0.977813  0  0  0.118807  0  1.052815  0  0  0.12092  0  1.050413  0  0  0.085216  0.117214  0  1.054549  0
H  H14  1  0.61610140  0.34265851  0.00465375  1  0  0.100838  0  0.978388  0  0  0.118475  0  1.053585  0  0  0.120551  0  1.051241  0  0  0.085065  0.11691  0  1.055261  0
H  H15  1  0.27340709  0.65734736  0.49501904  1  0  0.100967  0  0.977871  0  0  0.118787  0  1.052825  0  0  0.120902  0  1.05042  0  0  0.085212  0.117195  0  1.054559  0
H  H16  1  0.36013166  0.52485582  0.90532007  1  0  0.139291  0  0.953266  0  0  0.157887  0  1.01567  0  0  0.159597  0  1.014884  0  0  0.100751  0.156538  0  1.016352  0
H  H17  1  0.83519797  0.47515139  0.59491136  1  0  0.13946  0  0.953074  0  0  0.157935  0  1.01555  0  0  0.159604  0  1.014824  0  0  0.100528  0.156626  0  1.016186  0
H  H18  1  0.63986592  0.47513952  0.09467272  1  0  0.139266  0  0.95327  0  0  0.157865  0  1.015686  0  0  0.159576  0  1.014895  0  0  0.100709  0.156512  0  1.016374  0
H  H19  1  0.16480998  0.52485558  0.40509675  1  0  0.139469  0  0.953009  0  0  0.157952  0  1.015474  0  0  0.159622  0  1.014745  0  0  0.100537  0.156644  0  1.016111  0
H  H20  1  0.40664215  0.55476463  0.03968323  1  0  0.133229  0  0.935455  0  0  0.157637  0  0.986557  0  0  0.158762  0  0.987263  0  0  0.102589  0.156755  0  0.986139  0
H  H21  1  0.85193005  0.44508401  0.46056483  1  0  0.133163  0  0.935826  0  0  0.157787  0  0.986599  0  0  0.158957  0  0.987233  0  0  0.102685  0.156894  0  0.986172  0
H  H22  1  0.59335086  0.44523069  0.96030884  1  0  0.133188  0  0.935568  0  0  0.157608  0  0.986645  0  0  0.158732  0  0.987355  0  0  0.102586  0.156728  0  0.986219  0
H  H23  1  0.14807264  0.55491471  0.53943485  1  0  0.13314  0  0.935824  0  0  0.157728  0  0.986646  0  0  0.158894  0  0.987281  0  0  0.102682  0.156835  0  0.986222  0
H  H24  1  0.91009165  0.07431206  0.03136212  1  0  0.144138  0  0.965884  0  0  0.162665  0  1.028014  0  0  0.165298  0  1.025833  0  0  0.098681  0.160585  0  1.029732  0
H  H25  1  0.83569880  0.92546525  0.46868884  1  0  0.143943  0  0.966552  0  0  0.162847  0  1.02819  0  0  0.165522  0  1.025939  0  0  0.099246  0.160749  0  1.02994  0
H  H26  1  0.08992168  0.92568971  0.96863054  1  0  0.144078  0  0.96582  0  0  0.162576  0  1.028023  0  0  0.165213  0  1.025837  0  0  0.098646  0.160498  0  1.029743  0
H  H27  1  0.16426351  0.07451419  0.53131198  1  0  0.144035  0  0.966491  0  0  0.162903  0  1.028174  0  0  0.165579  0  1.025919  0  0  0.099228  0.160803  0  1.029925  0
H  H28  1  0.83761578  0.92901493  0.96603548  1  0  0.138212  0  0.944381  0  0  0.160699  0  0.997303  0  0  0.162224  0  0.997523  0  0  0.100483  0.159514  0  0.997204  0
H  H29  1  0.90867107  0.07080325  0.53383155  1  0  0.139241  0  0.943479  0  0  0.16173  0  0.996312  0  0  0.163239  0  0.996549  0  0  0.101402  0.160555  0  0.996199  0
H  H30  1  0.16238817  0.07099087  0.03395774  1  0  0.138174  0  0.944396  0  0  0.160679  0  0.99729  0  0  0.162204  0  0.997512  0  0  0.100465  0.159495  0  0.997192  0
H  H31  1  0.09131564  0.92918402  0.46616013  1  0  0.139205  0  0.943621  0  0  0.161706  0  0.996432  0  0  0.163215  0  0.996668  0  0  0.101339  0.160528  0  0.996316  0
H  H32  1  0.85321620  0.01615550  0.89544107  1  0  0.127405  0  0.940084  0  0  0.152392  0  0.996424  0  0  0.152639  0  0.997545  0  0  0.101118  0.152004  0  0.995818  0
H  H33  1  0.83714618  0.98384296  0.60459507  1  0  0.12813  0  0.938769  0  0  0.15305  0  0.995279  0  0  0.153272  0  0.996422  0  0  0.101079  0.152683  0  0.994649  0
H  H34  1  0.14679041  0.98384878  0.10455602  1  0  0.127398  0  0.939996  0  0  0.152397  0  0.996342  0  0  0.152643  0  0.997471  0  0  0.101134  0.152012  0  0.995731  0
H  H35  1  0.16283547  0.01614783  0.39540935  1  0  0.128171  0  0.938712  0  0  0.15307  0  0.995241  0  0  0.153291  0  0.996387  0  0  0.101099  0.152698  0  0.994615  0
H  H36  1  0.14859500  0.66659088  0.72242506  1  0  0.313243  0  0.94208  0  0  0.296893  0  1.006363  0  0  0.303659  0  1.001321  0  0  0.287606  0.292091  0  1.009895  0
H  H37  1  0.48198021  0.33341245  0.77760184  1  0  0.312485  0  0.943629  0  0  0.296276  0  1.007634  0  0  0.30305  0  1.002571  0  0  0.287147  0.291468  0  1.011185  0
H  H38  1  0.85140776  0.33341255  0.27756958  1  0  0.313154  0  0.942238  0  0  0.296824  0  1.006483  0  0  0.303589  0  1.001445  0  0  0.287601  0.292022  0  1.010014  0
H  H39  1  0.51802131  0.66658620  0.22239491  1  0  0.312467  0  0.943489  0  0  0.296273  0  1.007493  0  0  0.303047  0  1.002431  0  0  0.287101  0.291463  0  1.011046  0
H  H40  1  0.21684440  0.57560622  0.75035971  1  0  0.333172  0  0.923399  0  0  0.320455  0  0.979035  0  0  0.327188  0  0.973881  0  0  0.294497  0.315666  0  0.982704  0
H  H41  1  0.64105794  0.42435981  0.74967972  1  0  0.333749  0  0.922261  0  0  0.320858  0  0.978189  0  0  0.327606  0  0.972969  0  0  0.294632  0.316081  0  0.981848  0
H  H42  1  0.78317418  0.42439240  0.24963558  1  0  0.333232  0  0.923299  0  0  0.320476  0  0.979039  0  0  0.327214  0  0.973867  0  0  0.294452  0.315687  0  0.982709  0
H  H43  1  0.35893661  0.57563402  0.25031695  1  0  0.333665  0  0.922316  0  0  0.320792  0  0.978211  0  0  0.327537  0  0.973002  0  0  0.294617  0.316012  0  0.981865  0
H  H44  1  0.84345884  0.85126586  0.70488704  1  0  0.10041  0  0.9405  0  0  0.11405  0  0.994892  0  0  0.117534  0  0.992959  0  0  0.102271  0.111561  0  0.996333  0
H  H45  1  0.99259358  0.14900211  0.79553604  1  0  0.101208  0  0.939823  0  0  0.114818  0  0.99416  0  0  0.11838  0  0.992133  0  0  0.102758  0.112276  0  0.995678  0
H  H46  1  0.15656043  0.14875234  0.29512028  1  0  0.100466  0  0.940435  0  0  0.114086  0  0.994849  0  0  0.11757  0  0.992915  0  0  0.102284  0.111599  0  0.996291  0
H  H47  1  0.00741003  0.85098933  0.20446206  1  0  0.101176  0  0.939983  0  0  0.114838  0  0.994258  0  0  0.118399  0  0.992228  0  0  0.102816  0.112292  0  0.995779  0
H  H48  1  0.62310821  0.92198310  0.68014706  1  0  0.077663  0  0.998884  0  0  0.089419  0  1.063859  0  0  0.091108  0  1.063875  0  0  0.091874  0.088278  0  1.063854  0
H  H49  1  0.70165382  0.07826223  0.82028244  1  0  0.077576  0  0.999201  0  0  0.088884  0  1.064828  0  0  0.090643  0  1.064755  0  0  0.091163  0.087703  0  1.064889  0
H  H50  1  0.37690387  0.07803668  0.31985859  1  0  0.07775  0  0.998822  0  0  0.089448  0  1.063821  0  0  0.09114  0  1.063839  0  0  0.091908  0.088308  0  1.063815  0
H  H51  1  0.29833608  0.92172685  0.17971781  1  0  0.077509  0  0.99954  0  0  0.088827  0  1.065142  0  0  0.090579  0  1.065083  0  0  0.091169  0.087644  0  1.065206  0
H  H52  1  0.49379702  0.59355575  0.77520598  1  0  0.122246  0  0.953815  0  0  0.130995  0  1.015917  0  0  0.135041  0  1.013502  0  0  0.106322  0.128073  0  1.017722  0
H  H53  1  0.89997420  0.40641423  0.72481857  1  0  0.121682  0  0.954404  0  0  0.130353  0  1.016727  0  0  0.134394  0  1.014312  0  0  0.106026  0.127431  0  1.018535  0
H  H54  1  0.50620980  0.40644437  0.22478543  1  0  0.122107  0  0.953874  0  0  0.130862  0  1.015977  0  0  0.134904  0  1.013568  0  0  0.106274  0.12795  0  1.017784  0
H  H55  1  0.10002351  0.59358364  0.27517938  1  0  0.121668  0  0.954359  0  0  0.130365  0  1.016646  0  0  0.134406  0  1.014232  0  0  0.106025  0.127442  0  1.018456  0
H  H56  1  0.35553704  0.91829306  0.68110890  1  0  0.099404  0  0.970081  0  0  0.122297  0  1.029808  0  0  0.122706  0  1.031337  0  0  0.085654  0.12204  0  1.028696  0
H  H57  1  0.43757800  0.08176940  0.81904448  1  0  0.099242  0  0.970483  0  0  0.122259  0  1.029959  0  0  0.122659  0  1.031509  0  0  0.085694  0.122032  0  1.028796  0
H  H58  1  0.64446873  0.08171635  0.31890071  1  0  0.099363  0  0.970067  0  0  0.122234  0  1.029853  0  0  0.122643  0  1.031383  0  0  0.085604  0.121976  0  1.028738  0
H  H59  1  0.56241638  0.91823093  0.18095498  1  0  0.099238  0  0.970427  0  0  0.122252  0  1.029923  0  0  0.122632  0  1.031493  0  0  0.08567  0.122022  0  1.028762  0
H  H60  1  0.24953297  0.86803088  0.77388214  1  0  0.1093  0  0.94253  0  0  0.130033  0  1.005323  0  0  0.131739  0  1.004479  0  0  0.090267  0.128791  0  1.005944  0
H  H61  1  0.38174334  0.13203964  0.72623300  1  0  0.109196  0  0.943289  0  0  0.12943  0  1.006617  0  0  0.131135  0  1.005759  0  0  0.090355  0.128186  0  1.00725  0
H  H62  1  0.75047526  0.13197436  0.22612106  1  0  0.109316  0  0.942458  0  0  0.130064  0  1.005241  0  0  0.131768  0  1.004401  0  0  0.090273  0.128821  0  1.005862  0
H  H63  1  0.61826020  0.86796077  0.27377013  1  0  0.109194  0  0.94323  0  0  0.12944  0  1.006552  0  0  0.131147  0  1.005691  0  0  0.090321  0.128186  0  1.00719  0
H  H64  1  0.20585264  0.78718496  0.64240810  1  0  0.118366  0  0.945526  0  0  0.142475  0  1.000309  0  0  0.144105  0  0.999708  0  0  0.095179  0.141245  0  1.000796  0
H  H65  1  0.41899896  0.21291672  0.85769667  1  0  0.118509  0  0.946243  0  0  0.142553  0  1.001049  0  0  0.144182  0  1.00045  0  0  0.095029  0.141323  0  1.00154  0
H  H66  1  0.79416007  0.21282923  0.35759941  1  0  0.118352  0  0.945567  0  0  0.142511  0  1.000279  0  0  0.144144  0  0.999673  0  0  0.095225  0.141277  0  1.000769  0
H  H67  1  0.58099799  0.78708192  0.14229935  1  0  0.118529  0  0.946239  0  0  0.142569  0  1.001044  0  0  0.1442  0  1.00044  0  0  0.095017  0.141331  0  1.001537  0
C  C68  1  0.52911751  0.90638393  0.96784704  1  0  0.03059  0  3.657204  0  0  -0.00667  0  3.910962  0  0  -0.003535  0  3.927294  0  0  0.049546  -0.009489  0  3.901211  0
C  C69  1  0.62273114  0.09362448  0.53203236  1  0  0.028782  0  3.65657  0  0  -0.00825  0  3.910208  0  0  -0.005209  0  3.926562  0  0  0.05005  -0.010972  0  3.900384  0
C  C70  1  0.47088912  0.09362039  0.03215151  1  0  0.030598  0  3.657217  0  0  -0.0067  0  3.910898  0  0  -0.003566  0  3.927227  0  0  0.049562  -0.009525  0  3.901149  0
C  C71  1  0.37725461  0.90636314  0.46797395  1  0  0.028487  0  3.656854  0  0  -0.008531  0  3.910688  0  0  -0.005489  0  3.927038  0  0  0.050014  -0.011257  0  3.900867  0
C  C72  1  0.65548820  0.00380600  0.98598438  1  0  0.261067  0  3.721668  0  0  0.267203  0  3.971209  0  0  0.27204  0  3.990739  0  0  0.122795  0.263427  0  3.95881  0
C  C73  1  0.65173484  0.99620310  0.51402761  1  0  0.261963  0  3.722761  0  0  0.267552  0  3.97302  0  0  0.272308  0  3.992712  0  0  0.122718  0.263853  0  3.960462  0
C  C74  1  0.34451964  0.99620303  0.01400913  1  0  0.260873  0  3.72174  0  0  0.267211  0  3.971032  0  0  0.272053  0  3.990562  0  0  0.122757  0.263437  0  3.95864  0
C  C75  1  0.34824138  0.00378597  0.48597190  1  0  0.262098  0  3.722797  0  0  0.26758  0  3.973091  0  0  0.272342  0  3.992774  0  0  0.122818  0.263881  0  3.96054  0
C  C76  1  0.16218739  0.53477833  0.99270948  1  0  0.26268  0  3.708676  0  0  0.268575  0  3.956363  0  0  0.272716  0  3.978795  0  0  0.125182  0.265412  0  3.941602  0
C  C77  1  0.62743791  0.46519370  0.50734436  1  0  0.263425  0  3.705684  0  0  0.267938  0  3.955721  0  0  0.272098  0  3.978136  0  0  0.125203  0.264749  0  3.940975  0
C  C78  1  0.83781748  0.46522020  0.00728215  1  0  0.262704  0  3.708641  0  0  0.268686  0  3.956198  0  0  0.272827  0  3.97863  0  0  0.12525  0.265522  0  3.941437  0
C  C79  1  0.37256790  0.53480442  0.49266384  1  0  0.263274  0  3.705992  0  0  0.267962  0  3.955816  0  0  0.272121  0  3.978235  0  0  0.125252  0.264775  0  3.941071  0
C  C80  1  0.08571630  0.44011762  0.01347105  1  0  0.049386  0  3.624837  0  0  0.0106  0  3.878829  0  0  0.013384  0  3.895728  0  0  0.055049  0.008332  0  3.868082  0
C  C81  1  0.64556604  0.55981528  0.48652668  1  0  0.052643  0  3.622286  0  0  0.013988  0  3.876464  0  0  0.016719  0  3.893413  0  0  0.056642  0.011746  0  3.865698  0
C  C82  1  0.91428138  0.55988018  0.98652399  1  0  0.049341  0  3.624964  0  0  0.010527  0  3.878865  0  0  0.013309  0  3.89576  0  0  0.055043  0.008263  0  3.868113  0
C  C83  1  0.35443499  0.44018694  0.51348501  1  0  0.05257  0  3.622577  0  0  0.013919  0  3.876538  0  0  0.016648  0  3.893485  0  0  0.056564  0.011676  0  3.865772  0
C  C84  1  0.33866724  0.57035096  0.98321019  1  0  -0.371297  0  3.700075  0  0  -0.455156  0  3.935234  0  0  -0.458129  0  3.943469  0  0  -0.240262  -0.452714  0  3.929704  0
C  C85  1  0.76834606  0.42961034  0.51700981  1  0  -0.371671  0  3.69798  0  0  -0.455061  0  3.933215  0  0  -0.458069  0  3.941454  0  0  -0.239829  -0.452608  0  3.92766  0
C  C86  1  0.66132774  0.42964600  0.01678312  1  0  -0.371199  0  3.699864  0  0  -0.455099  0  3.935039  0  0  -0.45807  0  3.943279  0  0  -0.24022  -0.452659  0  3.929516  0
C  C87  1  0.23166209  0.57039018  0.48299770  1  0  -0.371596  0  3.698027  0  0  -0.45508  0  3.933278  0  0  -0.458088  0  3.941521  0  0  -0.239873  -0.452629  0  3.927722  0
C  C88  1  0.82362568  0.00577793  0.96975368  1  0  -0.392282  0  3.70503  0  0  -0.475561  0  3.936074  0  0  -0.479066  0  3.944967  0  0  -0.240129  -0.472675  0  3.930268  0
C  C89  1  0.81789931  0.99412479  0.53021864  1  0  -0.394314  0  3.703178  0  0  -0.477756  0  3.93418  0  0  -0.481307  0  3.943153  0  0  -0.241676  -0.474844  0  3.928317  0
C  C90  1  0.17638406  0.99423034  0.03024178  1  0  -0.392122  0  3.704999  0  0  -0.475463  0  3.936007  0  0  -0.47898  0  3.944908  0  0  -0.24008  -0.472564  0  3.930166  0
C  C91  1  0.18208410  0.00586271  0.46978255  1  0  -0.394389  0  3.703375  0  0  -0.477772  0  3.934439  0  0  -0.481324  0  3.943406  0  0  -0.241647  -0.474851  0  3.92858  0
C  C92  1  0.68089790  0.71996690  0.74445973  1  0  -0.101345  0  3.794767  0  0  -0.07846  0  4.04676  0  0  -0.082636  0  4.069086  0  0  -0.027459  -0.075701  0  4.031634  0
C  C93  1  0.96096324  0.28007960  0.75567232  1  0  -0.099718  0  3.795793  0  0  -0.076899  0  4.04761  0  0  -0.081006  0  4.069822  0  0  -0.026579  -0.074233  0  4.03265  0
C  C94  1  0.31912259  0.28004009  0.25554911  1  0  -0.101374  0  3.794759  0  0  -0.078805  0  4.04721  0  0  -0.082995  0  4.069563  0  0  -0.027575  -0.076035  0  4.032071  0
C  C95  1  0.03904333  0.71992460  0.24432111  1  0  -0.099594  0  3.796122  0  0  -0.076846  0  4.048026  0  0  -0.080936  0  4.070227  0  0  -0.026621  -0.074176  0  4.033067  0
C  C96  1  0.71955818  0.81176227  0.71595858  1  0  -0.106504  0  3.81783  0  0  -0.136901  0  4.083886  0  0  -0.138778  0  4.104052  0  0  -0.109521  -0.135432  0  4.070025  0
C  C97  1  0.90803182  0.18838029  0.78431072  1  0  -0.108275  0  3.817886  0  0  -0.138651  0  4.083764  0  0  -0.140616  0  4.103895  0  0  -0.11036  -0.137126  0  4.069947  0
C  C98  1  0.28045848  0.18824618  0.28404419  1  0  -0.106503  0  3.818254  0  0  -0.136778  0  4.084342  0  0  -0.138651  0  4.104513  0  0  -0.109466  -0.135313  0  4.070484  0
C  C99  1  0.09196410  0.81162084  0.21568900  1  0  -0.10826  0  3.818487  0  0  -0.138673  0  4.084404  0  0  -0.14064  0  4.104518  0  0  -0.110371  -0.137155  0  4.070598  0
C  C100  1  0.59569626  0.85006125  0.70149504  1  0  -0.141607  0  3.835066  0  0  -0.164282  0  4.098956  0  0  -0.16477  0  4.118864  0  0  -0.106862  -0.163808  0  4.085147  0
C  C101  1  0.74598678  0.15005923  0.79875202  1  0  -0.140346  0  3.833749  0  0  -0.16283  0  4.097344  0  0  -0.163359  0  4.117203  0  0  -0.105503  -0.16235  0  4.083584  0
C  C102  1  0.40431241  0.14994716  0.29850627  1  0  -0.14167  0  3.835656  0  0  -0.164276  0  4.099482  0  0  -0.164768  0  4.119388  0  0  -0.106917  -0.163802  0  4.085677  0
C  C103  1  0.25399461  0.84994018  0.20124279  1  0  -0.140147  0  3.834012  0  0  -0.16272  0  4.097589  0  0  -0.163243  0  4.117436  0  0  -0.105456  -0.162243  0  4.08384  0
C  C104  1  0.43540347  0.80034331  0.71457128  1  0  0.025158  0  3.744084  0  0  0.050845  0  3.982305  0  0  0.047859  0  4.007309  0  0  -0.026002  0.052954  0  3.965165  0
C  C105  1  0.63524630  0.19967039  0.78552359  1  0  0.025353  0  3.746859  0  0  0.051355  0  3.98424  0  0  0.048375  0  4.009239  0  0  -0.026162  0.053456  0  3.967121  0
C  C106  1  0.56460207  0.19966110  0.28543093  1  0  0.025068  0  3.74429  0  0  0.050778  0  3.982519  0  0  0.047794  0  4.007524  0  0  -0.026062  0.052887  0  3.965376  0
C  C107  1  0.36472860  0.80032744  0.21447217  1  0  0.025275  0  3.746673  0  0  0.051433  0  3.983832  0  0  0.048454  0  4.008819  0  0  -0.026209  0.053535  0  3.966713  0
C  C108  1  0.39791845  0.70592251  0.74075247  1  0  0.24949  0  3.800135  0  0  0.240419  0  4.045799  0  0  0.248182  0  4.068584  0  0  0.087772  0.235028  0  4.030119  0
C  C109  1  0.69203320  0.29408067  0.75934398  1  0  0.248685  0  3.803813  0  0  0.239821  0  4.049112  0  0  0.24757  0  4.07189  0  0  0.087528  0.23444  0  4.033438  0
C  C110  1  0.60208741  0.29408026  0.25924850  1  0  0.249532  0  3.800419  0  0  0.240415  0  4.046131  0  0  0.248178  0  4.068916  0  0  0.087823  0.235025  0  4.03045  0
C  C111  1  0.30796006  0.70591969  0.24065695  1  0  0.248656  0  3.803836  0  0  0.239809  0  4.049015  0  0  0.247558  0  4.071791  0  0  0.087511  0.23442  0  4.033341  0
C  C112  1  0.52228431  0.66648448  0.75552233  1  0  -0.191156  0  3.720596  0  0  -0.220685  0  3.976213  0  0  -0.224295  0  3.995692  0  0  -0.105003  -0.218082  0  3.96307  0
C  C113  1  0.85571241  0.33348403  0.74452263  1  0  -0.190245  0  3.722812  0  0  -0.219736  0  3.978124  0  0  -0.223336  0  3.997555  0  0  -0.104598  -0.217113  0  3.964988  0
C  C114  1  0.47773198  0.33351412  0.24447223  1  0  -0.190935  0  3.720643  0  0  -0.22035  0  3.976345  0  0  -0.223956  0  3.995829  0  0  -0.104923  -0.217767  0  3.963212  0
C  C115  1  0.14428883  0.66651864  0.25547395  1  0  -0.190298  0  3.723154  0  0  -0.21979  0  3.978413  0  0  -0.2234  0  3.997843  0  0  -0.10462  -0.217175  0  3.965284  0
C  C116  1  0.30602178  0.84589551  0.70192506  1  0  -0.325156  0  3.736542  0  0  -0.405167  0  3.968986  0  0  -0.406954  0  3.979189  0  0  -0.243431  -0.40365  0  3.961799  0
C  C117  1  0.46042043  0.15415001  0.79818240  1  0  -0.325646  0  3.741044  0  0  -0.405345  0  3.973255  0  0  -0.407164  0  3.983534  0  0  -0.243868  -0.403805  0  3.965993  0
C  C118  1  0.69398537  0.15411215  0.29807818  1  0  -0.325138  0  3.736519  0  0  -0.405182  0  3.968935  0  0  -0.406968  0  3.979136  0  0  -0.243427  -0.403655  0  3.961743  0
C  C119  1  0.53956697  0.84584547  0.20181625  1  0  -0.325693  0  3.740757  0  0  -0.40546  0  3.972954  0  0  -0.407259  0  3.983248  0  0  -0.243828  -0.403917  0  3.965692  0
S  S120  1  0.83944204  0.67496096  0.77213972  1  0  1.289344  0  5.672108  0  0  1.194759  0  6.191934  0  0  1.242194  0  6.167432  0  0  0.496671  1.162032  0  6.207783  0
S  S121  1  0.16440529  0.32516944  0.72803104  1  0  1.288832  0  5.672926  0  0  1.194266  0  6.192794  0  0  1.241674  0  6.168259  0  0  0.496307  1.161569  0  6.208633  0
S  S122  1  0.16056141  0.32505066  0.22786116  1  0  1.28911  0  5.671345  0  0  1.194622  0  6.191229  0  0  1.242063  0  6.166721  0  0  0.496643  1.161901  0  6.207082  0
S  S123  1  0.83559377  0.67482202  0.27196778  1  0  1.288716  0  5.673037  0  0  1.1942  0  6.192876  0  0  1.241605  0  6.168335  0  0  0.496315  1.161508  0  6.208716  0
N  N124  1  0.24124378  0.65525959  0.75780364  1  0  -0.671208  0  3.174266  0  0  -0.616116  0  3.416343  0  0  -0.637673  0  3.414896  0  0  -0.610953  -0.600772  0  3.416786  0
N  N125  1  0.58592029  0.34471656  0.74225688  1  0  -0.671427  0  3.175856  0  0  -0.617165  0  3.418535  0  0  -0.638737  0  3.417142  0  0  -0.611063  -0.601823  0  3.418969  0
N  N126  1  0.75876044  0.34473992  0.24219557  1  0  -0.671194  0  3.174372  0  0  -0.616087  0  3.416425  0  0  -0.637644  0  3.414984  0  0  -0.610966  -0.600739  0  3.416861  0
N  N127  1  0.41408173  0.65528309  0.25774818  1  0  -0.67132  0  3.175336  0  0  -0.6171  0  3.418032  0  0  -0.638673  0  3.416639  0  0  -0.611031  -0.601756  0  3.418457  0
N  N128  1  0.07332434  0.59396311  0.97918788  1  0  -0.295805  0  3.27849  0  0  -0.221375  0  3.554428  0  0  -0.236069  0  3.571094  0  0  -0.322068  -0.211496  0  3.54336  0
N  N129  1  0.47943989  0.40608504  0.52084372  1  0  -0.298278  0  3.27853  0  0  -0.223623  0  3.555302  0  0  -0.238363  0  3.572011  0  0  -0.323539  -0.213686  0  3.544169  0
N  N130  1  0.92667868  0.40603628  0.02080620  1  0  -0.295782  0  3.278609  0  0  -0.221408  0  3.554562  0  0  -0.236101  0  3.571221  0  0  -0.322107  -0.211521  0  3.543493  0
N  N131  1  0.52056041  0.59390890  0.47915808  1  0  -0.298237  0  3.278397  0  0  -0.223691  0  3.555178  0  0  -0.238444  0  3.571909  0  0  -0.323662  -0.213748  0  3.544042  0
N  N132  1  0.37563589  0.90168140  0.98143891  1  0  -0.298954  0  3.274864  0  0  -0.229294  0  3.556834  0  0  -0.240385  0  3.568488  0  0  -0.327152  -0.22229  0  3.549624  0
N  N133  1  0.47388706  0.09824966  0.51840625  1  0  -0.2979  0  3.275255  0  0  -0.227437  0  3.556359  0  0  -0.238624  0  3.568196  0  0  -0.326433  -0.220322  0  3.548969  0
N  N134  1  0.62436886  0.09832371  0.01855918  1  0  -0.299109  0  3.274997  0  0  -0.229342  0  3.55699  0  0  -0.240428  0  3.568643  0  0  -0.327217  -0.222335  0  3.549773  0
N  N135  1  0.52609037  0.90173953  0.48159838  1  0  -0.29747  0  3.275208  0  0  -0.22717  0  3.556389  0  0  -0.238357  0  3.56823  0  0  -0.326401  -0.220057  0  3.548995  0
O  O136  1  0.92479229  0.75559838  0.87384914  1  0  -0.698218  0  1.97435  0  0  -0.640188  0  2.239824  0  0  -0.662016  0  2.222131  0  0  -0.363736  -0.624642  0  2.251362  0
O  O137  1  0.16915470  0.24465001  0.62626245  1  0  -0.697806  0  1.974853  0  0  -0.639848  0  2.240343  0  0  -0.661678  0  2.222629  0  0  -0.363217  -0.624292  0  2.251873  0
O  O138  1  0.07521652  0.24440348  0.12614718  1  0  -0.698151  0  1.974146  0  0  -0.640138  0  2.239616  0  0  -0.661964  0  2.221915  0  0  -0.363715  -0.624592  0  2.251154  0
O  O139  1  0.83084262  0.75534707  0.37373599  1  0  -0.697807  0  1.974963  0  0  -0.639865  0  2.240445  0  0  -0.661691  0  2.222717  0  0  -0.363206  -0.624312  0  2.251976  0
O  O140  1  0.76157419  0.56662796  0.77721643  1  0  -0.679231  0  1.979678  0  0  -0.628524  0  2.228347  0  0  -0.648816  0  2.214618  0  0  -0.348227  -0.614162  0  2.237321  0
O  O141  1  0.19461817  0.43351845  0.72302781  1  0  -0.679554  0  1.979841  0  0  -0.629644  0  2.229056  0  0  -0.649925  0  2.215334  0  0  -0.349389  -0.615283  0  2.238027  0
O  O142  1  0.23844833  0.43338764  0.22278280  1  0  -0.67912  0  1.979292  0  0  -0.628387  0  2.22792  0  0  -0.648676  0  2.214188  0  0  -0.348198  -0.61403  0  2.236904  0
O  O143  1  0.80539056  0.56647412  0.27698372  1  0  -0.679428  0  1.979882  0  0  -0.629561  0  2.229127  0  0  -0.649848  0  2.215406  0  0  -0.349302  -0.615202  0  2.238096  0
O  O144  1  0.94153161  0.67521307  0.68739999  1  0  -0.677019  0  1.945735  0  0  -0.624416  0  2.184375  0  0  -0.645659  0  2.171799  0  0  -0.348201  -0.609324  0  2.192472  0
O  O145  1  0.26637678  0.32486957  0.81272454  1  0  -0.677039  0  1.946167  0  0  -0.623739  0  2.184233  0  0  -0.645013  0  2.171761  0  0  -0.347682  -0.608619  0  2.192236  0
O  O146  1  0.05847252  0.32478169  0.31260206  1  0  -0.676946  0  1.945772  0  0  -0.624366  0  2.184435  0  0  -0.645609  0  2.171859  0  0  -0.348145  -0.609276  0  2.192536  0
O  O147  1  0.73360861  0.67510820  0.18727357  1  0  -0.67708  0  1.946253  0  0  -0.623759  0  2.18431  0  0  -0.645035  0  2.171838  0  0  -0.347729  -0.608644  0  2.192318  0
