# generated using pymatgen
data_Zn2H21C38N2(Cl3O4)2
_symmetry_space_group_name_H-M   'P 1'
_cell_length_a   11.01512375
_cell_length_b   14.09007028
_cell_length_c   26.19928602
_cell_angle_alpha   90.72725267
_cell_angle_beta   89.69109551
_cell_angle_gamma   90.25781573
_symmetry_Int_Tables_number   1
_chemical_formula_structural   Zn2H21C38N2(Cl3O4)2
_chemical_formula_sum   'Zn4 H42 C76 N4 Cl12 O16'
_cell_volume   4065.80394937
_cell_formula_units_Z   2
loop_
 _symmetry_equiv_pos_site_id
 _symmetry_equiv_pos_as_xyz
  1  'x, y, z'
loop_
 _atom_site_type_symbol
 _atom_site_label
 _atom_site_symmetry_multiplicity
 _atom_site_fract_x
 _atom_site_fract_y
 _atom_site_fract_z
 _atom_site_occupancy
 _atom_site_pbe_bader_charge
 _atom_site_pbe_bader_spin_density
 _atom_site_pbe_cm5_charge
 _atom_site_pbe_ddec_charge
 _atom_site_pbe_ddec_spin_density
 _atom_site_pbe_ddec_sum_bond_order
 _atom_site_pbe_magmom
Zn  Zn0  1  0.54230852  0.38439379  0.49981190  1  1.295767  0  0.67724  0.849927  0  2.337048  0
Zn  Zn1  1  0.53784513  0.59217421  0.50573485  1  1.301271  0  0.677988  0.849049  0  2.372229  0
Zn  Zn2  1  0.46476206  0.62010796  0.08488610  1  1.2802  0  0.675383  0.840876  0  2.347356  0
Zn  Zn3  1  0.45318773  0.41451047  0.08300271  1  1.292373  0  0.675463  0.838978  0  2.362683  0
H  H4  1  0.71695425  0.04112905  0.47937393  1  0.077207  0  0.111633  0.121693  0  0.997259  0
H  H5  1  0.39871425  0.93010508  0.56327488  1  0.06354  0  0.110921  0.12146  0  0.996854  0
H  H6  1  0.62674193  0.73369754  0.44067187  1  0.12923  0  0.128998  0.110761  0  0.979387  0
H  H7  1  0.63302176  0.90990347  0.43085631  1  0.100079  0  0.116126  0.125475  0  0.984742  0
H  H8  1  0.36248072  0.24338130  0.50902876  1  0.129975  0  0.126225  0.107308  0  0.999487  0
H  H9  1  0.33364414  0.06755446  0.51168873  1  0.081571  0  0.114765  0.122638  0  0.988461  0
H  H10  1  0.62278072  0.38678049  0.18690796  1  0.14239  0  0.102971  0.126445  0  1.051004  0
H  H11  1  0.66588350  0.35942940  0.37466975  1  0.123022  0  0.102726  0.127067  0  1.035796  0
H  H12  1  0.44507469  0.35126700  0.76321802  1  0.038362  0  0.097248  0.098378  0  1.021377  0
H  H13  1  0.49676309  0.65220843  0.82075337  1  0.02099  0  0.096999  0.097302  0  1.023873  0
H  H14  1  0.51923351  0.37068400  0.93016238  1  0.084928  0  0.099546  0.102106  0  1.021133  0
H  H15  1  0.54122567  0.35072058  0.83673026  1  0.040562  0  0.098242  0.100819  0  1.004096  0
H  H16  1  0.61358946  0.61063866  0.65911101  1  0.088561  0  0.100286  0.103762  0  1.005875  0
H  H17  1  0.61211608  0.62742544  0.75327814  1  0.056589  0  0.098737  0.101367  0  1.005644  0
H  H18  1  0.82071144  0.55142983  0.59744378  1  0.106763  0  0.109666  0.136753  0  0.995159  0
H  H19  1  0.27007814  0.51186203  0.59483338  1  0.082205  0  0.109532  0.133085  0  1.001881  0
H  H20  1  0.62494413  0.96042327  0.12549446  1  0.069897  0  0.111812  0.122733  0  0.998591  0
H  H21  1  0.35102616  0.07787992  0.01213314  1  0.058319  0  0.110643  0.119883  0  1.001673  0
H  H22  1  0.53277983  0.26833427  0.14945236  1  0.125665  0  0.119871  0.094176  0  1.018932  0
H  H23  1  0.54359668  0.09361287  0.15551517  1  0.098005  0  0.11193  0.119498  0  1.002586  0
H  H24  1  0.31175726  0.76224514  0.04510661  1  0.115892  0  0.128637  0.105672  0  0.975607  0
H  H25  1  0.28863514  0.93768212  0.04173641  1  0.107484  0  0.113779  0.120468  0  0.994458  0
H  H26  1  0.73656057  0.42919580  0.99811733  1  0.105469  0  0.109461  0.138142  0  1.001723  0
H  H27  1  0.18454024  0.47930270  0.99034509  1  0.115383  0  0.110406  0.135594  0  0.998362  0
H  H28  1  0.76423927  0.27445896  0.44271993  1  0.081581  0  0.09688  0.148998  0  1.01729  0
H  H29  1  0.79107662  0.27528710  0.50862082  1  0.078152  0  0.107315  0.169614  0  0.976833  0
H  H30  1  0.83691690  0.17512225  0.47047866  1  0.003694  0  0.096447  0.139658  0  0.987682  0
H  H31  1  0.30643975  0.69604859  0.55997618  1  0.09787  0  0.103993  0.162404  0  0.990136  0
H  H32  1  0.43469841  0.68975725  0.59939733  1  0.099745  0  0.10351  0.163939  0  1.009711  0
H  H33  1  0.33532340  0.78984460  0.60492894  1  0.047107  0  0.096977  0.139444  0  0.988874  0
H  H34  1  0.40224827  0.25954547  0.69429413  1  0.025682  0  0.085855  0.117022  0  1.007654  0
H  H35  1  0.37592707  0.31633067  0.63485034  1  0.040315  0  0.091745  0.134244  0  0.994418  0
H  H36  1  0.51724148  0.26328535  0.64592182  1  0.095369  0  0.092331  0.13619  0  0.995221  0
H  H37  1  0.38544253  0.71226511  0.93600140  1  0.068373  0  0.091287  0.13221  0  0.999905  0
H  H38  1  0.54204046  0.71939437  0.94750691  1  0.069248  0  0.093517  0.137782  0  0.991589  0
H  H39  1  0.48464991  0.75332002  0.88669398  1  0.006373  0  0.084399  0.113618  0  1.010216  0
H  H40  1  0.62535498  0.72325707  0.16413874  1  0.118783  0  0.101314  0.164086  0  1.00908  0
H  H41  1  0.71156059  0.72670877  0.10768458  1  0.103658  0  0.102494  0.164194  0  0.998328  0
H  H42  1  0.72274660  0.82314073  0.15272853  1  0.030592  0  0.096423  0.14121  0  0.988144  0
H  H43  1  0.23797548  0.30188323  0.01850936  1  0.104973  0  0.104843  0.165204  0  0.988443  0
H  H44  1  0.37551943  0.32398381  0.98632339  1  0.101791  0  0.101652  0.158588  0  1.030761  0
H  H45  1  0.29128371  0.21788654  0.97194435  1  0.063697  0  0.095428  0.138427  0  0.991805  0
C  C46  1  0.53998607  0.46822963  0.60105464  1  1.484204  0  0.214223  0.596523  0  4.165581  0
C  C47  1  0.30330941  0.48100320  0.50157438  1  1.622791  0  0.21371  0.608902  0  4.210657  0
C  C48  1  0.53272038  0.49627291  0.40463349  1  1.62042  0  0.21518  0.610306  0  4.169447  0
C  C49  1  0.77460607  0.51290866  0.50334481  1  1.623432  0  0.213875  0.610846  0  4.193655  0
C  C50  1  0.47826613  0.52371745  0.98545062  1  1.518061  0  0.212873  0.592044  0  4.158555  0
C  C51  1  0.22381092  0.52640380  0.08281972  1  1.653754  0  0.216323  0.613098  0  4.178058  0
C  C52  1  0.46428365  0.51646417  0.18294756  1  1.620523  0  0.215738  0.609185  0  4.171318  0
C  C53  1  0.69416067  0.50102593  0.08668471  1  1.5662  0  0.214723  0.606308  0  4.203589  0
C  C54  1  0.64590499  0.18243569  0.48533879  1  0.519435  0  0.135709  0.341473  0  3.923406  0
C  C55  1  0.63559319  0.08360005  0.48557504  1  -0.010118  0  -0.081783  -0.236676  0  3.897732  0
C  C56  1  0.44980300  0.78983962  0.53827072  1  0.508511  0  0.136725  0.340517  0  3.924291  0
C  C57  1  0.44948510  0.88885840  0.53494453  1  0.041362  0  -0.082582  -0.237587  0  3.898117  0
C  C58  1  0.57862738  0.78060879  0.46718047  1  0.49407  0  0.058563  0.116525  0  3.932782  0
C  C59  1  0.58179794  0.87836968  0.46205853  1  -0.004483  0  -0.082455  -0.186784  0  3.959939  0
C  C60  1  0.43850397  0.19517842  0.50291535  1  0.487004  0  0.058133  0.114812  0  3.923597  0
C  C61  1  0.42334263  0.09743527  0.50442876  1  -0.035757  0  -0.082557  -0.187629  0  3.963603  0
C  C62  1  0.52427956  0.03926959  0.49549420  1  0.000986  0  0.015253  0.117974  0  4.010672  0
C  C63  1  0.51729959  0.93479188  0.49723525  1  -0.127815  0  0.014448  0.114516  0  4.012073  0
C  C64  1  0.48349360  0.51347768  0.23995132  1  0.014778  0  -0.012078  -0.110872  0  3.896121  0
C  C65  1  0.56192252  0.44305058  0.26034216  1  0.005221  0  -0.002573  0.077846  0  3.960798  0
C  C66  1  0.42674910  0.57743236  0.27287529  1  0.124834  0  0.012125  0.067284  0  4.027242  0
C  C67  1  0.62811881  0.38001677  0.22812652  1  0.068985  0  -0.099466  -0.195438  0  3.977401  0
C  C68  1  0.70248528  0.31145055  0.24792354  1  0.028349  0  0.003411  0.089346  0  4.061743  0
C  C69  1  0.51645710  0.50276036  0.34763211  1  0.058372  0  -0.013311  -0.115097  0  3.896019  0
C  C70  1  0.44334674  0.57228443  0.32681126  1  0.070131  0  0.012488  0.069907  0  4.025949  0
C  C71  1  0.57728818  0.43690588  0.31447425  1  -0.021862  0  -0.000669  0.082769  0  3.955164  0
C  C72  1  0.65495476  0.36585504  0.33370891  1  0.022937  0  -0.099369  -0.186008  0  3.953113  0
C  C73  1  0.71554992  0.30381735  0.30161538  1  0.073748  0  0.003437  0.093462  0  4.065286  0
C  C74  1  0.53636957  0.47064088  0.65808365  1  0.066795  0  -0.023366  -0.10687  0  3.9359  0
C  C75  1  0.49353610  0.52114038  0.92867285  1  -0.009742  0  -0.023821  -0.109507  0  3.917667  0
C  C76  1  0.49084895  0.39486719  0.68751535  1  0.019439  0  -0.000248  0.169879  0  3.942598  0
C  C77  1  0.48580794  0.40758659  0.74051670  1  -0.110762  0  -0.095264  -0.201291  0  3.939798  0
C  C78  1  0.49007941  0.60275489  0.89763544  1  -0.002372  0  0.003497  0.179137  0  3.921319  0
C  C79  1  0.50220182  0.58970441  0.84480810  1  -0.033629  0  -0.095086  -0.201438  0  3.931686  0
C  C80  1  0.51203633  0.43190936  0.90551824  1  -0.048058  0  -0.092695  -0.092696  0  4.048558  0
C  C81  1  0.52395668  0.42088172  0.85313146  1  0.014508  0  -0.100189  -0.145976  0  4.016526  0
C  C82  1  0.57765194  0.55370193  0.68258022  1  -0.015225  0  -0.092604  -0.093439  0  4.046054  0
C  C83  1  0.57525340  0.56343490  0.73529807  1  -0.114533  0  -0.099812  -0.146471  0  4.012034  0
C  C84  1  0.52705838  0.49042135  0.76541558  1  0.035234  0  -0.005656  0.083767  0  4.010389  0
C  C85  1  0.51793051  0.50032196  0.82144456  1  -0.00478  0  -0.004338  0.086986  0  4.010638  0
C  C86  1  0.91127577  0.50619188  0.50286577  1  0.094281  0  -0.015554  -0.118728  0  3.924983  0
C  C87  1  0.97703448  0.51907657  0.54921105  1  -0.016424  0  -0.003288  0.075103  0  3.981194  0
C  C88  1  0.97255033  0.48379591  0.45800851  1  0.019352  0  0.009772  0.061998  0  4.042555  0
C  C89  1  0.91872695  0.54170387  0.59619098  1  0.03129  0  -0.092116  -0.179672  0  3.930432  0
C  C90  1  0.98448118  0.55291723  0.64062517  1  0.044797  0  0.004361  0.086458  0  4.069617  0
C  C91  1  0.16662893  0.48531706  0.50201459  1  -0.022821  0  -0.015679  -0.115803  0  3.944786  0
C  C92  1  0.10111107  0.47308213  0.45756593  1  0.145809  0  0.007594  0.06032  0  4.057437  0
C  C93  1  0.10622491  0.50799780  0.54866899  1  0.06235  0  -0.005748  0.069066  0  3.993936  0
C  C94  1  0.17173678  0.52000156  0.59473865  1  0.050389  0  -0.09447  -0.18595  0  3.951761  0
C  C95  1  0.11299357  0.54180078  0.63997818  1  0.094562  0  0.004335  0.085212  0  4.073433  0
C  C96  1  0.55883726  0.82032928  0.10884068  1  0.460664  0  0.13747  0.34519  0  3.917483  0
C  C97  1  0.55212307  0.91933434  0.10775290  1  0.024392  0  -0.080137  -0.232104  0  3.885901  0
C  C98  1  0.38536919  0.21649984  0.04349956  1  0.474493  0  0.137111  0.345328  0  3.914765  0
C  C99  1  0.39101408  0.11740517  0.04392265  1  0.04844  0  -0.081854  -0.234894  0  3.89418  0
C  C100  1  0.49338073  0.22322891  0.11981527  1  0.496161  0  0.058401  0.121106  0  3.928886  0
C  C101  1  0.49992433  0.12524902  0.12269992  1  -0.098016  0  -0.082413  -0.184456  0  3.951705  0
C  C102  1  0.37898970  0.80953339  0.06233715  1  0.504809  0  0.059428  0.115312  0  3.93745  0
C  C103  1  0.36729392  0.90737404  0.06038684  1  -0.088587  0  -0.083184  -0.187666  0  3.959751  0
C  C104  1  0.45577445  0.96498151  0.08377450  1  0.032923  0  0.015147  0.117513  0  3.999855  0
C  C105  1  0.44873479  0.06966115  0.08347975  1  0.012172  0  0.015  0.115676  0  3.999293  0
C  C106  1  0.83105430  0.50205963  0.08623215  1  0.071091  0  -0.013047  -0.113193  0  3.938165  0
C  C107  1  0.89525285  0.47745263  0.04067492  1  0.070281  0  -0.003332  0.074635  0  3.979723  0
C  C108  1  0.89374377  0.53268233  0.12896461  1  0.038377  0  0.007904  0.054782  0  4.049288  0
C  C109  1  0.83457004  0.44064390  0.99703929  1  -0.008057  0  -0.092199  -0.179873  0  3.920691  0
C  C110  1  0.89848387  0.41715762  0.95321690  1  0.089584  0  0.004803  0.087685  0  4.070026  0
C  C111  1  0.08699426  0.52195572  0.08358879  1  0.011262  0  -0.016433  -0.118634  0  3.915492  0
C  C112  1  0.02257328  0.54154328  0.12802900  1  0.135067  0  0.009693  0.066487  0  4.054063  0
C  C113  1  0.02439076  0.48956229  0.03904929  1  0.011883  0  -0.00348  0.073933  0  3.98173  0
C  C114  1  0.08686311  0.46843934  0.99287505  1  0.020742  0  -0.095082  -0.186414  0  3.956926  0
C  C115  1  0.02618837  0.43275194  0.95088794  1  0.05496  0  0.004528  0.087071  0  4.073528  0
C  C116  1  0.76630485  0.22878086  0.47635400  1  -0.028018  0  -0.236694  -0.464947  0  3.927896  0
C  C117  1  0.37774619  0.73937696  0.57821964  1  -0.084791  0  -0.236654  -0.4673  0  3.918416  0
C  C118  1  0.44379289  0.30348874  0.66455757  1  -0.093191  0  -0.241451  -0.4094  0  3.981491  0
C  C119  1  0.47480473  0.70249352  0.91792056  1  -0.05945  0  -0.241654  -0.408776  0  3.985459  0
C  C120  1  0.66083697  0.77154272  0.13493846  1  -0.08147  0  -0.240716  -0.47859  0  3.931881  0
C  C121  1  0.31912264  0.26717946  0.00242108  1  -0.118187  0  -0.238983  -0.471677  0  3.920074  0
N  N122  1  0.54672492  0.23721212  0.49390421  1  -1.215139  0  -0.313404  -0.261098  0  3.420497  0
N  N123  1  0.51619529  0.73732036  0.50471140  1  -1.245212  0  -0.316794  -0.259655  0  3.437243  0
N  N124  1  0.47175781  0.76658734  0.08598608  1  -1.227747  0  -0.314626  -0.258033  0  3.428894  0
N  N125  1  0.43876926  0.26836632  0.08122137  1  -1.248217  0  -0.315822  -0.25946  0  3.423547  0
Cl  Cl126  1  0.36641926  0.65187768  0.36529649  1  -0.17108  0  -0.004756  -0.055156  0  1.631424  0
Cl  Cl127  1  0.33250126  0.66367389  0.24964934  1  -0.171643  0  -0.004145  -0.045098  0  1.639959  0
Cl  Cl128  1  0.77978934  0.23592990  0.20686518  1  -0.210282  0  -0.019899  -0.082393  0  1.488522  0
Cl  Cl129  1  0.80754623  0.21797808  0.32720870  1  -0.20073  0  -0.02286  -0.090758  0  1.501026  0
Cl  Cl130  1  0.17570255  0.44528720  0.40147004  1  -0.169887  0  1.3e-05  -0.048254  0  1.580728  0
Cl  Cl131  1  0.89396253  0.47080717  0.40161704  1  -0.18709  0  0.006046  -0.045186  0  1.609315  0
Cl  Cl132  1  0.91001413  0.58035673  0.69689626  1  -0.194051  0  -0.01342  -0.07802  0  1.516311  0
Cl  Cl133  1  0.19649920  0.55501990  0.69506966  1  -0.198616  0  -0.008969  -0.068858  0  1.512136  0
Cl  Cl134  1  0.09743600  0.57351742  0.18304368  1  -0.167803  0  -0.009018  -0.062005  0  1.645493  0
Cl  Cl135  1  0.81494721  0.56016698  0.18423619  1  -0.187213  0  0.016811  -0.031809  0  1.61357  0
Cl  Cl136  1  0.82348132  0.36849761  0.90156666  1  -0.196347  0  -0.012412  -0.075038  0  1.53487  0
Cl  Cl137  1  0.10719985  0.40676183  0.89598161  1  -0.197138  0  -0.01923  -0.08163  0  1.483651  0
O  O138  1  0.55322274  0.38896952  0.57795931  1  -1.159058  0  -0.312023  -0.532792  0  2.320784  0
O  O139  1  0.52896919  0.54867117  0.57935669  1  -1.179522  0  -0.320164  -0.569924  0  2.387373  0
O  O140  1  0.35567644  0.56044442  0.49561398  1  -1.162066  0  -0.309246  -0.546259  0  2.343779  0
O  O141  1  0.35319750  0.40141527  0.50868145  1  -1.165784  0  -0.308503  -0.546237  0  2.316511  0
O  O142  1  0.56400430  0.57140044  0.42825198  1  -1.164157  0  -0.312084  -0.552664  0  2.385519  0
O  O143  1  0.51470136  0.41519449  0.42424336  1  -1.155238  0  -0.31167  -0.540089  0  2.330521  0
O  O144  1  0.71890842  0.43469108  0.49657545  1  -1.176961  0  -0.310964  -0.563073  0  2.393772  0
O  O145  1  0.72750973  0.59367342  0.51121933  1  -1.155893  0  -0.312627  -0.531718  0  2.259274  0
O  O146  1  0.44693301  0.60118553  0.00731774  1  -1.162905  0  -0.311466  -0.538916  0  2.346745  0
O  O147  1  0.49688732  0.44571755  0.00877301  1  -1.178584  0  -0.320307  -0.567169  0  2.383927  0
O  O148  1  0.27490008  0.44729642  0.07325827  1  -1.165134  0  -0.309488  -0.543182  0  2.355995  0
O  O149  1  0.27595152  0.60545471  0.09081203  1  -1.155402  0  -0.310164  -0.54427  0  2.318036  0
O  O150  1  0.42955330  0.43995092  0.16132129  1  -1.151317  0  -0.311163  -0.537707  0  2.296316  0
O  O151  1  0.48742055  0.59450416  0.16117965  1  -1.155606  0  -0.30796  -0.54705  0  2.392033  0
O  O152  1  0.64586598  0.57908597  0.07473941  1  -1.158869  0  -0.304565  -0.538853  0  2.336534  0
O  O153  1  0.63995253  0.42428084  0.09786326  1  -1.160074  0  -0.310652  -0.540327  0  2.296376  0
