# generated using pymatgen
data_AgPH8C8O5
_symmetry_space_group_name_H-M   'P 1'
_cell_length_a   4.67157231
_cell_length_b   11.01218666
_cell_length_c   17.69155719
_cell_angle_alpha   89.99953492
_cell_angle_beta   90.56206505
_cell_angle_gamma   90.00006107
_symmetry_Int_Tables_number   1
_chemical_formula_structural   AgPH8C8O5
_chemical_formula_sum   'Ag4 P4 H32 C32 O20'
_cell_volume   910.08467812
_cell_formula_units_Z   4
loop_
 _symmetry_equiv_pos_site_id
 _symmetry_equiv_pos_as_xyz
  1  'x, y, z'
loop_
 _atom_site_type_symbol
 _atom_site_label
 _atom_site_symmetry_multiplicity
 _atom_site_fract_x
 _atom_site_fract_y
 _atom_site_fract_z
 _atom_site_occupancy
 _atom_site_hle17_bader_spin_density
 _atom_site_hle17_ddec_charge
 _atom_site_hle17_ddec_spin_density
 _atom_site_hle17_ddec_sum_bond_order
 _atom_site_hle17_magmom
 _atom_site_hse06_10hf_bader_spin_density
 _atom_site_hse06_10hf_ddec_charge
 _atom_site_hse06_10hf_ddec_spin_density
 _atom_site_hse06_10hf_ddec_sum_bond_order
 _atom_site_hse06_10hf_magmom
 _atom_site_hse06_bader_spin_density
 _atom_site_hse06_ddec_charge
 _atom_site_hse06_ddec_spin_density
 _atom_site_hse06_ddec_sum_bond_order
 _atom_site_hse06_magmom
 _atom_site_pbe_bader_spin_density
 _atom_site_pbe_cm5_charge
 _atom_site_pbe_ddec_charge
 _atom_site_pbe_ddec_spin_density
 _atom_site_pbe_ddec_sum_bond_order
 _atom_site_pbe_magmom
Ag  Ag0  1  0.74075947  0.03325486  0.04446774  1  0  0.632165  0  1.438878  0  0  0.520981  0  1.898816  0  0  0.553689  0  1.834209  0  0  0.438214  0.498023  0  1.943753  0
Ag  Ag1  1  0.75923838  0.53325099  0.45553404  1  0  0.632187  0  1.438766  0  0  0.521025  0  1.898699  0  0  0.553735  0  1.834095  0  0  0.438222  0.498042  0  1.94365  0
Ag  Ag2  1  0.25924780  0.96674735  0.95553053  1  0  0.632105  0  1.438912  0  0  0.520936  0  1.898871  0  0  0.553645  0  1.834264  0  0  0.438219  0.497965  0  1.943817  0
Ag  Ag3  1  0.24075817  0.46674487  0.54446928  1  0  0.632154  0  1.438834  0  0  0.521008  0  1.898767  0  0  0.553715  0  1.834164  0  0  0.438229  0.498034  0  1.94371  0
P  P4  1  0.93534523  0.23615649  0.46331187  1  0  1.507587  0  4.724601  0  0  1.348713  0  5.217836  0  0  1.397717  0  5.182919  0  0  0.35892  1.314554  0  5.241377  0
P  P5  1  0.56463378  0.73616341  0.03669109  1  0  1.507314  0  4.724101  0  0  1.348525  0  5.217311  0  0  1.397523  0  5.182411  0  0  0.358952  1.314364  0  5.240829  0
P  P6  1  0.06465132  0.76383847  0.53668862  1  0  1.507416  0  4.724529  0  0  1.34856  0  5.217715  0  0  1.397557  0  5.182812  0  0  0.358914  1.314398  0  5.241258  0
P  P7  1  0.43535420  0.26383881  0.96331447  1  0  1.507172  0  4.724311  0  0  1.348362  0  5.21752  0  0  1.397356  0  5.182625  0  0  0.3589  1.314209  0  5.241021  0
H  H8  1  0.50213435  0.21511392  0.51217520  1  0  0.444738  0  0.855519  0  0  0.41105  0  0.923432  0  0  0.422489  0  0.907055  0  0  0.3086  0.403037  0  0.934864  0
H  H9  1  0.99787056  0.71511792  0.98782645  1  0  0.444749  0  0.855472  0  0  0.411005  0  0.923464  0  0  0.422438  0  0.907094  0  0  0.308531  0.403002  0  0.934888  0
H  H10  1  0.49786435  0.78488194  0.48782078  1  0  0.444711  0  0.855564  0  0  0.411049  0  0.923434  0  0  0.422481  0  0.907064  0  0  0.30855  0.403053  0  0.93485  0
H  H11  1  0.00214526  0.28488430  0.01217467  1  0  0.444674  0  0.855629  0  0  0.410977  0  0.923536  0  0  0.42241  0  0.907167  0  0  0.308559  0.40298  0  0.934953  0
H  H12  1  0.94201693  0.85451622  0.14564102  1  0  0.416386  0  0.867904  0  0  0.38296  0  0.948305  0  0  0.394792  0  0.935849  0  0  0.305008  0.374679  0  0.956929  0
H  H13  1  0.55797306  0.35451053  0.35435685  1  0  0.416412  0  0.867951  0  0  0.382996  0  0.948331  0  0  0.394825  0  0.935877  0  0  0.305039  0.37471  0  0.956974  0
H  H14  1  0.05799247  0.14548873  0.85435725  1  0  0.416279  0  0.868055  0  0  0.382898  0  0.94839  0  0  0.394726  0  0.935941  0  0  0.305004  0.374614  0  0.957019  0
H  H15  1  0.44202350  0.64548533  0.64564365  1  0  0.416336  0  0.86798  0  0  0.382927  0  0.948344  0  0  0.394755  0  0.935894  0  0  0.305064  0.374652  0  0.956965  0
H  H16  1  0.25261878  0.15614918  0.37348012  1  0  0.146672  0  0.948868  0  0  0.158829  0  1.008349  0  0  0.160713  0  1.009566  0  0  0.111988  0.157475  0  1.007581  0
H  H17  1  0.24739055  0.65615139  0.12651824  1  0  0.146628  0  0.949143  0  0  0.158866  0  1.008559  0  0  0.160747  0  1.009777  0  0  0.112034  0.157494  0  1.007811  0
H  H18  1  0.74740561  0.84384577  0.62652045  1  0  0.146623  0  0.948908  0  0  0.158753  0  1.008435  0  0  0.160642  0  1.009629  0  0  0.112002  0.157402  0  1.007662  0
H  H19  1  0.75261457  0.34385264  0.87348172  1  0  0.146537  0  0.949035  0  0  0.158739  0  1.008538  0  0  0.160619  0  1.009759  0  0  0.111963  0.157378  0  1.007772  0
H  H20  1  0.13784279  0.04167193  0.43696241  1  0  0.15363  0  0.932457  0  0  0.166609  0  0.988674  0  0  0.169221  0  0.988069  0  0  0.113181  0.164729  0  0.989171  0
H  H21  1  0.36215558  0.54167775  0.06303989  1  0  0.153559  0  0.932445  0  0  0.166618  0  0.988647  0  0  0.169225  0  0.988047  0  0  0.113162  0.164737  0  0.989138  0
H  H22  1  0.86216019  0.95832393  0.56303641  1  0  0.15365  0  0.932317  0  0  0.166618  0  0.988552  0  0  0.169221  0  0.987957  0  0  0.113181  0.164742  0  0.989046  0
H  H23  1  0.63784740  0.45832447  0.93696232  1  0  0.153503  0  0.932487  0  0  0.166558  0  0.988703  0  0  0.169163  0  0.988105  0  0  0.113135  0.164675  0  0.989193  0
H  H24  1  0.72642730  0.91319676  0.40238435  1  0  0.107962  0  0.95769  0  0  0.118917  0  1.015851  0  0  0.122186  0  1.014739  0  0  0.103481  0.116509  0  1.016876  0
H  H25  1  0.77356281  0.41320087  0.09761322  1  0  0.107967  0  0.957684  0  0  0.118915  0  1.015854  0  0  0.122185  0  1.01474  0  0  0.10347  0.11651  0  1.016884  0
H  H26  1  0.27359495  0.08679729  0.59760773  1  0  0.107866  0  0.957741  0  0  0.118798  0  1.015953  0  0  0.122068  0  1.014838  0  0  0.103412  0.11639  0  1.016978  0
H  H27  1  0.22640806  0.58679500  0.90238326  1  0  0.107933  0  0.957837  0  0  0.118889  0  1.015998  0  0  0.122157  0  1.014886  0  0  0.1035  0.116489  0  1.01702  0
H  H28  1  0.35844348  0.85347254  0.30780582  1  0  0.105291  0  0.937169  0  0  0.118113  0  0.993383  0  0  0.120886  0  0.991671  0  0  0.110866  0.116043  0  0.994779  0
H  H29  1  0.14155128  0.35346083  0.19219093  1  0  0.105153  0  0.937073  0  0  0.117989  0  0.993302  0  0  0.120763  0  0.991592  0  0  0.110822  0.11592  0  0.994696  0
H  H30  1  0.64157663  0.14653331  0.69218456  1  0  0.10531  0  0.937122  0  0  0.118114  0  0.993368  0  0  0.12089  0  0.991648  0  0  0.110837  0.116042  0  0.994757  0
H  H31  1  0.85843457  0.64653049  0.80780898  1  0  0.105373  0  0.937137  0  0  0.118175  0  0.993365  0  0  0.12095  0  0.991645  0  0  0.110879  0.11611  0  0.994763  0
H  H32  1  0.55634213  0.17055368  0.17540827  1  0  0.104451  0  0.944918  0  0  0.115354  0  1.00549  0  0  0.118742  0  1.002618  0  0  0.105374  0.112835  0  1.0077  0
H  H33  1  0.94367743  0.67054523  0.32459005  1  0  0.104495  0  0.944933  0  0  0.115379  0  1.005514  0  0  0.118766  0  1.002643  0  0  0.105361  0.112861  0  1.007724  0
H  H34  1  0.44368654  0.82945853  0.82458949  1  0  0.104426  0  0.944837  0  0  0.115343  0  1.005406  0  0  0.118731  0  1.002535  0  0  0.105307  0.112825  0  1.007618  0
H  H35  1  0.05632127  0.32944972  0.67540650  1  0  0.104519  0  0.94469  0  0  0.115384  0  1.005318  0  0  0.118772  0  1.002448  0  0  0.105336  0.112869  0  1.00752  0
H  H36  1  0.92108297  0.23130583  0.27154496  1  0  0.100452  0  0.966124  0  0  0.110179  0  1.029291  0  0  0.112762  0  1.029014  0  0  0.101781  0.108294  0  1.029678  0
H  H37  1  0.57894527  0.73130482  0.22845985  1  0  0.100436  0  0.96632  0  0  0.110175  0  1.029469  0  0  0.11276  0  1.029191  0  0  0.101808  0.108291  0  1.02986  0
H  H38  1  0.07894355  0.76870002  0.72845788  1  0  0.100461  0  0.966085  0  0  0.110193  0  1.029251  0  0  0.112777  0  1.028978  0  0  0.101793  0.108312  0  1.029637  0
H  H39  1  0.42106627  0.26870012  0.77154125  1  0  0.100445  0  0.966187  0  0  0.110183  0  1.029356  0  0  0.112768  0  1.029081  0  0  0.101798  0.108297  0  1.029744  0
C  C40  1  0.06410289  0.11733650  0.40124339  1  0  -0.504156  0  3.708896  0  0  -0.519961  0  3.939333  0  0  -0.530783  0  3.947868  0  0  -0.162857  -0.51242  0  3.933423  0
C  C41  1  0.43588492  0.61733008  0.09876924  1  0  -0.503983  0  3.709117  0  0  -0.520073  0  3.939933  0  0  -0.530888  0  3.948481  0  0  -0.162933  -0.512491  0  3.933977  0
C  C42  1  0.93591721  0.88266390  0.59876169  1  0  -0.50412  0  3.709172  0  0  -0.519914  0  3.939708  0  0  -0.530726  0  3.948256  0  0  -0.162901  -0.512369  0  3.933785  0
C  C43  1  0.56410307  0.38267759  0.90123124  1  0  -0.503705  0  3.708857  0  0  -0.51983  0  3.939707  0  0  -0.530643  0  3.948263  0  0  -0.162849  -0.512251  0  3.933723  0
C  C44  1  0.84836184  0.07646780  0.34327204  1  0  0.163926  0  3.752662  0  0  0.176815  0  3.991175  0  0  0.180432  0  4.01509  0  0  0.000693  0.174504  0  3.974644  0
C  C45  1  0.65163396  0.57648138  0.15672556  1  0  0.163945  0  3.752943  0  0  0.176754  0  3.991705  0  0  0.180369  0  4.015623  0  0  0.000558  0.174433  0  3.975176  0
C  C46  1  0.15165184  0.92352897  0.65672116  1  0  0.163884  0  3.752914  0  0  0.176741  0  3.991484  0  0  0.180354  0  4.015405  0  0  0.000694  0.174427  0  3.974955  0
C  C47  1  0.34834546  0.42353174  0.84327885  1  0  0.163969  0  3.753111  0  0  0.176879  0  3.991736  0  0  0.180493  0  4.015656  0  0  0.000705  0.174559  0  3.975203  0
C  C48  1  0.69001098  0.96951922  0.35263651  1  0  -0.117518  0  3.68082  0  0  -0.136956  0  3.933189  0  0  -0.141855  0  3.953165  0  0  -0.087546  -0.133712  0  3.919594  0
C  C49  1  0.80996427  0.46953360  0.14736187  1  0  -0.117534  0  3.680373  0  0  -0.136915  0  3.932776  0  0  -0.141819  0  3.952759  0  0  -0.087419  -0.133686  0  3.919204  0
C  C50  1  0.30999843  0.03047574  0.64735555  1  0  -0.117342  0  3.680474  0  0  -0.136755  0  3.932858  0  0  -0.141655  0  3.95284  0  0  -0.08747  -0.133515  0  3.919259  0
C  C51  1  0.19001088  0.53047044  0.85264140  1  0  -0.117518  0  3.680877  0  0  -0.136946  0  3.933253  0  0  -0.141847  0  3.95323  0  0  -0.087584  -0.133712  0  3.919683  0
C  C52  1  0.48573717  0.93499050  0.29901540  1  0  -0.040809  0  3.706443  0  0  -0.068462  0  3.960256  0  0  -0.065664  0  3.978785  0  0  -0.076283  -0.070094  0  3.947501  0
C  C53  1  0.01425348  0.43498860  0.20098658  1  0  -0.040509  0  3.705931  0  0  -0.068166  0  3.959733  0  0  -0.065369  0  3.978266  0  0  -0.076238  -0.069806  0  3.946983  0
C  C54  1  0.51427438  0.06501535  0.70097892  1  0  -0.040891  0  3.706449  0  0  -0.068556  0  3.96019  0  0  -0.065759  0  3.978721  0  0  -0.07639  -0.070178  0  3.947414  0
C  C55  1  0.98572594  0.56500999  0.79902235  1  0  -0.040877  0  3.706449  0  0  -0.068516  0  3.960215  0  0  -0.065716  0  3.978744  0  0  -0.076379  -0.070159  0  3.947478  0
C  C56  1  0.43887208  0.00678198  0.23448872  1  0  -0.101893  0  3.793499  0  0  -0.07862  0  4.029871  0  0  -0.08969  0  4.055192  0  0  -0.026116  -0.071505  0  4.012629  0
C  C57  1  0.06110481  0.50677684  0.26551201  1  0  -0.101942  0  3.793479  0  0  -0.078641  0  4.029864  0  0  -0.08971  0  4.055191  0  0  -0.026063  -0.071521  0  4.012607  0
C  C58  1  0.56112235  0.99322751  0.76550386  1  0  -0.101838  0  3.793447  0  0  -0.078375  0  4.029578  0  0  -0.089442  0  4.054902  0  0  -0.025873  -0.071263  0  4.012325  0
C  C59  1  0.93885963  0.49321902  0.73449519  1  0  -0.101945  0  3.793389  0  0  -0.078535  0  4.029684  0  0  -0.089608  0  4.055015  0  0  -0.025977  -0.071418  0  4.012436  0
C  C60  1  0.59653268  0.11407775  0.22503564  1  0  -0.055079  0  3.730773  0  0  -0.080553  0  3.98178  0  0  -0.078632  0  4.000348  0  0  -0.083933  -0.081436  0  3.969107  0
C  C61  1  0.90344822  0.61408083  0.27496455  1  0  -0.05519  0  3.730904  0  0  -0.080654  0  3.981928  0  0  -0.078734  0  4.000501  0  0  -0.083973  -0.08154  0  3.96926  0
C  C62  1  0.40347672  0.88592992  0.77496206  1  0  -0.055199  0  3.730689  0  0  -0.080729  0  3.981729  0  0  -0.078812  0  4.000304  0  0  -0.083952  -0.081612  0  3.969059  0
C  C63  1  0.09653334  0.38591867  0.72503986  1  0  -0.055247  0  3.730391  0  0  -0.080728  0  3.98144  0  0  -0.078812  0  4.000019  0  0  -0.083919  -0.081611  0  3.968754  0
C  C64  1  0.79919645  0.14797081  0.27883389  1  0  -0.118801  0  3.705559  0  0  -0.136815  0  3.955286  0  0  -0.141522  0  3.976337  0  0  -0.092023  -0.133814  0  3.940943  0
C  C65  1  0.70079737  0.64797267  0.22116560  1  0  -0.118688  0  3.705775  0  0  -0.136692  0  3.955566  0  0  -0.141385  0  3.976583  0  0  -0.091998  -0.133689  0  3.941214  0
C  C66  1  0.20082366  0.85203323  0.72116385  1  0  -0.11871  0  3.705312  0  0  -0.136729  0  3.955123  0  0  -0.141436  0  3.976176  0  0  -0.092042  -0.133737  0  3.940809  0
C  C67  1  0.29920560  0.35203045  0.77884056  1  0  -0.118733  0  3.705498  0  0  -0.136759  0  3.955281  0  0  -0.141454  0  3.976304  0  0  -0.092056  -0.133766  0  3.940957  0
C  C68  1  0.22629774  0.97414786  0.17559402  1  0  0.667139  0  3.810552  0  0  0.612756  0  4.105649  0  0  0.647894  0  4.098062  0  0  0.228257  0.588963  0  4.110028  0
C  C69  1  0.27369085  0.47413631  0.32441397  1  0  0.66697  0  3.81  0  0  0.612523  0  4.105246  0  0  0.647657  0  4.097671  0  0  0.228258  0.588748  0  4.109593  0
C  C70  1  0.77372450  0.02586072  0.82440598  1  0  0.666878  0  3.81014  0  0  0.612432  0  4.105385  0  0  0.647567  0  4.097806  0  0  0.228074  0.588649  0  4.109743  0
C  C71  1  0.72626717  0.52584957  0.67558699  1  0  0.667068  0  3.809909  0  0  0.612537  0  4.105256  0  0  0.647674  0  4.097678  0  0  0.228253  0.588755  0  4.109612  0
O  O72  1  0.80419848  0.33995540  0.41660855  1  0  -0.866951  0  2.109985  0  0  -0.764721  0  2.387166  0  0  -0.795602  0  2.367256  0  0  -0.373376  -0.743007  0  2.400335  0
O  O73  1  0.69581073  0.83996632  0.08339509  1  0  -0.866905  0  2.109907  0  0  -0.764636  0  2.38703  0  0  -0.795519  0  2.367129  0  0  -0.373391  -0.742923  0  2.400197  0
O  O74  1  0.19581519  0.66003955  0.58339482  1  0  -0.86693  0  2.110003  0  0  -0.764675  0  2.387147  0  0  -0.795557  0  2.367246  0  0  -0.373415  -0.74296  0  2.400314  0
O  O75  1  0.30419439  0.16003772  0.91660543  1  0  -0.866961  0  2.110085  0  0  -0.764672  0  2.387175  0  0  -0.795554  0  2.367273  0  0  -0.373423  -0.74296  0  2.400339  0
O  O76  1  0.19431190  0.27359270  0.51239463  1  0  -0.839004  0  2.062954  0  0  -0.736152  0  2.336915  0  0  -0.767986  0  2.316001  0  0  -0.370615  -0.713797  0  2.350752  0
O  O77  1  0.30566581  0.77360023  0.98760665  1  0  -0.838863  0  2.063124  0  0  -0.735912  0  2.337031  0  0  -0.767739  0  2.316121  0  0  -0.370442  -0.713565  0  2.350875  0
O  O78  1  0.80567608  0.72639681  0.48760924  1  0  -0.838979  0  2.063158  0  0  -0.736063  0  2.337031  0  0  -0.767893  0  2.316127  0  0  -0.37047  -0.71371  0  2.350867  0
O  O79  1  0.69434359  0.22640199  0.01239445  1  0  -0.838953  0  2.063247  0  0  -0.735915  0  2.33702  0  0  -0.767744  0  2.316119  0  0  -0.370456  -0.713579  0  2.350866  0
O  O80  1  0.69951607  0.17538978  0.51463671  1  0  -0.742758  0  1.979442  0  0  -0.669929  0  2.203901  0  0  -0.691111  0  2.179705  0  0  -0.385061  -0.655005  0  2.220362  0
O  O81  1  0.80047164  0.67538281  0.98536114  1  0  -0.742777  0  1.979026  0  0  -0.669982  0  2.20363  0  0  -0.691157  0  2.179455  0  0  -0.385075  -0.655063  0  2.220062  0
O  O82  1  0.30048049  0.82460699  0.48535757  1  0  -0.742661  0  1.979284  0  0  -0.66993  0  2.203815  0  0  -0.691103  0  2.179637  0  0  -0.385031  -0.655012  0  2.220237  0
O  O83  1  0.19952277  0.32461305  0.01464048  1  0  -0.742579  0  1.979429  0  0  -0.66983  0  2.204038  0  0  -0.691003  0  2.179861  0  0  -0.385024  -0.654912  0  2.220452  0
O  O84  1  0.18177053  0.04069691  0.11954997  1  0  -0.620453  0  2.080559  0  0  -0.561946  0  2.35256  0  0  -0.588286  0  2.337793  0  0  -0.307299  -0.543696  0  2.362156  0
O  O85  1  0.31818929  0.54069767  0.38045901  1  0  -0.620344  0  2.080204  0  0  -0.561796  0  2.352173  0  0  -0.58814  0  2.337419  0  0  -0.307305  -0.543551  0  2.361758  0
O  O86  1  0.81824101  0.95929986  0.88044831  1  0  -0.620332  0  2.080427  0  0  -0.56183  0  2.352527  0  0  -0.58817  0  2.337764  0  0  -0.307255  -0.543584  0  2.362119  0
O  O87  1  0.68177087  0.45928185  0.61954421  1  0  -0.620411  0  2.080208  0  0  -0.561792  0  2.352148  0  0  -0.588131  0  2.337384  0  0  -0.307299  -0.543542  0  2.361736  0
O  O88  1  0.09059619  0.87004853  0.18712603  1  0  -0.543003  0  2.115757  0  0  -0.487239  0  2.342375  0  0  -0.510475  0  2.331722  0  0  -0.321333  -0.471227  0  2.349325  0
O  O89  1  0.40939005  0.37003357  0.31287457  1  0  -0.543007  0  2.115725  0  0  -0.487209  0  2.342321  0  0  -0.510433  0  2.331662  0  0  -0.321346  -0.471208  0  2.349275  0
O  O90  1  0.90942392  0.12996731  0.81286888  1  0  -0.542587  0  2.115333  0  0  -0.486925  0  2.34205  0  0  -0.510151  0  2.331399  0  0  -0.321159  -0.470915  0  2.348994  0
O  O91  1  0.59058296  0.62995776  0.68712643  1  0  -0.542824  0  2.115577  0  0  -0.487064  0  2.342313  0  0  -0.510289  0  2.331657  0  0  -0.32134  -0.471065  0  2.349261  0
