# generated using pymatgen
data_HoAgH11C15(NO6)2
_symmetry_space_group_name_H-M   'P 1'
_cell_length_a   7.49597957
_cell_length_b   8.18901798
_cell_length_c   14.19727274
_cell_angle_alpha   98.57372801
_cell_angle_beta   100.26351124
_cell_angle_gamma   95.04757117
_symmetry_Int_Tables_number   1
_chemical_formula_structural   HoAgH11C15(NO6)2
_chemical_formula_sum   'Ho2 Ag2 H22 C30 N4 O24'
_cell_volume   842.07072748
_cell_formula_units_Z   2
loop_
 _symmetry_equiv_pos_site_id
 _symmetry_equiv_pos_as_xyz
  1  'x, y, z'
loop_
 _atom_site_type_symbol
 _atom_site_label
 _atom_site_symmetry_multiplicity
 _atom_site_fract_x
 _atom_site_fract_y
 _atom_site_fract_z
 _atom_site_occupancy
 _atom_site_hle17_bader_spin_density
 _atom_site_hle17_ddec_charge
 _atom_site_hle17_ddec_spin_density
 _atom_site_hle17_ddec_sum_bond_order
 _atom_site_hle17_magmom
 _atom_site_hse06_10hf_bader_spin_density
 _atom_site_hse06_10hf_ddec_charge
 _atom_site_hse06_10hf_ddec_spin_density
 _atom_site_hse06_10hf_ddec_sum_bond_order
 _atom_site_hse06_10hf_magmom
 _atom_site_hse06_bader_spin_density
 _atom_site_hse06_ddec_charge
 _atom_site_hse06_ddec_spin_density
 _atom_site_hse06_ddec_sum_bond_order
 _atom_site_hse06_magmom
 _atom_site_pbe_bader_spin_density
 _atom_site_pbe_cm5_charge
 _atom_site_pbe_ddec_charge
 _atom_site_pbe_ddec_spin_density
 _atom_site_pbe_ddec_sum_bond_order
 _atom_site_pbe_magmom
Ho  Ho0  1  0.18883998  0.70184113  0.42001570  1  0  2.300645  0  1.574446  0  0  2.235417  0  1.891934  0  0  2.281024  0  1.852616  0  0  1.512259  2.11839  0  2.076148  0
Ho  Ho1  1  0.81117053  0.29816644  0.57998686  1  0  2.30065  0  1.574428  0  0  2.235431  0  1.891913  0  0  2.281037  0  1.852594  0  0  1.512246  2.118411  0  2.076117  0
Ag  Ag2  1  0.82975212  0.60058670  0.96785307  1  0  0.524962  0  1.39431  0  0  0.376626  0  1.826165  0  0  0.405907  0  1.785252  0  0  0.473858  0.356375  0  1.854742  0
Ag  Ag3  1  0.17024089  0.39941234  0.03214433  1  0  0.524974  0  1.394308  0  0  0.376624  0  1.82617  0  0  0.405902  0  1.785256  0  0  0.473856  0.356372  0  1.854745  0
H  H4  1  0.54685141  0.91641739  0.23302488  1  0  0.416187  0  0.878191  0  0  0.384623  0  0.9531  0  0  0.396665  0  0.93612  0  0  0.308686  0.376076  0  0.965154  0
H  H5  1  0.45314704  0.08358159  0.76697512  1  0  0.41622  0  0.87813  0  0  0.384615  0  0.95311  0  0  0.396656  0  0.936131  0  0  0.308703  0.376068  0  0.965164  0
H  H6  1  0.79806751  0.81094400  0.37391633  1  0  0.441465  0  0.850611  0  0  0.41365  0  0.908302  0  0  0.423082  0  0.894594  0  0  0.306103  0.406363  0  0.918803  0
H  H7  1  0.20193365  0.18905495  0.62608321  1  0  0.44148  0  0.850584  0  0  0.41367  0  0.908267  0  0  0.423101  0  0.89456  0  0  0.306111  0.406384  0  0.918767  0
H  H8  1  0.87433329  0.88523774  0.48409141  1  0  0.445139  0  0.841534  0  0  0.418068  0  0.901908  0  0  0.427704  0  0.8878  0  0  0.312719  0.410534  0  0.912812  0
H  H9  1  0.12566769  0.11475997  0.51590800  1  0  0.445143  0  0.841526  0  0  0.418073  0  0.901902  0  0  0.427709  0  0.887793  0  0  0.312704  0.410538  0  0.912806  0
H  H10  1  0.36342891  0.38061380  0.48001657  1  0  0.46201  0  0.819985  0  0  0.434199  0  0.87646  0  0  0.445129  0  0.860431  0  0  0.309746  0.425496  0  0.889174  0
H  H11  1  0.63657273  0.61938892  0.51998053  1  0  0.461993  0  0.820005  0  0  0.434188  0  0.876472  0  0  0.445117  0  0.860443  0  0  0.309735  0.425482  0  0.889192  0
H  H12  1  0.21517729  0.44899501  0.54035773  1  0  0.430722  0  0.87119  0  0  0.398847  0  0.93803  0  0  0.409992  0  0.921391  0  0  0.303728  0.390962  0  0.949322  0
H  H13  1  0.78482502  0.55100271  0.45963968  1  0  0.430672  0  0.871248  0  0  0.398793  0  0.938098  0  0  0.409938  0  0.921458  0  0  0.303705  0.390909  0  0.949389  0
H  H14  1  0.02424308  0.99530803  0.66887045  1  0  0.118431  0  0.979585  0  0  0.123453  0  1.048443  0  0  0.128217  0  1.042644  0  0  0.118929  0.120014  0  1.052402  0
H  H15  1  0.97575537  0.00469095  0.33112884  1  0  0.118428  0  0.979576  0  0  0.123459  0  1.04843  0  0  0.128215  0  1.042654  0  0  0.118934  0.12002  0  1.05239  0
H  H16  1  0.83452749  0.97512950  0.93675849  1  0  0.092525  0  0.938553  0  0  0.099663  0  1.009  0  0  0.102873  0  1.004687  0  0  0.120229  0.097222  0  1.012196  0
H  H17  1  0.16546926  0.02486700  0.06324113  1  0  0.092525  0  0.938503  0  0  0.099701  0  1.008919  0  0  0.10291  0  1.004607  0  0  0.120243  0.09726  0  1.012116  0
H  H18  1  0.96577331  0.54133558  0.78487213  1  0  0.093308  0  0.970784  0  0  0.095219  0  1.048087  0  0  0.099858  0  1.041988  0  0  0.121849  0.092509  0  1.050597  0
H  H19  1  0.03422359  0.45866218  0.21512550  1  0  0.09332  0  0.970752  0  0  0.095232  0  1.048059  0  0  0.099872  0  1.041959  0  0  0.12185  0.092522  0  1.050568  0
H  H20  1  0.47605973  0.30017150  0.26022822  1  0  0.135727  0  0.910718  0  0  0.145137  0  0.966386  0  0  0.149149  0  0.962859  0  0  0.125971  0.141984  0  0.969532  0
H  H21  1  0.52394041  0.69982996  0.73977074  1  0  0.135724  0  0.910717  0  0  0.145124  0  0.966394  0  0  0.149136  0  0.962868  0  0  0.125979  0.141972  0  0.969541  0
H  H22  1  0.72056879  0.23799709  0.00494895  1  0  0.1078  0  0.953937  0  0  0.112661  0  1.023273  0  0  0.116309  0  1.018849  0  0  0.121587  0.109903  0  1.026595  0
H  H23  1  0.27942929  0.76199942  0.99504868  1  0  0.10778  0  0.953955  0  0  0.112659  0  1.023284  0  0  0.116307  0  1.018859  0  0  0.121591  0.1099  0  1.026605  0
H  H24  1  0.67036176  0.71470857  0.13664544  1  0  0.087797  0  0.968898  0  0  0.092017  0  1.042069  0  0  0.096164  0  1.036799  0  0  0.115971  0.08883  0  1.046119  0
H  H25  1  0.32963124  0.28529049  0.86335055  1  0  0.087797  0  0.968998  0  0  0.092049  0  1.042128  0  0  0.096197  0  1.036856  0  0  0.115984  0.088864  0  1.046174  0
C  C26  1  0.07213095  0.66689813  0.63329808  1  0  0.722877  0  3.861985  0  0  0.67365  0  4.155687  0  0  0.709475  0  4.145433  0  0  0.236247  0.648846  0  4.156318  0
C  C27  1  0.92787256  0.33309831  0.36670144  1  0  0.722661  0  3.862055  0  0  0.673442  0  4.155749  0  0  0.709271  0  4.14549  0  0  0.236156  0.64864  0  4.156374  0
C  C28  1  0.00520123  0.75817478  0.71688413  1  0  -0.124865  0  3.735357  0  0  -0.097378  0  3.97133  0  0  -0.112207  0  3.994029  0  0  -0.010787  -0.088511  0  3.95759  0
C  C29  1  0.99479874  0.24182544  0.28311471  1  0  -0.124818  0  3.735318  0  0  -0.097313  0  3.971273  0  0  -0.112145  0  3.993973  0  0  -0.010775  -0.088451  0  3.957532  0
C  C30  1  0.98793695  0.92748920  0.72422576  1  0  0.021797  0  3.622172  0  0  -0.020724  0  3.866542  0  0  -0.010223  0  3.878275  0  0  -0.045718  -0.027661  0  3.860191  0
C  C31  1  0.01206302  0.07251101  0.27577378  1  0  0.021775  0  3.622171  0  0  -0.020771  0  3.86657  0  0  -0.01027  0  3.878298  0  0  -0.045723  -0.027708  0  3.860216  0
C  C32  1  0.92371906  0.00875871  0.80277036  1  0  -0.111086  0  3.700659  0  0  -0.082318  0  3.934305  0  0  -0.0965  0  3.956853  0  0  -0.008744  -0.073827  0  3.920456  0
C  C33  1  0.07627787  0.99123903  0.19723010  1  0  -0.111074  0  3.70058  0  0  -0.082299  0  3.934248  0  0  -0.09648  0  3.956795  0  0  -0.00879  -0.073809  0  3.920397  0
C  C34  1  0.88294941  0.91696989  0.87329346  1  0  0.14421  0  3.624521  0  0  0.098253  0  3.873228  0  0  0.109552  0  3.889631  0  0  0.061941  0.091034  0  3.862197  0
C  C35  1  0.11704445  0.08302541  0.12670438  1  0  0.144198  0  3.624383  0  0  0.098191  0  3.873094  0  0  0.109486  0  3.889498  0  0  0.061934  0.090971  0  3.862059  0
C  C36  1  0.95697732  0.67431706  0.78872400  1  0  0.125131  0  3.664151  0  0  0.078439  0  3.915178  0  0  0.089821  0  3.931201  0  0  0.054806  0.071649  0  3.903168  0
C  C37  1  0.04302110  0.32568194  0.21127317  1  0  0.125155  0  3.6641  0  0  0.078435  0  3.91512  0  0  0.089814  0  3.931139  0  0  0.054792  0.071642  0  3.903109  0
C  C38  1  0.90014462  0.19133024  0.81001250  1  0  0.704474  0  3.884249  0  0  0.654786  0  4.178574  0  0  0.690087  0  4.169948  0  0  0.218819  0.630218  0  4.182058  0
C  C39  1  0.09984974  0.80866880  0.18998431  1  0  0.704308  0  3.884547  0  0  0.654613  0  4.178873  0  0  0.689913  0  4.170249  0  0  0.218731  0.630045  0  4.182351  0
C  C40  1  0.50048542  0.63766136  0.28354658  1  0  0.704874  0  3.866171  0  0  0.652021  0  4.16404  0  0  0.687395  0  4.153946  0  0  0.232673  0.627915  0  4.166784  0
C  C41  1  0.49950980  0.36233391  0.71645208  1  0  0.704757  0  3.866088  0  0  0.651961  0  4.163876  0  0  0.687338  0  4.153778  0  0  0.232663  0.627854  0  4.166624  0
C  C42  1  0.56137524  0.52105329  0.20708823  1  0  -0.114989  0  3.739888  0  0  -0.088646  0  3.982454  0  0  -0.101492  0  4.002646  0  0  -0.011184  -0.081505  0  3.971094  0
C  C43  1  0.43861895  0.47894450  0.79290916  1  0  -0.114981  0  3.739792  0  0  -0.088663  0  3.982357  0  0  -0.101511  0  4.002549  0  0  -0.011199  -0.081511  0  3.970989  0
C  C44  1  0.53660658  0.34988471  0.20472103  1  0  0.001416  0  3.647954  0  0  -0.043279  0  3.90279  0  0  -0.033571  0  3.914959  0  0  -0.049689  -0.049625  0  3.895914  0
C  C45  1  0.46339321  0.65011427  0.79527697  1  0  0.001505  0  3.647857  0  0  -0.043181  0  3.902697  0  0  -0.033472  0  3.914867  0  0  -0.04967  -0.04953  0  3.895823  0
C  C46  1  0.59697968  0.24479909  0.13310614  1  0  -0.131984  0  3.759977  0  0  -0.105032  0  4.000591  0  0  -0.12006  0  4.02503  0  0  -0.012021  -0.09566  0  3.984599  0
C  C47  1  0.40302011  0.75519989  0.86689256  1  0  -0.132078  0  3.760082  0  0  -0.105096  0  4.000701  0  0  -0.120127  0  4.025142  0  0  -0.012022  -0.095723  0  3.984712  0
C  C48  1  0.67346889  0.31432108  0.06319036  1  0  0.13194  0  3.635118  0  0  0.086088  0  3.88482  0  0  0.097271  0  3.900673  0  0  0.060109  0.078974  0  3.87398  0
C  C49  1  0.32652801  0.68567669  0.93680727  1  0  0.131992  0  3.635137  0  0  0.086124  0  3.884837  0  0  0.097309  0  3.900688  0  0  0.060076  0.079011  0  3.873996  0
C  C50  1  0.64636383  0.58172432  0.13755519  1  0  0.13482  0  3.635615  0  0  0.089031  0  3.884861  0  0  0.099964  0  3.900223  0  0  0.056547  0.081966  0  3.875079  0
C  C51  1  0.35363171  0.41827346  0.86244162  1  0  0.134802  0  3.635782  0  0  0.089009  0  3.884995  0  0  0.099947  0  3.900349  0  0  0.056539  0.08194  0  3.875219  0
C  C52  1  0.59617765  0.06342713  0.13758694  1  0  0.664545  0  3.836433  0  0  0.613608  0  4.133099  0  0  0.646979  0  4.126839  0  0  0.233076  0.59098  0  4.136894  0
C  C53  1  0.40382704  0.93656807  0.86241188  1  0  0.66453  0  3.836298  0  0  0.613535  0  4.133051  0  0  0.646906  0  4.126795  0  0  0.233043  0.590907  0  4.136848  0
C  C54  1  0.43444688  0.05973899  0.48033870  1  0  0.583594  0  3.898999  0  0  0.533191  0  4.212697  0  0  0.564471  0  4.199943  0  0  0.22625  0.512171  0  4.212579  0
C  C55  1  0.56556757  0.94027587  0.51968037  1  0  0.583407  0  3.898821  0  0  0.533116  0  4.212412  0  0  0.564394  0  4.199659  0  0  0.226271  0.512095  0  4.212292  0
N  N56  1  0.89914641  0.75263142  0.86615738  1  0  -0.307096  0  3.343345  0  0  -0.210497  0  3.625166  0  0  -0.233992  0  3.643117  0  0  -0.348878  -0.19484  0  3.612707  0
N  N57  1  0.10084896  0.24736512  0.13384001  1  0  -0.307151  0  3.343411  0  0  -0.210487  0  3.625184  0  0  -0.233975  0  3.643128  0  0  -0.34885  -0.194829  0  3.612723  0
N  N58  1  0.69830354  0.48012250  0.06601947  1  0  -0.297971  0  3.33933  0  0  -0.204107  0  3.62163  0  0  -0.226551  0  3.638803  0  0  -0.34726  -0.189112  0  3.609637  0
N  N59  1  0.30168911  0.51987407  0.93397627  1  0  -0.297985  0  3.339346  0  0  -0.204159  0  3.621687  0  0  -0.226604  0  3.63886  0  0  -0.347222  -0.189163  0  3.609695  0
O  O60  1  0.13979264  0.75180275  0.57808151  1  0  -0.695561  0  2.021235  0  0  -0.65388  0  2.270032  0  0  -0.67909  0  2.259383  0  0  -0.383138  -0.625081  0  2.280588  0
O  O61  1  0.86020849  0.24819623  0.42191591  1  0  -0.695406  0  2.021233  0  0  -0.653742  0  2.27003  0  0  -0.678951  0  2.259383  0  0  -0.383063  -0.624947  0  2.280584  0
O  O62  1  0.05853633  0.50763314  0.62239189  1  0  -0.766024  0  2.086637  0  0  -0.71804  0  2.338927  0  0  -0.744714  0  2.32715  0  0  -0.393479  -0.687132  0  2.34719  0
O  O63  1  0.94147160  0.49236575  0.37760825  1  0  -0.765969  0  2.086489  0  0  -0.717976  0  2.338757  0  0  -0.744652  0  2.32698  0  0  -0.393481  -0.687059  0  2.346998  0
O  O64  1  0.87154890  0.26841159  0.88853809  1  0  -0.650668  0  1.976656  0  0  -0.594133  0  2.238993  0  0  -0.619524  0  2.224778  0  0  -0.326492  -0.576772  0  2.249305  0
O  O65  1  0.12844572  0.73158862  0.11146660  1  0  -0.650558  0  1.977055  0  0  -0.594032  0  2.239407  0  0  -0.61942  0  2.225192  0  0  -0.326436  -0.576675  0  2.249718  0
O  O66  1  0.91433312  0.25605608  0.73437708  1  0  -0.766646  0  2.063319  0  0  -0.7235  0  2.324559  0  0  -0.750457  0  2.313585  0  0  -0.422496  -0.691337  0  2.33457  0
O  O67  1  0.08566638  0.74394037  0.26562560  1  0  -0.766601  0  2.06318  0  0  -0.72345  0  2.324413  0  0  -0.750409  0  2.313443  0  0  -0.422492  -0.691284  0  2.334416  0
O  O68  1  0.38071601  0.57859354  0.32559482  1  0  -0.697902  0  2.049539  0  0  -0.65871  0  2.30714  0  0  -0.685344  0  2.297914  0  0  -0.377609  -0.628255  0  2.314702  0
O  O69  1  0.61928144  0.42140793  0.67440531  1  0  -0.69792  0  2.049503  0  0  -0.65874  0  2.307054  0  0  -0.685377  0  2.297827  0  0  -0.377635  -0.628284  0  2.314619  0
O  O70  1  0.57497990  0.78848965  0.30248357  1  0  -0.657608  0  2.000773  0  0  -0.598285  0  2.223582  0  0  -0.622598  0  2.210399  0  0  -0.310231  -0.580719  0  2.230748  0
O  O71  1  0.42502072  0.21150559  0.69751417  1  0  -0.657511  0  2.000806  0  0  -0.598188  0  2.223602  0  0  -0.622503  0  2.210416  0  0  -0.310176  -0.580623  0  2.230773  0
O  O72  1  0.52224459  0.02701383  0.21142969  1  0  -0.552076  0  2.121425  0  0  -0.498575  0  2.338355  0  0  -0.522258  0  2.323055  0  0  -0.325793  -0.482155  0  2.348814  0
O  O73  1  0.47775964  0.97298756  0.78857246  1  0  -0.552033  0  2.121361  0  0  -0.498493  0  2.338371  0  0  -0.522176  0  2.323072  0  0  -0.325764  -0.482074  0  2.348833  0
O  O74  1  0.66241539  0.96561424  0.08265221  1  0  -0.562873  0  1.933963  0  0  -0.521704  0  2.160653  0  0  -0.544309  0  2.154751  0  0  -0.287458  -0.506135  0  2.164448  0
O  O75  1  0.33758478  0.03438720  0.91734886  1  0  -0.562892  0  1.933677  0  0  -0.521703  0  2.160391  0  0  -0.544309  0  2.154492  0  0  -0.287473  -0.506133  0  2.164187  0
O  O76  1  0.27082318  0.99665092  0.44474559  1  0  -0.684607  0  2.093349  0  0  -0.641596  0  2.340608  0  0  -0.666368  0  2.330527  0  0  -0.358564  -0.613618  0  2.349043  0
O  O77  1  0.72919290  0.00336649  0.55526681  1  0  -0.684646  0  2.093308  0  0  -0.641685  0  2.340539  0  0  -0.666457  0  2.330453  0  0  -0.358677  -0.613705  0  2.348975  0
O  O78  1  0.49956704  0.20975101  0.48786056  1  0  -0.647712  0  2.080103  0  0  -0.604024  0  2.31648  0  0  -0.627619  0  2.306026  0  0  -0.333259  -0.578245  0  2.325508  0
O  O79  1  0.50044449  0.79026268  0.51215391  1  0  -0.647625  0  2.079896  0  0  -0.604  0  2.31623  0  0  -0.627594  0  2.305781  0  0  -0.333326  -0.578221  0  2.325254  0
O  O80  1  0.90939325  0.82737743  0.42536360  1  0  -0.901516  0  1.909532  0  0  -0.859425  0  2.103501  0  0  -0.877393  0  2.072824  0  0  -0.631886  -0.836794  0  2.130737  0
O  O81  1  0.09060789  0.17262154  0.57463452  1  0  -0.901535  0  1.909529  0  0  -0.859445  0  2.103478  0  0  -0.877417  0  2.072799  0  0  -0.631893  -0.836813  0  2.130712  0
O  O82  1  0.28350434  0.46936734  0.48899608  1  0  -0.925135  0  1.892689  0  0  -0.884732  0  2.084948  0  0  -0.902743  0  2.051655  0  0  -0.647313  -0.861368  0  2.114889  0
O  O83  1  0.71649442  0.53063416  0.51100065  1  0  -0.925088  0  1.892701  0  0  -0.884684  0  2.084943  0  0  -0.902702  0  2.051669  0  0  -0.647282  -0.861322  0  2.11489  0
