# generated using pymatgen
data_CuH14C26(NO)4
_symmetry_space_group_name_H-M   'P 1'
_cell_length_a   9.20661353
_cell_length_b   10.62717543
_cell_length_c   11.69845595
_cell_angle_alpha   70.11921238
_cell_angle_beta   89.73543213
_cell_angle_gamma   75.13127984
_symmetry_Int_Tables_number   1
_chemical_formula_structural   CuH14C26(NO)4
_chemical_formula_sum   'Cu2 H28 C52 N8 O8'
_cell_volume   1036.01577438
_cell_formula_units_Z   2
loop_
 _symmetry_equiv_pos_site_id
 _symmetry_equiv_pos_as_xyz
  1  'x, y, z'
loop_
 _atom_site_type_symbol
 _atom_site_label
 _atom_site_symmetry_multiplicity
 _atom_site_fract_x
 _atom_site_fract_y
 _atom_site_fract_z
 _atom_site_occupancy
 _atom_site_hle17_ddec_charge
 _atom_site_hle17_ddec_spin_density
 _atom_site_hle17_ddec_sum_bond_order
 _atom_site_hle17_magmom
 _atom_site_hse06_10hf_ddec_charge
 _atom_site_hse06_10hf_ddec_spin_density
 _atom_site_hse06_10hf_ddec_sum_bond_order
 _atom_site_hse06_10hf_magmom
 _atom_site_hse06_ddec_charge
 _atom_site_hse06_ddec_spin_density
 _atom_site_hse06_ddec_sum_bond_order
 _atom_site_hse06_magmom
 _atom_site_pbe_cm5_charge
 _atom_site_pbe_ddec_charge
 _atom_site_pbe_ddec_spin_density
 _atom_site_pbe_ddec_sum_bond_order
 _atom_site_pbe_magmom
Cu  Cu0  1  0.81325637  0.24943638  0.94728780  1  0.813117  -0.690859  1.90656  -0.503  0.781023  -0.771532  2.308371  -0.614  0.86896  -0.837339  2.241449  -0.699  0.755083  0.730576  -0.728246  2.354029  -0.563
Cu  Cu1  1  0.18674225  0.75056448  0.05271285  1  0.813148  -0.690863  1.90649  -0.503  0.781013  -0.771528  2.30834  -0.614  0.86899  -0.837335  2.241391  -0.699  0.755118  0.73058  -0.728243  2.353995  -0.563
H  H2  1  0.88626698  0.71536869  0.85805955  1  0.139828  -0.000643  0.962913  -0.001  0.145011  -0.000569  1.028488  -0.001  0.14946  -0.000336  1.025782  -0.001  0.115381  0.14121  -0.000994  1.031357  -0.001
H  H3  1  0.11374079  0.28463425  0.14193952  1  0.139819  -0.000664  0.962947  -0.001  0.145002  -0.000569  1.028509  -0.001  0.149455  -0.000336  1.02579  -0.001  0.115364  0.141201  -0.000994  1.03138  -0.001
H  H4  1  0.06910031  0.70826065  0.69966639  1  0.112973  -0.000127  0.975142  0.0  0.112328  5.5e-05  1.048247  0.0  0.117503  7.1e-05  1.04354  0.0  0.107727  0.108176  5.2e-05  1.052147  0.0
H  H5  1  0.93091056  0.29173917  0.30033447  1  0.112802  -0.000148  0.975238  0.0  0.112266  5.5e-05  1.048245  0.0  0.11744  7e-05  1.043541  0.0  0.107712  0.108121  5.2e-05  1.052148  0.0
H  H6  1  0.04895174  0.28570675  0.76206165  1  0.093448  -0.000923  0.947478  -0.002  0.100238  -0.000765  1.014522  -0.002  0.103173  -0.000567  1.011597  -0.001  0.12097  0.097866  -0.000871  1.017002  -0.002
H  H7  1  0.95105231  0.71429411  0.23793895  1  0.09354  -0.000921  0.947378  -0.002  0.100255  -0.000765  1.014501  -0.002  0.103193  -0.000566  1.011571  -0.001  0.120961  0.097881  -0.000871  1.016981  -0.002
H  H8  1  0.22544332  0.71200386  0.33877171  1  0.081213  0.000103  0.941908  0.0  0.089291  7.7e-05  1.008222  0.0  0.092818  7.4e-05  1.005193  0.0  0.112306  0.086922  8.1e-05  1.010137  0.0
H  H9  1  0.77455543  0.28799284  0.66122937  1  0.081284  0.000103  0.941881  0.0  0.089377  7.7e-05  1.008174  0.0  0.092904  7.3e-05  1.005142  0.0  0.112325  0.087009  8.1e-05  1.010087  0.0
H  H10  1  0.54184098  0.53516796  0.14548173  1  0.096444  5.9e-05  0.963002  0.0  0.101189  1e-06  1.02877  0.0  0.106682  1e-05  1.023376  0.0  0.113617  0.09731  -3.7e-05  1.032325  0.0
H  H11  1  0.45815324  0.46483291  0.85451384  1  0.096465  6.4e-05  0.962997  0.0  0.101224  1e-06  1.028755  0.0  0.106715  9e-06  1.023366  0.0  0.113637  0.097345  -3.7e-05  1.03231  0.0
H  H12  1  0.59969710  0.30284807  0.31166517  1  0.106024  -1.5e-05  0.964883  0.0  0.114475  -1.6e-05  1.026994  0.0  0.11784  -8e-06  1.026026  0.0  0.10787  0.112313  -2.4e-05  1.027614  0.0
H  H13  1  0.40030038  0.69715281  0.68833037  1  0.106045  -7e-06  0.964879  0.0  0.114495  -1.6e-05  1.026989  0.0  0.11786  -7e-06  1.026019  0.0  0.107878  0.112331  -2.4e-05  1.027607  0.0
H  H14  1  0.46222799  0.27587945  0.50190842  1  0.09559  8e-06  0.952147  0.0  0.105094  1.2e-05  1.016398  0.0  0.107977  9e-06  1.014563  0.0  0.106196  0.103036  1.4e-05  1.017703  0.0
H  H15  1  0.53777586  0.72411830  0.49808972  1  0.095597  8e-06  0.95208  0.0  0.105095  1.2e-05  1.016339  0.0  0.107977  9e-06  1.014505  0.0  0.106192  0.103039  1.4e-05  1.017644  0.0
H  H16  1  0.73460956  0.78707547  0.02876300  1  0.136614  -0.000556  0.971397  -0.001  0.141477  -0.000547  1.03763  -0.001  0.146176  -0.000309  1.034677  -0.001  0.114019  0.137567  -0.001015  1.040712  -0.001
H  H17  1  0.26538860  0.21292331  0.97123916  1  0.136591  -0.000573  0.971413  -0.001  0.141461  -0.000547  1.037639  -0.001  0.146158  -0.000309  1.034688  -0.001  0.114007  0.137551  -0.001015  1.040722  -0.001
H  H18  1  0.55041111  0.79496804  0.18654707  1  0.115316  -0.000184  0.945502  0.0  0.122089  2.9e-05  1.00885  0.0  0.125304  4.2e-05  1.006861  0.0  0.11054  0.11976  3.1e-05  1.010232  0.0
H  H19  1  0.44958953  0.20502970  0.81345539  1  0.115287  -0.000205  0.945404  0.0  0.122057  2.9e-05  1.008779  0.0  0.125272  4.2e-05  1.00679  0.0  0.110531  0.119729  3.1e-05  1.01016  0.0
H  H20  1  0.58594170  0.20935867  0.13804924  1  0.10803  -0.001045  0.922893  -0.002  0.115576  -0.000857  0.985189  -0.002  0.119077  -0.000634  0.981752  -0.001  0.12867  0.113134  -0.000972  0.987366  -0.002
H  H21  1  0.41405257  0.79064218  0.86195146  1  0.108037  -0.001042  0.922884  -0.002  0.11556  -0.000857  0.985189  -0.002  0.119064  -0.000634  0.981753  -0.001  0.128661  0.113117  -0.000972  0.987364  -0.002
H  H22  1  0.25741120  0.81263401  0.48356097  1  0.066648  0.0  0.955624  0.0  0.073697  -1.3e-05  1.026064  0.0  0.075948  -9e-06  1.024421  0.0  0.108841  0.07212  -9e-06  1.027237  0.0
H  H23  1  0.74258815  0.18736790  0.51643508  1  0.066651  1.5e-05  0.955619  0.0  0.073733  -1.4e-05  1.02602  0.0  0.075987  -1e-05  1.024377  0.0  0.108844  0.072155  -9e-06  1.027196  0.0
H  H24  1  0.04289626  0.00083226  0.71843849  1  0.089955  -7.5e-05  0.967674  0.0  0.0943  -0.000158  1.035992  0.0  0.098922  -0.000124  1.031588  0.0  0.108906  0.09036  -0.000188  1.040258  0.0
H  H25  1  0.95710279  0.99916340  0.28156206  1  0.090001  -9.1e-05  0.967663  0.0  0.094316  -0.000158  1.03599  0.0  0.098937  -0.000124  1.031588  0.0  0.108916  0.090375  -0.000188  1.040259  0.0
H  H26  1  0.10016181  0.22748340  0.59846456  1  0.091932  -1.4e-05  0.967057  0.0  0.10196  -1e-05  1.0297  0.0  0.104593  -5e-06  1.029727  0.0  0.100696  0.099699  -2.5e-05  1.03049  0.0
H  H27  1  0.89983777  0.77251432  0.40154048  1  0.091934  -2.1e-05  0.967063  0.0  0.101975  -1.1e-05  1.0297  0.0  0.104607  -6e-06  1.02973  0.0  0.100698  0.099712  -2.5e-05  1.030487  0.0
H  H28  1  0.25300989  0.23775249  0.41991373  1  0.089512  6.6e-05  0.975263  0.0  0.101436  2.2e-05  1.035886  0.0  0.103185  2e-05  1.03605  0.0  0.10238  0.100208  2.2e-05  1.035721  0.0
H  H29  1  0.74699046  0.76224628  0.58009012  1  0.089552  5.3e-05  0.975217  0.0  0.101469  2.2e-05  1.035841  0.0  0.10322  1.9e-05  1.036004  0.0  0.102378  0.100238  2.2e-05  1.035679  0.0
C  C30  1  0.75679518  0.50137695  0.98299557  1  0.586691  0.00769  3.952531  0.007  0.542843  0.001381  4.259195  0.002  0.57726  0.001242  4.255405  0.001  0.20048  0.519473  0.001109  4.260965  0.002
C  C31  1  0.24320575  0.49862704  0.01700153  1  0.586842  0.007641  3.952344  0.007  0.542924  0.001385  4.259117  0.002  0.577341  0.001244  4.255333  0.001  0.200521  0.519556  0.001109  4.260883  0.002
C  C32  1  0.87074560  0.50741120  0.88937349  1  0.087221  0.009726  3.73841  0.006  0.091332  0.002695  3.981288  0.001  0.095155  0.003902  4.001792  0.002  0.108698  0.088507  0.001752  3.968692  0.001
C  C33  1  0.12925816  0.49259070  0.11062765  1  0.087069  0.009742  3.738383  0.006  0.091184  0.00266  3.981301  0.001  0.095004  0.003914  4.001808  0.002  0.108644  0.088358  0.001752  3.968704  0.001
C  C34  1  0.92370019  0.62308344  0.83283807  1  -0.10074  -0.007001  3.673292  -0.007  -0.122564  -0.002702  3.919176  -0.003  -0.128057  -0.002412  3.93737  -0.003  -0.07033  -0.11945  -0.002294  3.907972  -0.002
C  C35  1  0.07630712  0.37691742  0.16716251  1  -0.100737  -0.006976  3.673331  -0.007  -0.122536  -0.002691  3.919272  -0.003  -0.128027  -0.002411  3.937467  -0.003  -0.070308  -0.119419  -0.002293  3.908072  -0.002
C  C36  1  0.02569776  0.61857701  0.74516600  1  -0.024027  0.011818  3.595878  0.007  -0.042286  0.0039  3.83586  0.002  -0.037994  0.004563  3.84812  0.002  -0.050448  -0.044587  0.003271  3.827605  0.002
C  C37  1  0.97431047  0.38142073  0.25483552  1  -0.023833  0.011945  3.595767  0.007  -0.042215  0.003909  3.835808  0.002  -0.037922  0.004547  3.848068  0.002  -0.05044  -0.044521  0.003271  3.827561  0.002
C  C38  1  0.07189887  0.49727618  0.71499603  1  0.083008  -0.008428  3.860853  -0.01  0.098185  -0.003492  4.088206  -0.004  0.096978  -0.003193  4.108294  -0.004  0.011284  0.097822  -0.003588  4.075038  -0.004
C  C39  1  0.92810968  0.50272052  0.28500667  1  0.083117  -0.008486  3.860628  -0.01  0.098277  -0.003505  4.088053  -0.004  0.097066  -0.003179  4.108141  -0.004  0.011352  0.097913  -0.003589  4.074889  -0.004
C  C40  1  0.01618640  0.38342953  0.77888768  1  0.095341  0.01125  3.630779  0.008  0.060271  0.00244  3.884953  0.002  0.068767  0.004084  3.901276  0.003  0.061209  0.054918  0.001072  3.875086  0.001
C  C41  1  0.98381797  0.61657029  0.22111409  1  0.095176  0.011294  3.630754  0.008  0.060174  0.00247  3.884924  0.002  0.068674  0.004052  3.901248  0.003  0.061194  0.054824  0.001072  3.875057  0.001
C  C42  1  0.16746259  0.48994984  0.62112513  1  -0.094756  0.004713  3.854191  0.003  -0.089551  0.000637  4.10056  0.0  -0.093432  0.000864  4.13325  0.001  -0.03268  -0.086875  0.000168  4.079372  0.0
C  C43  1  0.83254135  0.51004789  0.37888072  1  -0.094779  0.004748  3.854498  0.003  -0.089565  0.000607  4.100861  0.0  -0.093444  0.000878  4.133546  0.001  -0.032714  -0.086893  0.000167  4.079677  0.0
C  C44  1  0.24610959  0.48675928  0.53728701  1  -0.088342  -0.005642  3.862517  -0.005  -0.09026  -0.001528  4.112199  -0.002  -0.094529  -0.001342  4.145875  -0.001  -0.035142  -0.08693  -0.001542  4.089847  -0.001
C  C45  1  0.75389827  0.51323952  0.46270906  1  -0.088344  -0.00566  3.862735  -0.005  -0.090246  -0.001516  4.11239  -0.002  -0.094513  -0.001348  4.146063  -0.001  -0.03511  -0.08691  -0.001541  4.090038  -0.001
C  C46  1  0.33179228  0.49221201  0.43584457  1  0.058723  0.000488  3.908546  0.001  0.078058  2e-06  4.135758  0.0  0.076168  -8e-06  4.158716  0.0  -0.005442  0.079068  -2.8e-05  4.119631  0.0
C  C47  1  0.66820803  0.50778676  0.56415586  1  0.058789  0.00046  3.908409  0.001  0.078102  -5e-06  4.135636  0.0  0.076209  -5e-06  4.158597  0.0  -0.005424  0.079111  -2.8e-05  4.119507  0.0
C  C48  1  0.30925713  0.61892737  0.33719738  1  0.073949  -6.5e-05  3.696997  0.0  0.041602  0.000632  3.956811  0.0  0.046857  0.000611  3.973711  0.0  0.046011  0.039234  0.000725  3.944844  0.0
C  C49  1  0.69074160  0.38106933  0.66280199  1  0.073844  -4.9e-05  3.697044  0.0  0.041492  0.000646  3.956852  0.0  0.046748  0.000608  3.973749  0.0  0.04599  0.039117  0.000725  3.944897  0.0
C  C50  1  0.48358162  0.51986638  0.22867414  1  0.133551  0.000423  3.672659  0.0  0.106895  0.000885  3.931318  0.0  0.114256  0.000734  3.945621  0.0  0.046903  0.102795  0.000852  3.922613  0.0
C  C51  1  0.51641540  0.48013241  0.77132290  1  0.133465  0.000386  3.672691  0.0  0.106789  0.000888  3.931373  0.0  0.114148  0.000736  3.945676  0.0  0.046846  0.102689  0.000852  3.922664  0.0
C  C52  1  0.51497893  0.39015118  0.32188691  1  -0.116293  -4.3e-05  3.738169  0.0  -0.127063  -8.5e-05  3.986047  0.0  -0.133577  -0.000116  4.00656  0.0  -0.084077  -0.123568  -5.8e-05  3.973378  0.0
C  C53  1  0.48501916  0.60984762  0.67810926  1  -0.116233  -5e-05  3.738151  0.0  -0.126992  -9e-05  3.986008  0.0  -0.133507  -0.000116  4.00653  0.0  -0.084045  -0.123493  -5.8e-05  3.973333  0.0
C  C54  1  0.43923982  0.37536387  0.42677277  1  -0.066199  -0.000154  3.702176  0.0  -0.088362  0.000521  3.943908  0.0  -0.085157  0.000403  3.960226  0.0  -0.068031  -0.09035  0.000693  3.933103  0.0
C  C55  1  0.56076154  0.62463492  0.57322508  1  -0.066243  -0.000149  3.702283  0.0  -0.088392  0.000535  3.944015  0.0  -0.085185  0.000399  3.960333  0.0  -0.068049  -0.090386  0.000693  3.933213  0.0
C  C56  1  0.87308698  0.99624580  0.91229184  1  0.592497  0.007631  3.939731  0.006  0.547088  0.001959  4.246253  0.002  0.58275  0.001783  4.240228  0.001  0.199662  0.521827  0.001745  4.251149  0.002
C  C57  1  0.12691055  0.00375506  0.08770883  1  0.592533  0.007632  3.939696  0.006  0.54712  0.001956  4.246253  0.002  0.582783  0.001784  4.240227  0.001  0.19966  0.52186  0.001745  4.251152  0.002
C  C58  1  0.75955809  0.99042931  0.00573056  1  0.095721  0.010281  3.72517  0.007  0.100421  0.002728  3.966486  0.001  0.103581  0.00405  3.986322  0.002  0.110089  0.09834  0.001654  3.954852  0.001
C  C59  1  0.24043758  0.00957050  0.99427045  1  0.095673  0.010282  3.725279  0.007  0.100341  0.002741  3.966669  0.001  0.103502  0.00403  3.986508  0.002  0.110052  0.098264  0.001654  3.955026  0.001
C  C60  1  0.70150981  0.87694980  0.05777195  1  -0.106771  -0.007601  3.700528  -0.008  -0.128138  -0.002907  3.948366  -0.003  -0.133201  -0.002593  3.967385  -0.003  -0.07252  -0.125452  -0.002485  3.936518  -0.002
C  C61  1  0.29848586  0.12305001  0.94222906  1  -0.106749  -0.007578  3.700525  -0.008  -0.128096  -0.002913  3.948383  -0.003  -0.133161  -0.002585  3.967404  -0.003  -0.072477  -0.125412  -0.002485  3.936535  -0.002
C  C62  1  0.59935530  0.88150081  0.14518793  1  -0.046727  0.01242  3.624506  0.008  -0.069449  0.004032  3.869595  0.002  -0.066635  0.00467  3.885019  0.003  -0.058369  -0.070323  0.003621  3.858586  0.002
C  C63  1  0.40064176  0.11849796  0.85481338  1  -0.04659  0.012479  3.62432  0.008  -0.069359  0.004031  3.869471  0.002  -0.066539  0.004662  3.884884  0.003  -0.058353  -0.070236  0.003621  3.858466  0.002
C  C64  1  0.55582904  0.00091437  0.17828591  1  0.079701  -0.008982  3.883948  -0.01  0.09585  -0.003625  4.112967  -0.005  0.09542  -0.003285  4.133934  -0.004  0.00975  0.096513  -0.0037  4.098116  -0.005
C  C65  1  0.44416661  0.99908545  0.82171339  1  0.079627  -0.008945  3.883999  -0.01  0.095812  -0.003613  4.112951  -0.005  0.095383  -0.003287  4.133917  -0.004  0.00971  0.096475  -0.003701  4.098103  -0.005
C  C66  1  0.61748181  0.11265624  0.11943155  1  0.114709  0.012785  3.591011  0.009  0.079954  0.00308  3.841893  0.002  0.088856  0.004668  3.856313  0.003  0.071652  0.07462  0.001782  3.832252  0.001
C  C67  1  0.38251384  0.88734358  0.88056775  1  0.114684  0.012708  3.5911  0.009  0.079983  0.003062  3.841925  0.002  0.088881  0.004674  3.85635  0.003  0.071697  0.07465  0.001782  3.832283  0.001
C  C68  1  0.45370534  0.01069172  0.26718727  1  -0.097444  0.005587  3.853755  0.004  -0.09686  0.000727  4.104727  0.001  -0.102271  0.001038  4.137245  0.001  -0.034962  -0.092837  0.00028  4.08155  0.0
C  C69  1  0.54629462  0.98930812  0.73280856  1  -0.097465  0.005554  3.853951  0.004  -0.096891  0.000747  4.104914  0.001  -0.102299  0.000974  4.137427  0.001  -0.034965  -0.092869  0.000279  4.081737  0.0
C  C70  1  0.36697113  0.01946191  0.34512166  1  -0.070404  -0.006178  3.849399  -0.006  -0.069812  -0.001585  4.096413  -0.002  -0.071851  -0.001433  4.128426  -0.002  -0.027886  -0.067883  -0.001631  4.07338  -0.002
C  C71  1  0.63302690  0.98054102  0.65488093  1  -0.070392  -0.006174  3.849565  -0.006  -0.069793  -0.001601  4.096581  -0.002  -0.071831  -0.001398  4.128589  -0.001  -0.027867  -0.067864  -0.00163  4.073545  -0.002
C  C72  1  0.27242985  0.02400354  0.43979577  1  0.066559  0.001339  3.896243  0.001  0.084655  0.000155  4.122244  0.0  0.082461  0.000267  4.145175  0.0  0.001486  0.085775  9.7e-05  4.106594  0.0
C  C73  1  0.72757063  0.97599836  0.56020455  1  0.066564  0.001292  3.896119  0.001  0.084641  0.000168  4.122155  0.0  0.082447  0.000244  4.145086  0.0  0.001431  0.08576  9.7e-05  4.106501  0.0
C  C74  1  0.22661368  0.90555263  0.50868076  1  0.071054  -0.00107  3.712527  -0.001  0.042202  -0.000151  3.964955  0.0  0.046943  -0.000208  3.982535  0.0  0.052959  0.038727  -0.000115  3.953356  0.0
C  C75  1  0.77338600  0.09444824  0.49131818  1  0.071076  -0.001076  3.712362  -0.001  0.042203  -0.000155  3.964805  0.0  0.046938  -0.000196  3.982396  0.0  0.052981  0.03873  -0.000115  3.95321  0.0
C  C76  1  0.10564659  0.01178167  0.63762678  1  0.118386  -0.00077  3.696299  -0.001  0.091855  -4.7e-05  3.955459  0.0  0.097724  -0.000131  3.971969  0.0  0.043881  0.08763  5.4e-05  3.945044  0.0
C  C77  1  0.89435401  0.98821607  0.36237311  1  0.118299  -0.000708  3.696364  -0.001  0.091836  -5.1e-05  3.955501  0.0  0.097705  -0.000116  3.972009  0.0  0.043872  0.087611  5.4e-05  3.94509  0.0
C  C78  1  0.13920455  0.13640680  0.57191593  1  -0.118543  0.000894  3.759026  0.001  -0.132101  0.000108  4.013312  0.0  -0.139428  0.00018  4.036628  0.0  -0.086422  -0.127453  5.9e-05  3.997785  0.0
C  C79  1  0.86079545  0.86359302  0.42808418  1  -0.118583  0.000854  3.758975  0.001  -0.132186  0.000112  4.013283  0.0  -0.139511  0.00016  4.036596  0.0  -0.086497  -0.127535  5.9e-05  3.997752  0.0
C  C80  1  0.22379539  0.14293976  0.47256442  1  -0.053616  -0.001035  3.695792  -0.001  -0.077175  -0.00014  3.936487  0.0  -0.075351  -0.00018  3.955971  0.0  -0.064122  -0.077549  -9.8e-05  3.922628  0.0
C  C81  1  0.77620432  0.85706110  0.52743709  1  -0.053631  -0.000972  3.69568  -0.001  -0.077168  -0.000143  3.936386  0.0  -0.075342  -0.000166  3.95587  0.0  -0.064038  -0.077538  -9.8e-05  3.922519  0.0
N  N82  1  0.91867354  0.39016855  0.86265998  1  -0.301594  -0.068332  3.396762  -0.087  -0.255139  -0.048139  3.685601  -0.065  -0.283924  -0.039977  3.708351  -0.058  -0.350582  -0.23881  -0.051975  3.673802  -0.067
N  N83  1  0.08132910  0.60983335  0.13733947  1  -0.30154  -0.068357  3.396751  -0.087  -0.255045  -0.048138  3.68553  -0.065  -0.283843  -0.039969  3.708288  -0.058  -0.350564  -0.238718  -0.051973  3.673729  -0.067
N  N84  1  0.38190769  0.63256701  0.23632378  1  -0.339392  0.00167  3.188805  0.0  -0.304045  0.001614  3.480035  0.0  -0.321035  0.001721  3.49636  0.0  -0.329538  -0.29387  0.001454  3.469773  0.0
N  N85  1  0.61808855  0.36743073  0.76367444  1  -0.339387  0.001677  3.188938  0.0  -0.304041  0.00161  3.480164  0.0  -0.321025  0.001721  3.496486  0.0  -0.329547  -0.293861  0.001454  3.469894  0.0
N  N86  1  0.71631819  0.10513700  0.03679572  1  -0.293707  -0.070392  3.384376  -0.09  -0.25185  -0.049082  3.681685  -0.067  -0.279526  -0.040687  3.701663  -0.059  -0.346973  -0.236131  -0.052862  3.671364  -0.068
N  N87  1  0.28367716  0.89486385  0.96320411  1  -0.293727  -0.070383  3.384472  -0.09  -0.251892  -0.049081  3.681809  -0.067  -0.279578  -0.040685  3.701796  -0.059  -0.347037  -0.236179  -0.052862  3.671493  -0.068
N  N88  1  0.14782183  0.89828899  0.60554525  1  -0.298267  0.000671  3.116309  0.001  -0.255176  0.000109  3.381152  0.0  -0.267885  0.000164  3.398455  0.0  -0.310424  -0.246472  3.8e-05  3.36983  0.0
N  N89  1  0.85217660  0.10170875  0.39445381  1  -0.298203  0.000633  3.116228  0.001  -0.255148  0.000114  3.381082  0.0  -0.267857  0.00015  3.398388  0.0  -0.310429  -0.246451  3.8e-05  3.36977  0.0
O  O90  1  0.72294598  0.38367701  0.02705877  1  -0.572927  -0.094011  2.01002  -0.128  -0.549203  -0.062247  2.28964  -0.093  -0.591754  -0.04743  2.281682  -0.077  -0.326855  -0.522173  -0.070907  2.29551  -0.101
O  O91  1  0.27705465  0.61632801  0.97293802  1  -0.572988  -0.094007  2.009921  -0.128  -0.549222  -0.062253  2.289551  -0.093  -0.591783  -0.047432  2.281598  -0.077  -0.326886  -0.5222  -0.070911  2.295435  -0.101
O  O92  1  0.70247013  0.60467996  0.01243042  1  -0.547612  -0.020338  1.927261  -0.027  -0.511076  -0.010062  2.145868  -0.015  -0.537134  -0.004513  2.141381  -0.007  -0.296064  -0.491111  -0.015386  2.147484  -0.021
O  O93  1  0.29753408  0.39532402  0.98756836  1  -0.547618  -0.020313  1.927203  -0.027  -0.511071  -0.010059  2.14586  -0.015  -0.537129  -0.004518  2.141376  -0.007  -0.296054  -0.49111  -0.015386  2.147478  -0.021
O  O94  1  0.90905606  0.11326464  0.86944205  1  -0.597273  -0.087378  2.046501  -0.119  -0.56794  -0.059129  2.328991  -0.088  -0.609997  -0.045118  2.322265  -0.073  -0.33081  -0.540137  -0.067706  2.335039  -0.096
O  O95  1  0.09094041  0.88673620  0.13056034  1  -0.597277  -0.087386  2.046476  -0.119  -0.567915  -0.059133  2.328937  -0.088  -0.609983  -0.045115  2.322214  -0.073  -0.330825  -0.540098  -0.067709  2.334952  -0.096
O  O96  1  0.92818095  0.89335416  0.88233439  1  -0.559142  -0.017766  1.951196  -0.025  -0.532371  -0.00842  2.19181  -0.014  -0.558091  -0.003178  2.182289  -0.007  -0.295578  -0.513571  -0.013872  2.198488  -0.02
O  O97  1  0.07181861  0.10664357  0.11766893  1  -0.559173  -0.017764  1.951248  -0.025  -0.532379  -0.008418  2.191848  -0.014  -0.558095  -0.003182  2.18232  -0.007  -0.295556  -0.513581  -0.013871  2.198528  -0.02
