# generated using pymatgen
data_AlH6C21N(OF)6
_symmetry_space_group_name_H-M   'P 1'
_cell_length_a   4.13177324
_cell_length_b   13.51070899
_cell_length_c   13.51085918
_cell_angle_alpha   120.00001306
_cell_angle_beta   89.99952303
_cell_angle_gamma   89.99996222
_symmetry_Int_Tables_number   1
_chemical_formula_structural   AlH6C21N(OF)6
_chemical_formula_sum   'Al1 H6 C21 N1 O6 F6'
_cell_volume   653.17290430
_cell_formula_units_Z   1
loop_
 _symmetry_equiv_pos_site_id
 _symmetry_equiv_pos_as_xyz
  1  'x, y, z'
loop_
 _atom_site_type_symbol
 _atom_site_label
 _atom_site_symmetry_multiplicity
 _atom_site_fract_x
 _atom_site_fract_y
 _atom_site_fract_z
 _atom_site_occupancy
 _atom_site_pbe_bader_charge
 _atom_site_pbe_bader_spin_density
 _atom_site_pbe_cm5_charge
 _atom_site_pbe_ddec_charge
 _atom_site_pbe_ddec_spin_density
 _atom_site_pbe_ddec_sum_bond_order
 _atom_site_pbe_magmom
Al  Al0  1  0.00000724  0.49999425  0.49999824  1  2.511515  0  0.444638  1.623561  0  2.539061  0
H  H1  1  0.21676875  0.02754308  0.89900740  1  0.120047  0  0.111821  0.144956  0  1.014559  0
H  H2  1  0.78323140  0.02754689  0.62853954  1  0.096958  0  0.111815  0.144947  0  1.014566  0
H  H3  1  0.78322906  0.10099156  0.97244893  1  0.119823  0  0.11182  0.144958  0  1.014562  0
H  H4  1  0.21676500  0.37146032  0.97245171  1  0.097434  0  0.111825  0.144953  0  1.014555  0
H  H5  1  0.78326127  0.37144827  0.89900019  1  0.105582  0  0.111831  0.144976  0  1.014623  0
H  H6  1  0.21673122  0.10099630  0.62855237  1  0.105707  0  0.111847  0.144975  0  1.014528  0
C  C7  1  0.50001777  0.41305238  0.32611245  1  1.670787  0  0.288734  0.716926  0  4.04866  0
C  C8  1  0.49999728  0.41305285  0.58694373  1  1.658352  0  0.288755  0.71701  0  4.048376  0
C  C9  1  0.50000187  0.67387880  0.58693608  1  1.67212  0  0.288861  0.716747  0  4.048969  0
C  C10  1  0.34735547  0.86600002  0.75673687  1  0.483978  0  0.107603  0.312105  0  4.071215  0
C  C11  1  0.34167416  0.98441724  0.81743800  1  -0.020574  0  -0.114951  -0.331843  0  4.00365  0
C  C12  1  0.49999267  0.04541900  0.77271073  1  0.366022  0  0.096653  0.235556  0  4.031898  0
C  C13  1  0.65832718  0.98442026  0.66698259  1  -0.046506  0  -0.114967  -0.331977  0  4.003691  0
C  C14  1  0.65264287  0.86600436  0.60926295  1  0.550822  0  0.107701  0.312455  0  4.070977  0
C  C15  1  0.49999603  0.80230895  0.65115132  1  0.118643  0  -0.030192  -0.274505  0  3.973895  0
C  C16  1  0.65832471  0.18255511  0.01557558  1  -0.020684  0  -0.114899  -0.331791  0  4.003515  0
C  C17  1  0.65263299  0.24325338  0.13399290  1  0.484145  0  0.107618  0.312283  0  4.071054  0
C  C18  1  0.50000022  0.34884181  0.19768498  1  0.112933  0  -0.030088  -0.27455  0  3.973808  0
C  C19  1  0.34735230  0.39073528  0.13399421  1  0.556537  0  0.107608  0.312219  0  4.071165  0
C  C20  1  0.34165908  0.33301990  0.01558132  1  -0.044638  0  -0.114979  -0.331867  0  4.003717  0
C  C21  1  0.49999971  0.22729041  0.95457994  1  0.363648  0  0.096661  0.235438  0  4.032098  0
C  C22  1  0.65835237  0.33301749  0.81744170  1  0.093796  0  -0.115  -0.331976  0  4.00357  0
C  C23  1  0.65263647  0.39073634  0.75673842  1  0.377334  0  0.107602  0.312215  0  4.071279  0
C  C24  1  0.50000856  0.34884249  0.65116006  1  0.117433  0  -0.030117  -0.274475  0  3.973913  0
C  C25  1  0.34736775  0.24325649  0.60926503  1  0.377007  0  0.107599  0.312164  0  4.071035  0
C  C26  1  0.34164551  0.18256025  0.66698753  1  0.093786  0  -0.114949  -0.331883  0  4.003573  0
C  C27  1  0.49999250  0.22728937  0.77270900  1  0.371734  0  0.096668  0.235577  0  4.032047  0
N  N28  1  0.49998931  0.16666827  0.83333467  1  -1.324784  0  -0.242657  -0.140629  0  3.582332  0
O  O29  1  0.73663130  0.62529985  0.60514974  1  -1.236359  0  -0.226106  -0.588955  0  2.352054  0
O  O30  1  0.73663216  0.47984260  0.37469629  1  -1.246129  0  -0.226045  -0.588871  0  2.352091  0
O  O31  1  0.73663752  0.39484001  0.52014583  1  -1.234661  0  -0.226104  -0.589136  0  2.351795  0
O  O32  1  0.26339013  0.62529467  0.52014507  1  -1.247181  0  -0.226169  -0.588931  0  2.352175  0
O  O33  1  0.26336975  0.47984667  0.60515137  1  -1.233138  0  -0.226076  -0.589038  0  2.351961  0
O  O34  1  0.26338023  0.39483819  0.37469785  1  -1.235595  0  -0.226148  -0.589223  0  2.351853  0
F  F35  1  0.80637492  0.80904484  0.50695270  1  -0.625288  0  -0.089741  -0.122491  0  1.315599  0
F  F36  1  0.19361704  0.80903470  0.80208113  1  -0.624712  0  -0.089656  -0.122336  0  1.315725  0
F  F37  1  0.80637254  0.19790752  0.19095458  1  -0.624712  0  -0.089714  -0.122416  0  1.315688  0
F  F38  1  0.19362324  0.49304585  0.19095738  1  -0.625298  0  -0.089734  -0.122415  0  1.315648  0
F  F39  1  0.80640508  0.49303988  0.80208309  1  -0.617993  0  -0.089696  -0.122375  0  1.315718  0
F  F40  1  0.19360954  0.19791467  0.50696139  1  -0.617889  0  -0.089672  -0.122337  0  1.315721  0
