# generated using pymatgen
data_TbH6C9NO10
_symmetry_space_group_name_H-M   'P 1'
_cell_length_a   8.74563164
_cell_length_b   8.24498836
_cell_length_c   8.77433562
_cell_angle_alpha   75.87585180
_cell_angle_beta   75.76766112
_cell_angle_gamma   70.83063393
_symmetry_Int_Tables_number   1
_chemical_formula_structural   TbH6C9NO10
_chemical_formula_sum   'Tb2 H12 C18 N2 O20'
_cell_volume   569.98419354
_cell_formula_units_Z   2
loop_
 _symmetry_equiv_pos_site_id
 _symmetry_equiv_pos_as_xyz
  1  'x, y, z'
loop_
 _atom_site_type_symbol
 _atom_site_label
 _atom_site_symmetry_multiplicity
 _atom_site_fract_x
 _atom_site_fract_y
 _atom_site_fract_z
 _atom_site_occupancy
 _atom_site_hle17_bader_spin_density
 _atom_site_hle17_ddec_charge
 _atom_site_hle17_ddec_spin_density
 _atom_site_hle17_ddec_sum_bond_order
 _atom_site_hle17_magmom
 _atom_site_hse06_10hf_bader_spin_density
 _atom_site_hse06_10hf_ddec_charge
 _atom_site_hse06_10hf_ddec_spin_density
 _atom_site_hse06_10hf_ddec_sum_bond_order
 _atom_site_hse06_10hf_magmom
 _atom_site_hse06_bader_spin_density
 _atom_site_hse06_ddec_charge
 _atom_site_hse06_ddec_spin_density
 _atom_site_hse06_ddec_sum_bond_order
 _atom_site_hse06_magmom
 _atom_site_pbe_bader_spin_density
 _atom_site_pbe_cm5_charge
 _atom_site_pbe_ddec_charge
 _atom_site_pbe_ddec_spin_density
 _atom_site_pbe_ddec_sum_bond_order
 _atom_site_pbe_magmom
Tb  Tb0  1  0.12059300  0.33706540  0.68690337  1  0  2.218505  0  1.634625  0  0  2.05401  0  2.115497  0  0  2.102863  0  2.075064  0  0  1.506432  2.016621  0  2.147766  0
Tb  Tb1  1  0.87940604  0.66293311  0.31309725  1  0  2.218527  0  1.634674  0  0  2.0541  0  2.11544  0  0  2.102939  0  2.075028  0  0  1.506403  2.016656  0  2.147794  0
H  H2  1  0.59458092  0.36626928  0.11352750  1  0  0.40573  0  0.872819  0  0  0.36884  0  0.959211  0  0  0.383031  0  0.945306  0  0  0.302777  0.358949  0  0.968803  0
H  H3  1  0.40542482  0.63373069  0.88647035  1  0  0.405768  0  0.872779  0  0  0.368861  0  0.959198  0  0  0.383049  0  0.945301  0  0  0.30279  0.358973  0  0.968787  0
H  H4  1  0.90114748  0.68983370  0.69499946  1  0  0.441753  0  0.862432  0  0  0.409948  0  0.927537  0  0  0.421481  0  0.910502  0  0  0.302267  0.4018  0  0.939553  0
H  H5  1  0.09885029  0.31016084  0.30500342  1  0  0.441786  0  0.862377  0  0  0.409969  0  0.927504  0  0  0.421501  0  0.910472  0  0  0.30227  0.401821  0  0.93952  0
H  H6  1  0.96428764  0.64177094  0.86461911  1  0  0.460201  0  0.823665  0  0  0.433439  0  0.877678  0  0  0.443878  0  0.862445  0  0  0.30911  0.426062  0  0.888438  0
H  H7  1  0.03571173  0.35822232  0.13538259  1  0  0.460217  0  0.823634  0  0  0.43345  0  0.877658  0  0  0.44389  0  0.862422  0  0  0.309084  0.426075  0  0.888416  0
H  H8  1  0.89694178  0.26288137  0.99868557  1  0  0.441039  0  0.836903  0  0  0.40907  0  0.906901  0  0  0.418858  0  0.892519  0  0  0.318812  0.402138  0  0.917106  0
H  H9  1  0.10306185  0.73710937  0.00131584  1  0  0.441045  0  0.836889  0  0  0.409058  0  0.90692  0  0  0.418845  0  0.89254  0  0  0.318812  0.402128  0  0.917124  0
H  H10  1  0.07995205  0.14141036  0.99798171  1  0  0.44636  0  0.814074  0  0  0.421207  0  0.876476  0  0  0.431891  0  0.86276  0  0  0.32663  0.413587  0  0.885768  0
H  H11  1  0.92005457  0.85858700  0.00201425  1  0  0.446274  0  0.814134  0  0  0.42111  0  0.876552  0  0  0.431794  0  0.862876  0  0  0.326598  0.413489  0  0.88584  0
H  H12  1  0.87629899  0.16623102  0.37571086  1  0  0.125336  0  0.911488  0  0  0.137247  0  0.968108  0  0  0.141479  0  0.964348  0  0  0.128479  0.134117  0  0.970974  0
H  H13  1  0.12370314  0.83376758  0.62429713  1  0  0.125332  0  0.911558  0  0  0.137267  0  0.968138  0  0  0.141501  0  0.964376  0  0  0.128476  0.134141  0  0.971004  0
C  C14  1  0.34193209  0.16465801  0.37366655  1  0  0.61193  0  3.936347  0  0  0.562991  0  4.24021  0  0  0.59412  0  4.233956  0  0  0.20802  0.54193  0  4.243552  0
C  C15  1  0.65806884  0.83534316  0.62632743  1  0  0.611716  0  3.93616  0  0  0.56282  0  4.239965  0  0  0.593944  0  4.233718  0  0  0.207945  0.541759  0  4.243304  0
C  C16  1  0.47017043  0.19801584  0.43908643  1  0  0.110986  0  3.775614  0  0  0.100129  0  4.029469  0  0  0.104145  0  4.045449  0  0  0.123332  0.097234  0  4.018797  0
C  C17  1  0.52982205  0.80198908  0.56091409  1  0  0.110985  0  3.775756  0  0  0.100128  0  4.029578  0  0  0.104151  0  4.045558  0  0  0.123288  0.097232  0  4.018901  0
C  C18  1  0.63391941  0.16477724  0.36108734  1  0  -0.107732  0  3.733134  0  0  -0.09484  0  3.977359  0  0  -0.102504  0  3.994911  0  0  0.008775  -0.090018  0  3.965889  0
C  C19  1  0.36608128  0.83522393  0.63891124  1  0  -0.10766  0  3.733287  0  0  -0.094754  0  3.977474  0  0  -0.102421  0  3.995033  0  0  0.008795  -0.089932  0  3.966  0
C  C20  1  0.74659729  0.19421110  0.43119491  1  0  -0.006103  0  3.602674  0  0  -0.049055  0  3.862128  0  0  -0.043563  0  3.874184  0  0  -0.040959  -0.052628  0  3.854219  0
C  C21  1  0.25339694  0.80578730  0.56880897  1  0  -0.00606  0  3.6025  0  0  -0.049069  0  3.862022  0  0  -0.043575  0  3.874075  0  0  -0.040888  -0.052649  0  3.854113  0
C  C22  1  0.69214093  0.26632484  0.57071158  1  0  -0.046191  0  3.613581  0  0  -0.033884  0  3.85718  0  0  -0.039006  0  3.871866  0  0  0.024179  -0.030904  0  3.847717  0
C  C23  1  0.30785989  0.73367239  0.42928441  1  0  -0.046222  0  3.613577  0  0  -0.033934  0  3.857173  0  0  -0.039051  0  3.871862  0  0  0.024153  -0.030949  0  3.847708  0
C  C24  1  0.52398347  0.30497961  0.63687466  1  0  0.121961  0  3.678166  0  0  0.113053  0  3.928984  0  0  0.116912  0  3.943839  0  0  0.134261  0.110267  0  3.919114  0
C  C25  1  0.47601844  0.69502158  0.36312253  1  0  0.122027  0  3.678194  0  0  0.113157  0  3.928973  0  0  0.117018  0  3.943825  0  0  0.134287  0.110366  0  3.919101  0
C  C26  1  0.43592530  0.40712537  0.77056126  1  0  0.652994  0  3.868956  0  0  0.600118  0  4.171861  0  0  0.633796  0  4.162683  0  0  0.230357  0.577386  0  4.177267  0
C  C27  1  0.56407531  0.59287974  0.22943876  1  0  0.652896  0  3.868938  0  0  0.599987  0  4.171883  0  0  0.633665  0  4.162704  0  0  0.230331  0.577255  0  4.177285  0
C  C28  1  0.68929033  0.11440733  0.19932902  1  0  0.730246  0  3.763686  0  0  0.67191  0  4.070307  0  0  0.709709  0  4.055149  0  0  0.262999  0.645937  0  4.080279  0
C  C29  1  0.31070912  0.88559381  0.80067095  1  0  0.730226  0  3.763682  0  0  0.671893  0  4.070274  0  0  0.709687  0  4.055123  0  0  0.263008  0.645922  0  4.080244  0
C  C30  1  0.82191924  0.30565253  0.62810787  1  0  0.715646  0  3.870164  0  0  0.662669  0  4.172127  0  0  0.699067  0  4.158756  0  0  0.224747  0.637856  0  4.180446  0
C  C31  1  0.17808768  0.69432387  0.37191198  1  0  0.715583  0  3.869856  0  0  0.662629  0  4.171825  0  0  0.699013  0  4.158481  0  0  0.224707  0.637812  0  4.180143  0
N  N32  1  0.41941142  0.26553705  0.57237782  1  0  -0.434496  0  3.363316  0  0  -0.392842  0  3.633185  0  0  -0.406266  0  3.652735  0  0  -0.391618  -0.383398  0  3.619831  0
N  N33  1  0.58058836  0.73446279  0.42762352  1  0  -0.434474  0  3.363199  0  0  -0.392846  0  3.63306  0  0  -0.406271  0  3.652609  0  0  -0.391596  -0.383397  0  3.619705  0
O  O34  1  0.19417571  0.20094653  0.45871338  1  0  -0.751421  0  2.087409  0  0  -0.692326  0  2.331246  0  0  -0.719941  0  2.324535  0  0  -0.396066  -0.672495  0  2.335018  0
O  O35  1  0.80582432  0.79904936  0.54128305  1  0  -0.75131  0  2.087466  0  0  -0.69225  0  2.331282  0  0  -0.719861  0  2.324571  0  0  -0.396063  -0.672413  0  2.335055  0
O  O36  1  0.38422274  0.10811992  0.24647486  1  0  -0.510611  0  1.863943  0  0  -0.472889  0  2.063809  0  0  -0.49424  0  2.058831  0  0  -0.286625  -0.457773  0  2.066683  0
O  O37  1  0.61577479  0.89188380  0.75352493  1  0  -0.510559  0  1.86366  0  0  -0.472857  0  2.063508  0  0  -0.494208  0  2.058532  0  0  -0.286596  -0.457741  0  2.066379  0
O  O38  1  0.76909446  0.96260148  0.17990469  1  0  -0.656676  0  2.051347  0  0  -0.609938  0  2.302119  0  0  -0.633791  0  2.28922  0  0  -0.33116  -0.593131  0  2.31062  0
O  O39  1  0.23090449  0.03740491  0.82009767  1  0  -0.65673  0  2.051348  0  0  -0.609995  0  2.302121  0  0  -0.633853  0  2.289231  0  0  -0.331221  -0.593194  0  2.31062  0
O  O40  1  0.67352057  0.24397948  0.07794504  1  0  -0.520913  0  2.105243  0  0  -0.462291  0  2.320622  0  0  -0.486229  0  2.305403  0  0  -0.288144  -0.445989  0  2.330958  0
O  O41  1  0.32648666  0.75601922  0.92205394  1  0  -0.520917  0  2.105192  0  0  -0.462266  0  2.32057  0  0  -0.486199  0  2.305355  0  0  -0.2881  -0.445967  0  2.330903  0
O  O42  1  0.86666244  0.44117438  0.55082261  1  0  -0.784881  0  2.128782  0  0  -0.725597  0  2.390275  0  0  -0.753699  0  2.382374  0  0  -0.406704  -0.705267  0  2.394807  0
O  O43  1  0.13333670  0.55882807  0.44917600  1  0  -0.784638  0  2.129373  0  0  -0.725375  0  2.390866  0  0  -0.753466  0  2.382975  0  0  -0.406605  -0.705054  0  2.395399  0
O  O44  1  0.89621562  0.20006610  0.73476272  1  0  -0.650087  0  1.926196  0  0  -0.610086  0  2.163067  0  0  -0.632959  0  2.151268  0  0  -0.352399  -0.593843  0  2.170713  0
O  O45  1  0.10377082  0.79994652  0.26522020  1  0  -0.650348  0  1.925088  0  0  -0.610333  0  2.16192  0  0  -0.633205  0  2.15012  0  0  -0.352496  -0.594075  0  2.169565  0
O  O46  1  0.51339168  0.48572502  0.81754105  1  0  -0.549356  0  1.990888  0  0  -0.495358  0  2.20696  0  0  -0.520219  0  2.199168  0  0  -0.282917  -0.478177  0  2.211826  0
O  O47  1  0.48660524  0.51428002  0.18246314  1  0  -0.549299  0  1.990834  0  0  -0.495276  0  2.206873  0  0  -0.520139  0  2.199083  0  0  -0.282862  -0.478096  0  2.211737  0
O  O48  1  0.28383442  0.41751924  0.81687563  1  0  -0.68836  0  2.002013  0  0  -0.639773  0  2.250096  0  0  -0.66393  0  2.240406  0  0  -0.387368  -0.622657  0  2.256178  0
O  O49  1  0.71616854  0.58248328  0.18311651  1  0  -0.688365  0  2.001987  0  0  -0.639796  0  2.250103  0  0  -0.663953  0  2.240414  0  0  -0.387408  -0.622659  0  2.256154  0
O  O50  1  0.96034235  0.59456557  0.77261252  1  0  -0.933743  0  1.879339  0  0  -0.883254  0  2.079535  0  0  -0.902888  0  2.046792  0  0  -0.670633  -0.869031  0  2.102323  0
O  O51  1  0.03965029  0.40543017  0.22739225  1  0  -0.933777  0  1.879227  0  0  -0.883291  0  2.079436  0  0  -0.902925  0  2.046695  0  0  -0.670602  -0.86906  0  2.102225  0
O  O52  1  0.01192553  0.26383702  0.98613083  1  0  -0.842131  0  1.879457  0  0  -0.782504  0  2.064937  0  0  -0.801994  0  2.035848  0  0  -0.57656  -0.76857  0  2.084742  0
O  O53  1  0.98807925  0.73615768  0.01387063  1  0  -0.842009  0  1.879448  0  0  -0.782384  0  2.064966  0  0  -0.801873  0  2.035918  0  0  -0.576535  -0.768445  0  2.084766  0
