# generated using pymatgen
data_Al2H6C18(SO4)3
_symmetry_space_group_name_H-M   'P 1'
_cell_length_a   3.97482246
_cell_length_b   16.14730352
_cell_length_c   16.14763954
_cell_angle_alpha   119.99968815
_cell_angle_beta   90.00349507
_cell_angle_gamma   89.99819624
_symmetry_Int_Tables_number   1
_chemical_formula_structural   Al2H6C18(SO4)3
_chemical_formula_sum   'Al2 H6 C18 S3 O12'
_cell_volume   897.55027784
_cell_formula_units_Z   1
loop_
 _symmetry_equiv_pos_site_id
 _symmetry_equiv_pos_as_xyz
  1  'x, y, z'
loop_
 _atom_site_type_symbol
 _atom_site_label
 _atom_site_symmetry_multiplicity
 _atom_site_fract_x
 _atom_site_fract_y
 _atom_site_fract_z
 _atom_site_occupancy
 _atom_site_pbe_bader_charge
 _atom_site_pbe_bader_spin_density
 _atom_site_pbe_cm5_charge
 _atom_site_pbe_ddec_charge
 _atom_site_pbe_ddec_spin_density
 _atom_site_pbe_ddec_sum_bond_order
 _atom_site_pbe_magmom
Al  Al0  1  0.05386838  0.49999567  0.49999558  1  2.504422  0  0.426445  1.596718  0  2.564244  0
Al  Al1  1  0.94607969  0.16665912  0.83333723  1  2.504383  0  0.426309  1.59631  0  2.56484  0
H  H2  1  0.45294487  0.10201185  0.52967233  1  0.113609  0  0.115228  0.129453  0  0.977016  0
H  H3  1  0.54733369  0.19634073  0.43535550  1  0.113936  0  0.115207  0.129517  0  0.976668  0
H  H4  1  0.45275552  0.92765149  0.89797210  1  0.143535  0  0.115207  0.129524  0  0.976917  0
H  H5  1  0.54709242  0.73899523  0.80365781  1  0.118065  0  0.11519  0.129385  0  0.976702  0
H  H6  1  0.45294436  0.47032674  0.07233076  1  0.112032  0  0.115173  0.129303  0  0.97673  0
H  H7  1  0.54727028  0.56464654  0.26098145  1  0.15967  0  0.115242  0.12954  0  0.977008  0
C  C8  1  0.55142788  0.45521843  0.35655059  1  1.600131  0  0.275435  0.675003  0  4.082411  0
C  C9  1  0.55144980  0.40134071  0.54479909  1  1.607337  0  0.275559  0.675227  0  4.081553  0
C  C10  1  0.55145324  0.64345990  0.59866313  1  1.634796  0  0.275491  0.675135  0  4.081637  0
C  C11  1  0.44849509  0.21145991  0.73467742  1  1.606498  0  0.275257  0.674851  0  4.082293  0
C  C12  1  0.44857201  0.26532787  0.97678857  1  1.634735  0  0.275595  0.675299  0  4.081402  0
C  C13  1  0.44851914  0.02321125  0.78854398  1  1.599856  0  0.275357  0.67498  0  4.082463  0
C  C14  1  0.46226074  0.23966640  0.66056526  1  -0.253417  0  -0.015229  -0.115874  0  3.958175  0
C  C15  1  0.47307060  0.17930524  0.56264691  1  -0.000596  0  -0.095074  -0.112084  0  4.006013  0
C  C16  1  0.52707106  0.22931759  0.51266180  1  0.08179  0  -0.094785  -0.112135  0  4.005876  0
C  C17  1  0.53768899  0.32723588  0.57301856  1  -0.254305  0  -0.015327  -0.115937  0  3.958591  0
C  C18  1  0.46236694  0.92089754  0.76032054  1  -0.152712  0  -0.01535  -0.116142  0  3.958751  0
C  C19  1  0.47297361  0.88333169  0.82067799  1  -0.010848  0  -0.094774  -0.112013  0  4.006113  0
C  C20  1  0.52696628  0.78334258  0.77069569  1  -0.067028  0  -0.094996  -0.112033  0  4.005885  0
C  C21  1  0.53772181  0.74578316  0.67277086  1  -0.183822  0  -0.015236  -0.115883  0  3.958456  0
C  C22  1  0.46233532  0.33942954  0.07910228  1  -0.183393  0  -0.015194  -0.115956  0  3.958642  0
C  C23  1  0.47306866  0.43735405  0.11666594  1  0.054837  0  -0.095005  -0.111866  0  4.005917  0
C  C24  1  0.52707773  0.48735168  0.21665329  1  -0.143111  0  -0.094889  -0.112276  0  4.006081  0
C  C25  1  0.53769311  0.42699155  0.25422534  1  -0.152094  0  -0.015286  -0.115817  0  3.958287  0
S  S26  1  0.49992389  0.35749520  0.69084031  1  0.317908  0  0.105315  0.157396  0  2.829394  0
S  S27  1  0.50010309  0.83334591  0.64250196  1  0.279808  0  0.10541  0.157546  0  2.829648  0
S  S28  1  0.49999013  0.30916856  0.16666144  1  0.279139  0  0.105365  0.157445  0  2.829802  0
O  O29  1  0.79004648  0.59382731  0.60444199  1  -1.25301  0  -0.233557  -0.585833  0  2.341423  0
O  O30  1  0.79001970  0.51063177  0.40617056  1  -1.253902  0  -0.233639  -0.585812  0  2.341762  0
O  O31  1  0.79002501  0.39555221  0.48938357  1  -1.251477  0  -0.233679  -0.585973  0  2.341331  0
O  O32  1  0.32156539  0.61182272  0.53475537  1  -1.260846  0  -0.241765  -0.601724  0  2.344698  0
O  O33  1  0.32155509  0.46523936  0.57706013  1  -1.250069  0  -0.241653  -0.601665  0  2.344998  0
O  O34  1  0.32156203  0.42294272  0.38816930  1  -1.263461  0  -0.24164  -0.601581  0  2.345202  0
O  O35  1  0.20994861  0.07282411  0.84395448  1  -1.253472  0  -0.233516  -0.585609  0  2.341791  0
O  O36  1  0.20989363  0.15604749  0.72888643  1  -1.251602  0  -0.233408  -0.585492  0  2.341621  0
O  O37  1  0.20991329  0.27111170  0.92717085  1  -1.253066  0  -0.233669  -0.585915  0  2.341084  0
O  O38  1  0.67836987  0.05484738  0.75627425  1  -1.263711  0  -0.241713  -0.60171  0  2.345157  0
O  O39  1  0.67841648  0.20141468  0.94515515  1  -1.260995  0  -0.241756  -0.60167  0  2.344876  0
O  O40  1  0.67834516  0.24372287  0.79858738  1  -1.249551  0  -0.241645  -0.601632  0  2.345174  0
