# generated using pymatgen
data_CuH12C16(NO2)2
_symmetry_space_group_name_H-M   'P 1'
_cell_length_a   7.06801085
_cell_length_b   9.01632425
_cell_length_c   11.80620793
_cell_angle_alpha   90.00112621
_cell_angle_beta   89.99969865
_cell_angle_gamma   107.70778055
_symmetry_Int_Tables_number   1
_chemical_formula_structural   CuH12C16(NO2)2
_chemical_formula_sum   'Cu2 H24 C32 N4 O8'
_cell_volume   716.73223494
_cell_formula_units_Z   2
loop_
 _symmetry_equiv_pos_site_id
 _symmetry_equiv_pos_as_xyz
  1  'x, y, z'
loop_
 _atom_site_type_symbol
 _atom_site_label
 _atom_site_symmetry_multiplicity
 _atom_site_fract_x
 _atom_site_fract_y
 _atom_site_fract_z
 _atom_site_occupancy
 _atom_site_pbe_cm5_charge
 _atom_site_pbe_ddec_charge
 _atom_site_pbe_ddec_spin_density
 _atom_site_pbe_ddec_sum_bond_order
 _atom_site_pbe_magmom
Cu  Cu0  1  0.49999505  0.49999771  0.49999859  1  0.737301  0.744837  0.739919  2.172861  0.544
Cu  Cu1  1  0.50000011  0.00000287  0.99999743  1  0.737354  0.744847  -0.739927  2.173082  -0.544
H  H2  1  0.54756521  0.98345628  0.69921060  1  0.104817  0.128339  0.00112  1.026672  0.001
H  H3  1  0.45245787  0.51656103  0.19919931  1  0.104812  0.128321  -0.001121  1.026924  -0.001
H  H4  1  0.45244962  0.01654882  0.30078657  1  0.104774  0.1284  0.00112  1.026706  0.001
H  H5  1  0.54755152  0.48344861  0.80079786  1  0.104796  0.128299  -0.00112  1.026839  -0.001
H  H6  1  0.14206597  0.79650873  0.59998999  1  0.105748  0.109447  0.000612  1.005281  0.0
H  H7  1  0.85798836  0.70348150  0.10000228  1  0.105844  0.10957  -0.000611  1.005272  0.0
H  H8  1  0.85794047  0.20349276  0.40001819  1  0.105753  0.109455  0.000612  1.005222  0.0
H  H9  1  0.14202562  0.29652127  0.89999659  1  0.105768  0.109388  -0.000612  1.005245  0.0
H  H10  1  0.49717407  0.18470964  0.57267317  1  0.118836  0.09284  0.000859  1.029381  0.001
H  H11  1  0.50278805  0.31529212  0.07267925  1  0.118833  0.092802  -0.000859  1.029263  -0.001
H  H12  1  0.50282013  0.81528932  0.42731638  1  0.118871  0.092845  0.000859  1.029469  0.001
H  H13  1  0.49720952  0.68471615  0.92731539  1  0.11887  0.092815  -0.000859  1.029349  -0.001
H  H14  1  0.09437444  0.43422098  0.58755405  1  0.121175  0.10196  0.000742  1.001136  0.001
H  H15  1  0.90555611  0.06576453  0.08755221  1  0.121116  0.1018  -0.00074  1.001395  -0.001
H  H16  1  0.90562177  0.56577570  0.41246514  1  0.121229  0.101937  0.000742  1.00111  0.001
H  H17  1  0.09442786  0.93422962  0.91244412  1  0.121153  0.101816  -0.000741  1.001366  -0.001
H  H18  1  0.82450087  0.20139435  0.65750307  1  0.109639  0.12651  0.000551  1.024035  0.001
H  H19  1  0.17546610  0.29857335  0.15750501  1  0.109711  0.126602  -0.000551  1.023868  -0.001
H  H20  1  0.17550061  0.79860127  0.34251358  1  0.109657  0.126432  0.000551  1.024149  0.001
H  H21  1  0.82453001  0.70141523  0.84248878  1  0.109703  0.126575  -0.000551  1.023928  -0.001
H  H22  1  0.89544278  0.94484162  0.67546344  1  0.108631  0.12423  6.6e-05  1.023692  0.0
H  H23  1  0.10454224  0.55513605  0.17547823  1  0.108641  0.124288  -6.6e-05  1.023651  0.0
H  H24  1  0.10455359  0.05515159  0.32454221  1  0.108647  0.124257  6.6e-05  1.023646  0.0
H  H25  1  0.89546326  0.44485501  0.82451556  1  0.108574  0.124251  -6.6e-05  1.023637  0.0
C  C26  1  0.48841809  0.74130894  0.64257056  1  0.189426  0.593169  0.001422  4.242224  -0.002
C  C27  1  0.51158572  0.75868414  0.14257267  1  0.18944  0.593303  -0.001422  4.242273  0.002
C  C28  1  0.51157612  0.25869001  0.35742661  1  0.189427  0.593152  0.00142  4.242168  -0.002
C  C29  1  0.48841612  0.24132420  0.85742959  1  0.189356  0.59316  -0.001423  4.242455  0.002
C  C30  1  0.43404607  0.88659767  0.66008922  1  -0.099445  -0.23563  0.00805  3.904412  0.008
C  C31  1  0.56597090  0.61342862  0.16008135  1  -0.09943  -0.235652  -0.008043  3.904954  -0.008
C  C32  1  0.56596337  0.11340040  0.33990542  1  -0.099459  -0.235801  0.008051  3.904452  0.008
C  C33  1  0.43404191  0.38657876  0.83991667  1  -0.099454  -0.235699  -0.008041  3.905068  -0.008
C  C34  1  0.25652971  0.90024794  0.62996199  1  -0.075716  -0.068967  -0.000474  3.962733  -0.001
C  C35  1  0.74348966  0.59976813  0.12996146  1  -0.075797  -0.069079  0.000474  3.962657  0.001
C  C36  1  0.74348100  0.09975363  0.37003942  1  -0.075654  -0.068753  -0.000474  3.962584  -0.001
C  C37  1  0.25652500  0.40024044  0.87003487  1  -0.075674  -0.068717  0.000473  3.962517  0.001
C  C38  1  0.20491580  0.04542812  0.62858047  1  -0.000699  0.071228  0.004221  3.996981  0.005
C  C39  1  0.79508245  0.45456229  0.12857669  1  -0.000822  0.071085  -0.00422  3.997239  -0.005
C  C40  1  0.79508183  0.95456859  0.37142009  1  -0.000778  0.071002  0.004221  3.997383  0.005
C  C41  1  0.20492399  0.54543919  0.87141879  1  -0.000854  0.070949  -0.00422  3.997383  -0.005
C  C42  1  0.34674787  0.18341711  0.59343773  1  0.052475  0.054148  8.6e-05  3.878582  -0.001
C  C43  1  0.65322660  0.31658442  0.09344369  1  0.052536  0.054162  -8.6e-05  3.878685  0.001
C  C44  1  0.65323989  0.81658752  0.40655860  1  0.052442  0.054092  8.7e-05  3.87886  -0.001
C  C45  1  0.34676913  0.68342266  0.90655094  1  0.052489  0.054151  -8.6e-05  3.878807  0.001
C  C46  1  0.11911106  0.32188941  0.59986734  1  0.047061  0.08374  -0.000119  3.923157  -0.001
C  C47  1  0.88085566  0.17809484  0.09987003  1  0.04728  0.084346  0.000119  3.922743  0.001
C  C48  1  0.88088113  0.67811182  0.40014593  1  0.04701  0.083723  -0.000119  3.922729  -0.001
C  C49  1  0.11914525  0.82190308  0.90012969  1  0.047193  0.08416  0.00012  3.923132  0.001
C  C50  1  0.97047933  0.19130070  0.63766086  1  -0.077727  -0.11188  0.004105  3.95503  0.005
C  C51  1  0.02947840  0.30867195  0.13765709  1  -0.077982  -0.112372  -0.0041  3.955298  -0.005
C  C52  1  0.02952241  0.80869955  0.36235156  1  -0.077793  -0.111924  0.004104  3.954967  0.005
C  C53  1  0.97051528  0.69131775  0.86233755  1  -0.077945  -0.112233  -0.004103  3.955373  -0.005
C  C54  1  0.01163360  0.05057011  0.65003454  1  -0.060074  -0.071074  -0.002754  3.865335  -0.003
C  C55  1  0.98834113  0.44941483  0.15003987  1  -0.059962  -0.070919  0.002754  3.86531  0.003
C  C56  1  0.98835960  0.94942999  0.34997195  1  -0.060029  -0.070915  -0.002753  3.865358  -0.003
C  C57  1  0.01165365  0.55058183  0.84995391  1  -0.059906  -0.0709  0.002753  3.865497  0.003
N  N58  1  0.30383226  0.31684325  0.57669807  1  -0.346323  -0.22866  0.061255  3.647658  0.076
N  N59  1  0.69611735  0.18315149  0.07670096  1  -0.346389  -0.228723  -0.061246  3.647062  -0.076
N  N60  1  0.69615265  0.68316133  0.42330164  1  -0.346235  -0.228416  0.061255  3.647201  0.076
N  N61  1  0.30386714  0.81685192  0.92329282  1  -0.346318  -0.228602  -0.061244  3.647478  -0.076
O  O62  1  0.37324005  0.63989031  0.57382152  1  -0.340747  -0.566992  0.076648  2.361603  0.102
O  O63  1  0.62676193  0.86012240  0.07381947  1  -0.340879  -0.567133  -0.076671  2.361221  -0.102
O  O64  1  0.62675557  0.36010867  0.42618497  1  -0.340774  -0.567028  0.076651  2.361499  0.102
O  O65  1  0.37323638  0.13988010  0.92617008  1  -0.340735  -0.566979  -0.076666  2.361395  -0.102
O  O66  1  0.64288228  0.72641673  0.68699366  1  -0.325712  -0.574837  0.001557  2.150863  0.003
O  O67  1  0.35712696  0.77358142  0.18698758  1  -0.325673  -0.574883  -0.001555  2.151096  -0.003
O  O68  1  0.35711451  0.27357764  0.31299589  1  -0.32569  -0.574805  0.001556  2.150942  0.003
O  O69  1  0.64289097  0.22642837  0.81302315  1  -0.325712  -0.574857  -0.001557  2.15086  -0.003
