# generated using pymatgen
data_Bi2H2C10O9
_symmetry_space_group_name_H-M   'P 1'
_cell_length_a   7.96821411
_cell_length_b   8.44176853
_cell_length_c   9.90957205
_cell_angle_alpha   109.14985815
_cell_angle_beta   90.73523280
_cell_angle_gamma   116.20374942
_symmetry_Int_Tables_number   1
_chemical_formula_structural   Bi2H2C10O9
_chemical_formula_sum   'Bi4 H4 C20 O18'
_cell_volume   555.11306991
_cell_formula_units_Z   2
loop_
 _symmetry_equiv_pos_site_id
 _symmetry_equiv_pos_as_xyz
  1  'x, y, z'
loop_
 _atom_site_type_symbol
 _atom_site_label
 _atom_site_symmetry_multiplicity
 _atom_site_fract_x
 _atom_site_fract_y
 _atom_site_fract_z
 _atom_site_occupancy
 _atom_site_hle17_bader_spin_density
 _atom_site_hle17_ddec_charge
 _atom_site_hle17_ddec_spin_density
 _atom_site_hle17_ddec_sum_bond_order
 _atom_site_hle17_magmom
 _atom_site_hse06_10hf_bader_spin_density
 _atom_site_hse06_10hf_ddec_charge
 _atom_site_hse06_10hf_ddec_spin_density
 _atom_site_hse06_10hf_ddec_sum_bond_order
 _atom_site_hse06_10hf_magmom
 _atom_site_hse06_bader_spin_density
 _atom_site_hse06_ddec_charge
 _atom_site_hse06_ddec_spin_density
 _atom_site_hse06_ddec_sum_bond_order
 _atom_site_hse06_magmom
 _atom_site_pbe_bader_spin_density
 _atom_site_pbe_cm5_charge
 _atom_site_pbe_ddec_charge
 _atom_site_pbe_ddec_spin_density
 _atom_site_pbe_ddec_sum_bond_order
 _atom_site_pbe_magmom
Bi  Bi0  1  0.13367609  0.14431041  0.90485685  1  0  1.776158  0  2.255249  0  0  1.574024  0  2.742169  0  0  1.649199  0  2.684871  0  0  0.863801  1.520856  0  2.781599  0
Bi  Bi1  1  0.86632268  0.85569112  0.09514350  1  0  1.7762  0  2.255201  0  0  1.574074  0  2.742115  0  0  1.649249  0  2.684816  0  0  0.863807  1.520905  0  2.781544  0
Bi  Bi2  1  0.74635677  0.24868604  0.02757157  1  0  1.809761  0  2.115633  0  0  1.606047  0  2.583544  0  0  1.685135  0  2.525738  0  0  0.899766  1.54903  0  2.623755  0
Bi  Bi3  1  0.25364325  0.75131548  0.97243081  1  0  1.809788  0  2.115566  0  0  1.606088  0  2.583473  0  0  1.685169  0  2.525665  0  0  0.899784  1.549076  0  2.62369  0
H  H4  1  0.75436069  0.71175966  0.43370953  1  0  0.124249  0  0.926414  0  0  0.133079  0  0.984573  0  0  0.137417  0  0.981294  0  0  0.115437  0.129965  0  0.987151  0
H  H5  1  0.24563913  0.28823615  0.56628722  1  0  0.124245  0  0.926441  0  0  0.1331  0  0.98458  0  0  0.13744  0  0.981294  0  0  0.115438  0.129986  0  0.987155  0
H  H6  1  0.13502186  0.70395242  0.48378302  1  0  0.128131  0  0.917866  0  0  0.136545  0  0.977399  0  0  0.140867  0  0.974275  0  0  0.117622  0.133397  0  0.979965  0
H  H7  1  0.86497885  0.29605052  0.51621674  1  0  0.128145  0  0.917838  0  0  0.136557  0  0.977373  0  0  0.140878  0  0.97425  0  0  0.117618  0.133408  0  0.979939  0
C  C8  1  0.42362830  0.82237698  0.58896819  1  0  -0.047946  0  3.692993  0  0  -0.035713  0  3.935491  0  0  -0.040378  0  3.954986  0  0  0.000121  -0.032244  0  3.922126  0
C  C9  1  0.57637549  0.17762452  0.41103019  1  0  -0.04801  0  3.693076  0  0  -0.035795  0  3.935621  0  0  -0.040465  0  3.955121  0  0  4.9e-05  -0.032332  0  3.922265  0
C  C10  1  0.60060627  0.82649028  0.57496907  1  0  -0.040004  0  3.686656  0  0  -0.030487  0  3.928324  0  0  -0.035708  0  3.947883  0  0  -0.001016  -0.026532  0  3.91474  0
C  C11  1  0.39939560  0.17350981  0.42502688  1  0  -0.039989  0  3.686599  0  0  -0.030446  0  3.928267  0  0  -0.035675  0  3.947836  0  0  -0.000967  -0.02649  0  3.914683  0
C  C12  1  0.77532824  0.96094472  0.68961671  1  0  0.673676  0  3.853536  0  0  0.619583  0  4.148263  0  0  0.656433  0  4.139078  0  0  0.223348  0.59452  0  4.153472  0
C  C13  1  0.22467420  0.03905394  0.31038086  1  0  0.673646  0  3.853616  0  0  0.619542  0  4.148349  0  0  0.656401  0  4.13916  0  0  0.223344  0.59448  0  4.153555  0
C  C14  1  0.61813869  0.71032645  0.44476573  1  0  -0.048025  0  3.664103  0  0  -0.085881  0  3.921898  0  0  -0.084824  0  3.939182  0  0  -0.067125  -0.087257  0  3.910679  0
C  C15  1  0.38186134  0.28967507  0.55523362  1  0  -0.048084  0  3.664056  0  0  -0.085991  0  3.921873  0  0  -0.084929  0  3.939157  0  0  -0.067154  -0.087363  0  3.910652  0
C  C16  1  0.27144438  0.70597131  0.47189825  1  0  -0.04608  0  3.63916  0  0  -0.085837  0  3.897853  0  0  -0.085301  0  3.914532  0  0  -0.063741  -0.087024  0  3.887429  0
C  C17  1  0.72855373  0.29402879  0.52810068  1  0  -0.046075  0  3.639127  0  0  -0.085824  0  3.897834  0  0  -0.085282  0  3.914509  0  0  -0.063714  -0.087005  0  3.887404  0
C  C18  1  0.38762697  0.93382331  0.72612153  1  0  0.695159  0  3.835521  0  0  0.631607  0  4.143812  0  0  0.668461  0  4.132924  0  0  0.236376  0.606087  0  4.150988  0
C  C19  1  0.61237285  0.06617251  0.27387825  1  0  0.695279  0  3.835462  0  0  0.631711  0  4.14376  0  0  0.668565  0  4.132873  0  0  0.236439  0.606192  0  4.150933  0
C  C20  1  0.29048495  0.59337047  0.33949464  1  0  -0.034474  0  3.646205  0  0  -0.024412  0  3.891802  0  0  -0.027967  0  3.908776  0  0  0.003219  -0.021907  0  3.880302  0
C  C21  1  0.70951508  0.40663105  0.66050572  1  0  -0.034539  0  3.646138  0  0  -0.024513  0  3.891757  0  0  -0.028068  0  3.908728  0  0  0.003196  -0.022007  0  3.880257  0
C  C22  1  0.11898722  0.48948531  0.22084069  1  0  0.692374  0  3.809104  0  0  0.630566  0  4.113412  0  0  0.668974  0  4.101976  0  0  0.229542  0.604369  0  4.120213  0
C  C23  1  0.88101213  0.51051479  0.77916027  1  0  0.692495  0  3.809114  0  0  0.630734  0  4.113348  0  0  0.669142  0  4.101906  0  0  0.229601  0.604537  0  4.120152  0
C  C24  1  0.46734652  0.59426773  0.32579238  1  0  -0.051111  0  3.658178  0  0  -0.039254  0  3.90124  0  0  -0.044391  0  3.92069  0  0  -0.002322  -0.035539  0  3.887822  0
C  C25  1  0.53265227  0.40573380  0.67420595  1  0  -0.050975  0  3.657987  0  0  -0.039099  0  3.90104  0  0  -0.044236  0  3.920488  0  0  -0.002285  -0.035387  0  3.887623  0
C  C26  1  0.50976965  0.47319958  0.19585922  1  0  0.674586  0  3.88541  0  0  0.61665  0  4.192142  0  0  0.653215  0  4.182797  0  0  0.2152  0.591489  0  4.197948  0
C  C27  1  0.49022642  0.52679626  0.80413951  1  0  0.674652  0  3.885213  0  0  0.616734  0  4.191913  0  0  0.653299  0  4.182563  0  0  0.215255  0.591575  0  4.197723  0
O  O28  1  0.89772115  0.90447621  0.69976047  1  0  -0.587138  0  1.974742  0  0  -0.525759  0  2.207625  0  0  -0.555059  0  2.199578  0  0  -0.275184  -0.505111  0  2.212383  0
O  O29  1  0.10227820  0.09552389  0.30023847  1  0  -0.58713  0  1.974744  0  0  -0.525733  0  2.207615  0  0  -0.555041  0  2.199566  0  0  -0.275189  -0.505085  0  2.212371  0
O  O30  1  0.79986116  0.12683628  0.76705174  1  0  -0.694687  0  2.036188  0  0  -0.62819  0  2.275829  0  0  -0.66076  0  2.269708  0  0  -0.304411  -0.605148  0  2.279139  0
O  O31  1  0.20013626  0.87316241  0.23294881  1  0  -0.694661  0  2.036174  0  0  -0.628179  0  2.275851  0  0  -0.660728  0  2.269671  0  0  -0.304418  -0.605137  0  2.279161  0
O  O32  1  0.29788953  0.02105533  0.71819193  1  0  -0.586887  0  2.043765  0  0  -0.52569  0  2.290481  0  0  -0.555052  0  2.284135  0  0  -0.256947  -0.505389  0  2.2943  0
O  O33  1  0.70211561  0.97894902  0.28181130  1  0  -0.586889  0  2.043708  0  0  -0.525702  0  2.290445  0  0  -0.55506  0  2.284092  0  0  -0.25694  -0.505401  0  2.294262  0
O  O34  1  0.44950570  0.93102188  0.84778962  1  0  -0.7252  0  2.128965  0  0  -0.643631  0  2.388606  0  0  -0.676392  0  2.377648  0  0  -0.297701  -0.621062  0  2.395964  0
O  O35  1  0.55049345  0.06897252  0.15220875  1  0  -0.725302  0  2.129015  0  0  -0.643687  0  2.388623  0  0  -0.67645  0  2.37766  0  0  -0.297731  -0.621128  0  2.396002  0
O  O36  1  0.13457580  0.47542779  0.08900895  1  0  -0.740764  0  2.101671  0  0  -0.663278  0  2.346272  0  0  -0.698293  0  2.339767  0  0  -0.29425  -0.638339  0  2.349626  0
O  O37  1  0.86542162  0.52457089  0.91099160  1  0  -0.740821  0  2.10163  0  0  -0.663357  0  2.346228  0  0  -0.698372  0  2.339725  0  0  -0.294269  -0.638416  0  2.349581  0
O  O38  1  0.95570828  0.42081249  0.25626691  1  0  -0.575777  0  1.952984  0  0  -0.510104  0  2.184427  0  0  -0.540341  0  2.17663  0  0  -0.265999  -0.488514  0  2.188875  0
O  O39  1  0.04428982  0.57918761  0.74373505  1  0  -0.575851  0  1.953095  0  0  -0.510196  0  2.184529  0  0  -0.540427  0  2.176722  0  0  -0.266043  -0.488606  0  2.18898  0
O  O40  1  0.10887949  0.91632827  0.97265410  1  0  -1.018871  0  1.761167  0  0  -0.895928  0  2.024538  0  0  -0.939474  0  2.007509  0  0  -0.47075  -0.865225  0  2.035286  0
O  O41  1  0.89112768  0.08368035  0.02735135  1  0  -1.018868  0  1.761172  0  0  -0.895911  0  2.024526  0  0  -0.939463  0  2.007505  0  0  -0.47077  -0.865198  0  2.03525  0
O  O42  1  0.68243072  0.53672946  0.17764952  1  0  -0.702016  0  2.041264  0  0  -0.636101  0  2.285148  0  0  -0.668343  0  2.278651  0  0  -0.301235  -0.613142  0  2.289003  0
O  O43  1  0.31756978  0.46326778  0.82235066  1  0  -0.70199  0  2.041309  0  0  -0.636075  0  2.285164  0  0  -0.668317  0  2.278664  0  0  -0.301244  -0.613119  0  2.289022  0
O  O44  1  0.37906820  0.30908697  0.11625296  1  0  -0.675113  0  2.107786  0  0  -0.617856  0  2.376548  0  0  -0.647443  0  2.365323  0  0  -0.303742  -0.597303  0  2.384022  0
O  O45  1  0.62093173  0.69091170  0.88374661  1  0  -0.675269  0  2.107652  0  0  -0.618015  0  2.376399  0  0  -0.647602  0  2.365168  0  0  -0.303818  -0.597462  0  2.383876  0
