# generated using pymatgen
data_CoH8C10(N2O3)2
_symmetry_space_group_name_H-M   'P 1'
_cell_length_a   6.16895630
_cell_length_b   6.18460240
_cell_length_c   9.53549658
_cell_angle_alpha   79.39007003
_cell_angle_beta   79.32252349
_cell_angle_gamma   64.62004454
_symmetry_Int_Tables_number   1
_chemical_formula_structural   CoH8C10(N2O3)2
_chemical_formula_sum   'Co1 H8 C10 N4 O6'
_cell_volume   320.74591346
_cell_formula_units_Z   1
loop_
 _symmetry_equiv_pos_site_id
 _symmetry_equiv_pos_as_xyz
  1  'x, y, z'
loop_
 _atom_site_type_symbol
 _atom_site_label
 _atom_site_symmetry_multiplicity
 _atom_site_fract_x
 _atom_site_fract_y
 _atom_site_fract_z
 _atom_site_occupancy
 _atom_site_pbe_cm5_charge
 _atom_site_pbe_ddec_charge
 _atom_site_pbe_ddec_spin_density
 _atom_site_pbe_ddec_sum_bond_order
 _atom_site_pbe_magmom
Co  Co0  1  0.99999931  0.00000458  0.00000186  1  0.712415  1.108202  2.838297  2.461289  2.6
H  H1  1  0.47292862  0.85815018  0.98202729  1  0.320203  0.40274  0.000925  0.888393  0.001
H  H2  1  0.14436974  0.52787459  0.01868200  1  0.32072  0.403622  0.000333  0.885852  0.0
H  H3  1  0.52706268  0.14183002  0.01796646  1  0.320164  0.402649  0.000926  0.888526  0.001
H  H4  1  0.85565116  0.47212271  0.98131984  1  0.320737  0.403519  0.000333  0.885834  0.0
H  H5  1  0.39961026  0.75859045  0.14294361  1  0.298573  0.393218  0.000392  0.943446  0.001
H  H6  1  0.23768494  0.60234319  0.85654738  1  0.298561  0.393446  0.000792  0.943621  0.002
H  H7  1  0.60039785  0.24141430  0.85705782  1  0.298614  0.393268  0.000393  0.943348  0.001
H  H8  1  0.76231441  0.39766713  0.14345234  1  0.298596  0.393483  0.000793  0.943563  0.002
C  C9  1  0.18606285  0.18642157  0.69150297  1  0.212915  0.334234  -0.021765  3.998927  -0.01
C  C10  1  0.81393096  0.81358173  0.30850243  1  0.212945  0.334314  -0.021753  3.999023  -0.01
C  C11  1  0.26042503  0.26067518  0.55006015  1  -0.02277  -0.094467  0.008109  4.215061  0.013
C  C12  1  0.73956496  0.73932111  0.44993080  1  -0.022791  -0.094534  0.008108  4.214924  0.013
C  C13  1  0.49679287  0.49788493  0.60848778  1  0.136281  0.334241  0.002175  4.087885  0.003
C  C14  1  0.50320406  0.50211477  0.39149985  1  0.136322  0.334358  0.002175  4.087565  0.003
C  C15  1  0.39736629  0.39747648  0.52159113  1  0.002343  -0.108728  -0.010527  3.931306  -0.007
C  C16  1  0.60262967  0.60252145  0.47839787  1  0.002409  -0.108615  -0.010527  3.931634  -0.007
C  C17  1  0.18963974  0.19028714  0.43901979  1  0.168996  0.234415  -0.002744  4.106142  -0.002
C  C18  1  0.81035852  0.80970891  0.56099224  1  0.169155  0.234518  -0.002741  4.106074  -0.002
N  N19  1  0.12144763  0.12210105  0.80857888  1  -0.35528  -0.452917  0.027618  3.250829  0.045
N  N20  1  0.87854617  0.87790225  0.19143176  1  -0.3553  -0.452974  0.027616  3.250646  0.045
N  N21  1  0.12843597  0.12976427  0.34941031  1  -0.317506  -0.370579  0.0034  2.812976  0.005
N  N22  1  0.87155862  0.87021582  0.65059564  1  -0.31758  -0.370605  0.003395  2.813558  0.005
O  O23  1  0.34540647  0.89187092  0.06314480  1  -0.560296  -0.773186  0.034713  2.20245  0.054
O  O24  1  0.10683126  0.65558347  0.93809356  1  -0.560456  -0.774052  0.035231  2.20486  0.055
O  O25  1  0.65460480  0.10814267  0.93685627  1  -0.560283  -0.773119  0.034715  2.202584  0.054
O  O26  1  0.89318016  0.34442118  0.06191589  1  -0.560502  -0.773969  0.035232  2.204763  0.055
O  O27  1  0.49446833  0.49698530  0.74093151  1  -0.298568  -0.476202  0.002195  2.277453  0.004
O  O28  1  0.50552263  0.50301275  0.25905807  1  -0.298618  -0.47628  0.002195  2.277394  0.004
