# generated using pymatgen
data_Zn6H29C41S2NO30
_symmetry_space_group_name_H-M   'P 1'
_cell_length_a   18.59364556
_cell_length_b   18.70221977
_cell_length_c   18.91571863
_cell_angle_alpha   109.23978506
_cell_angle_beta   109.24510728
_cell_angle_gamma   109.45481472
_symmetry_Int_Tables_number   1
_chemical_formula_structural   Zn6H29C41S2NO30
_chemical_formula_sum   'Zn6 H29 C41 S2 N1 O30'
_cell_volume   5092.97674191
_cell_formula_units_Z   1
loop_
 _symmetry_equiv_pos_site_id
 _symmetry_equiv_pos_as_xyz
  1  'x, y, z'
loop_
 _atom_site_type_symbol
 _atom_site_label
 _atom_site_symmetry_multiplicity
 _atom_site_fract_x
 _atom_site_fract_y
 _atom_site_fract_z
 _atom_site_occupancy
 _atom_site_pbe_bader_charge
 _atom_site_pbe_bader_spin_density
 _atom_site_pbe_cm5_charge
 _atom_site_pbe_ddec_charge
 _atom_site_pbe_ddec_spin_density
 _atom_site_pbe_ddec_sum_bond_order
 _atom_site_pbe_magmom
Zn  Zn0  1  0.00574466  0.43667504  0.93550037  1  1.298764  0  0.713003  0.945442  0  2.154949  0
Zn  Zn1  1  0.99507808  0.55435592  0.05338604  1  1.302954  0  0.70729  0.934938  0  2.196076  0
Zn  Zn2  1  0.56470152  0.01248183  0.06133442  1  1.301424  0  0.710993  0.942544  0  2.169229  0
Zn  Zn3  1  0.43903118  0.00414913  0.93168987  1  1.302185  0  0.713598  0.944108  0  2.160401  0
Zn  Zn4  1  0.42460728  0.43573327  0.49656096  1  1.305775  0  0.727254  0.959946  0  2.105026  0
Zn  Zn5  1  0.55574753  0.56264871  0.50161767  1  1.318659  0  0.728745  0.962973  0  2.14576  0
H  H6  1  0.75590089  0.30204867  0.11385991  1  0.063484  0  0.101092  0.086001  0  0.989287  0
H  H7  1  0.77688240  0.54875682  0.85357389  1  0.097808  0  0.114734  0.133518  0  0.977531  0
H  H8  1  0.24934393  0.84773895  0.97269120  1  0.108025  0  0.116297  0.124869  0  0.972165  0
H  H9  1  0.37530351  0.80082405  0.07493869  1  0.08938  0  0.115393  0.137903  0  0.974685  0
H  H10  1  0.21419864  0.64137738  0.93485293  1  0.071743  0  0.102308  0.147025  0  1.013386  0
H  H11  1  0.28185282  0.49564395  0.29251419  1  0.119435  0  0.123419  0.145259  0  0.965324  0
H  H12  1  0.23724587  0.66979292  0.31444508  1  0.120195  0  0.115298  0.124304  0  0.987052  0
H  H13  1  0.24358984  0.52656361  0.18027009  1  0.096514  0  0.114885  0.133068  0  0.97732  0
H  H14  1  0.58009623  0.37466005  0.32962082  1  0.08677  0  0.1143  0.115783  0  0.968259  0
H  H15  1  0.73154752  0.33395703  0.97287302  1  0.053719  0  0.101935  0.090685  0  0.986774  0
H  H16  1  0.39755413  0.22889133  0.26922423  1  0.121764  0  0.112207  0.131799  0  0.980872  0
H  H17  1  0.58833648  0.24522984  0.24072096  1  0.085534  0  0.112808  0.11293  0  0.971246  0
H  H18  1  0.40112833  0.19171923  0.11339352  1  0.094716  0  0.111765  0.132975  0  0.982681  0
H  H19  1  0.31944590  0.59805476  0.61852523  1  0.103784  0  0.115075  0.112146  0  0.969561  0
H  H20  1  0.51893563  0.72009159  0.70910908  1  0.10818  0  0.115247  0.134688  0  0.975982  0
H  H21  1  0.32974613  0.74559711  0.69628715  1  0.085615  0  0.115843  0.114713  0  0.968941  0
H  H22  1  0.50443530  0.77929851  0.82986768  1  0.080932  0  0.111191  0.128666  0  0.986079  0
H  H23  1  0.63214958  0.15017384  0.85857821  1  0.0706  0  0.101905  0.092947  0  0.986858  0
H  H24  1  0.78924664  0.15088962  0.86992980  1  0.088455  0  0.100643  0.089793  0  0.990747  0
H  H25  1  0.81596859  0.12239973  0.01326438  1  0.062751  0  0.10046  0.087394  0  0.991103  0
H  H26  1  0.91369229  0.30604829  0.12532461  1  0.087252  0  0.100695  0.086299  0  0.990255  0
H  H27  1  0.75377240  0.57150824  0.72247936  1  0.131874  0  0.123647  0.146599  0  0.963594  0
H  H28  1  0.78027140  0.39265953  0.73396141  1  0.127871  0  0.112973  0.122848  0  0.997032  0
H  H29  1  0.10331362  0.72438162  0.03621949  1  0.495742  0  0.305875  0.26958  0  0.988432  0
H  H30  1  0.14029660  0.86970358  0.11863950  1  0.041575  0  0.113103  0.120029  0  0.971967  0
H  H31  1  0.14069205  0.87839216  0.02781413  1  0.02484  0  0.100688  0.101437  0  0.981164  0
H  H32  1  0.24020202  0.90809975  0.11599533  1  0.067736  0  0.105378  0.110287  0  0.991009  0
H  H33  1  0.39459677  0.82431672  0.40492090  1  0.630203  0  0.356723  0.410138  0  0.826562  0
H  H34  1  0.66386141  0.25692546  0.55802022  1  0.646172  0  0.356241  0.404724  0  0.835172  0
C  C35  1  0.86875904  0.50359460  0.89995161  1  1.544466  0  0.211009  0.639233  0  4.151834  0
C  C36  1  0.79731513  0.16942812  0.00345233  1  -0.009882  0  -0.072749  -0.064765  0  3.632553  0
C  C37  1  0.85041872  0.27028283  0.06620983  1  -0.047039  0  -0.069554  -0.064153  0  3.626121  0
C  C38  1  0.83481971  0.28551859  0.98614280  1  0.010621  0  -0.007896  -0.01133  0  3.612911  0
C  C39  1  0.69227142  0.43719106  0.67841299  1  -0.21767  0  0.001182  -0.037557  0  3.93335  0
C  C40  1  0.69503628  0.50853544  0.67396879  1  0.07165  0  -0.065463  -0.202289  0  3.820911  0
C  C41  1  0.75985852  0.44149408  0.74900534  1  -0.071843  0  -0.0715  -0.04759  0  3.978231  0
C  C42  1  0.79749901  0.50130018  0.83235017  1  0.022707  0  -0.080046  -0.20384  0  3.851312  0
C  C43  1  0.26703342  0.81091674  0.00303884  1  -0.10443  0  -0.061057  -0.087024  0  3.931594  0
C  C44  1  0.35150506  0.83142065  0.03983402  1  0.040134  0  -0.085979  -0.218016  0  3.888651  0
C  C45  1  0.19719387  0.74479387  0.00367049  1  0.508067  0  0.120564  0.283961  0  4.076279  0
C  C46  1  0.90084351  0.35542557  0.98476647  1  1.52426  0  0.221456  0.604429  0  4.138383  0
C  C47  1  0.17810358  0.65861407  0.96593808  1  -0.040611  0  -0.153228  -0.456316  0  3.936904  0
C  C48  1  0.33743832  0.63070832  0.35070761  1  -0.211069  0  -0.001583  -0.043235  0  3.936838  0
C  C49  1  0.34088388  0.55768650  0.34269268  1  0.069823  0  -0.064515  -0.194546  0  3.816862  0
C  C50  1  0.26060579  0.62608338  0.29001344  1  0.040674  0  -0.072582  -0.060052  0  3.987074  0
C  C51  1  0.21822820  0.56765405  0.20560862  1  -0.104083  0  -0.082805  -0.203006  0  3.87967  0
C  C52  1  0.47324761  0.12678555  0.07871361  1  1.531432  0  0.211618  0.642783  0  4.152234  0
C  C53  1  0.64092921  0.10888485  0.00369428  1  1.514491  0  0.219829  0.607836  0  4.140984  0
C  C54  1  0.46050149  0.87260527  0.86092641  1  1.530568  0  0.208437  0.638284  0  4.159476  0
C  C55  1  0.41668813  0.90046654  0.03657401  1  1.540847  0  0.209694  0.638311  0  4.1534  0
C  C56  1  0.46055877  0.58728783  0.61050308  1  1.536337  0  0.213735  0.642264  0  4.151586  0
C  C57  1  0.13540155  0.55077055  0.13962902  1  1.555707  0  0.208712  0.637734  0  4.158358  0
C  C58  1  0.62678829  0.51144526  0.60830413  1  1.571606  0  0.216936  0.644526  0  4.155711  0
C  C59  1  0.45960180  0.36241042  0.37503482  1  1.516752  0  0.216129  0.652134  0  4.137686  0
C  C60  1  0.40875984  0.54649541  0.39880279  1  1.570982  0  0.215681  0.640911  0  4.166181  0
C  C61  1  0.52203588  0.30965707  0.28714113  1  -0.025107  0  -0.062082  -0.010867  0  3.962121  0
C  C62  1  0.45479772  0.29367282  0.30357319  1  -0.044338  0  -0.087631  -0.225697  0  3.869701  0
C  C63  1  0.52632237  0.24600643  0.22189692  1  -0.095899  0  -0.064258  -0.015669  0  3.978147  0
C  C64  1  0.46211231  0.19027481  0.13943750  1  0.021786  0  -0.091625  -0.238005  0  3.887699  0
C  C65  1  0.38266122  0.65722192  0.66594359  1  -0.048196  0  -0.063668  -0.021518  0  3.959215  0
C  C66  1  0.45668492  0.65901580  0.66880860  1  -0.027152  0  -0.081968  -0.210216  0  3.876444  0
C  C67  1  0.38467206  0.73444675  0.72089392  1  -0.02854  0  -0.060556  -0.014329  0  3.961521  0
C  C68  1  0.10936588  0.58968753  0.96151547  1  1.387648  0  0.188523  0.646874  0  4.166499  0
C  C69  1  0.45193906  0.79205353  0.80165509  1  -0.021237  0  -0.088845  -0.227209  0  3.895602  0
C  C70  1  0.74850176  0.28545507  0.98094792  1  -0.012992  0  -0.071577  -0.064177  0  3.626881  0
C  C71  1  0.76445877  0.27014332  0.05975535  1  -0.018079  0  -0.067991  -0.058191  0  3.623784  0
C  C72  1  0.70998635  0.16804306  0.99560218  1  0.021196  0  -0.007018  -0.028694  0  3.64463  0
C  C73  1  0.69518272  0.18471594  0.91762697  1  -0.030614  0  -0.075644  -0.067213  0  3.634436  0
C  C74  1  0.78166212  0.18469048  0.92406869  1  -0.048274  0  -0.075436  -0.072435  0  3.627528  0
C  C75  1  0.16941777  0.86164028  0.07674959  1  0.329084  0  -0.126759  -0.214289  0  3.989092  0
S  S76  1  0.42732124  0.73621276  0.43716816  1  3.048282  0  0.540941  1.150928  0  5.976202  0
S  S77  1  0.60260060  0.32938370  0.59410007  1  3.035483  0  0.541715  1.148128  0  5.950484  0
N  N78  1  0.15256571  0.77269499  0.03878981  1  -1.234337  0  -0.424631  -0.253403  0  3.582076  0
O  O79  1  0.89750833  0.45247817  0.87688591  1  -1.174594  0  -0.312439  -0.570996  0  2.294585  0
O  O80  1  0.41915988  0.09215532  0.99769805  1  -1.122468  0  -0.325502  -0.534455  0  2.208296  0
O  O81  1  0.66636042  0.08823235  0.06256881  1  -1.127188  0  -0.324971  -0.537044  0  2.236125  0
O  O82  1  0.56173102  0.08486319  0.95424294  1  -1.171536  0  -0.313736  -0.568212  0  2.300931  0
O  O83  1  0.52116647  0.91070062  0.93865261  1  -1.173133  0  -0.318742  -0.57752  0  2.282464  0
O  O84  1  0.40813372  0.90023646  0.83263838  1  -1.132688  0  -0.324531  -0.537995  0  2.209738  0
O  O85  1  0.49862648  0.93029483  0.08788983  1  -1.12117  0  -0.325792  -0.533542  0  2.19034  0
O  O86  1  0.38901641  0.92649326  0.98486545  1  -1.171648  0  -0.313603  -0.578845  0  2.304451  0
O  O87  1  0.40215379  0.50714676  0.57794083  1  -1.130782  0  -0.320473  -0.533311  0  2.205257  0
O  O88  1  0.52376600  0.61102185  0.59524162  1  -1.169642  0  -0.315121  -0.572867  0  2.305197  0
O  O89  1  0.54734694  0.46167176  0.58297766  1  -1.150673  0  -0.297462  -0.553125  0  2.326235  0
O  O90  1  0.89662966  0.55885223  0.97867120  1  -1.128032  0  -0.327244  -0.53962  0  2.199513  0
O  O91  1  0.65574206  0.56754764  0.58532443  1  -1.122245  0  -0.317076  -0.524264  0  2.201766  0
O  O92  1  0.40372839  0.33686856  0.40002432  1  -1.107961  0  -0.319957  -0.529277  0  2.210436  0
O  O93  1  0.51752602  0.44116620  0.40741008  1  -1.176429  0  -0.316304  -0.58424  0  2.316813  0
O  O94  1  0.37763863  0.48467675  0.41299818  1  -1.154878  0  -0.307774  -0.564738  0  2.265326  0
O  O95  1  0.49036303  0.59588329  0.42670933  1  -1.122056  0  -0.306056  -0.51383  0  2.228748  0
O  O96  1  0.93020539  0.33400320  0.93281706  1  -1.125012  0  -0.319707  -0.531061  0  2.243344  0
O  O97  1  0.92278820  0.43312183  0.03530045  1  -1.174049  0  -0.319041  -0.57435  0  2.315796  0
O  O98  1  0.10452710  0.48936410  0.06457667  1  -1.167877  0  -0.311977  -0.56805  0  2.277677  0
O  O99  1  0.09959881  0.59677380  0.16060875  1  -1.134184  0  -0.327622  -0.541975  0  2.200999  0
O  O100  1  0.08924431  0.50933745  0.91607949  1  -1.125681  0  -0.340523  -0.546394  0  2.19685  0
O  O101  1  0.06895812  0.60887668  0.00279578  1  -1.185804  0  -0.330909  -0.615476  0  2.346463  0
O  O102  1  0.53344104  0.10970849  0.10889441  1  -1.174969  0  -0.31786  -0.58266  0  2.296894  0
O  O103  1  0.44922982  0.73605318  0.51709587  1  -1.264709  0  -0.29558  -0.494269  0  2.124338  0
O  O104  1  0.49124410  0.76475927  0.41126020  1  -1.274349  0  -0.315011  -0.529976  0  2.087076  0
O  O105  1  0.38072903  0.79590275  0.43754241  1  -1.176093  0  -0.362932  -0.541498  0  2.117468  0
O  O106  1  0.53785266  0.30519226  0.61953423  1  -1.260148  0  -0.299013  -0.488118  0  2.080611  0
O  O107  1  0.58218987  0.32191500  0.51073202  1  -1.285005  0  -0.31253  -0.537403  0  2.147115  0
O  O108  1  0.64911628  0.27075243  0.60412216  1  -1.190639  0  -0.361035  -0.535953  0  2.125904  0
