# generated using pymatgen
data_ZnH16C18N4(OF)4
_symmetry_space_group_name_H-M   'P 1'
_cell_length_a   8.57518108
_cell_length_b   8.57519956
_cell_length_c   13.25550019
_cell_angle_alpha   82.90374192
_cell_angle_beta   82.90385386
_cell_angle_gamma   88.79357155
_symmetry_Int_Tables_number   1
_chemical_formula_structural   ZnH16C18N4(OF)4
_chemical_formula_sum   'Zn2 H32 C36 N8 O8 F8'
_cell_volume   959.83646881
_cell_formula_units_Z   2
loop_
 _symmetry_equiv_pos_site_id
 _symmetry_equiv_pos_as_xyz
  1  'x, y, z'
loop_
 _atom_site_type_symbol
 _atom_site_label
 _atom_site_symmetry_multiplicity
 _atom_site_fract_x
 _atom_site_fract_y
 _atom_site_fract_z
 _atom_site_occupancy
 _atom_site_hle17_bader_spin_density
 _atom_site_hle17_ddec_charge
 _atom_site_hle17_ddec_spin_density
 _atom_site_hle17_ddec_sum_bond_order
 _atom_site_hle17_magmom
 _atom_site_hse06_10hf_bader_spin_density
 _atom_site_hse06_10hf_ddec_charge
 _atom_site_hse06_10hf_ddec_spin_density
 _atom_site_hse06_10hf_ddec_sum_bond_order
 _atom_site_hse06_10hf_magmom
 _atom_site_hse06_bader_spin_density
 _atom_site_hse06_ddec_charge
 _atom_site_hse06_ddec_spin_density
 _atom_site_hse06_ddec_sum_bond_order
 _atom_site_hse06_magmom
 _atom_site_pbe_bader_spin_density
 _atom_site_pbe_cm5_charge
 _atom_site_pbe_ddec_charge
 _atom_site_pbe_ddec_spin_density
 _atom_site_pbe_ddec_sum_bond_order
 _atom_site_pbe_magmom
Zn  Zn0  1  0.99986473  0.00013667  0.75000008  1  0  0.995794  0  1.890965  0  0  0.799458  0  2.375159  0  0  0.845666  0  2.321344  0  0  0.688704  0.767303  0  2.412047  0
Zn  Zn1  1  0.00013514  0.99986527  0.24999976  1  0  0.995741  0  1.891068  0  0  0.799426  0  2.375193  0  0  0.845637  0  2.321375  0  0  0.688683  0.767269  0  2.412085  0
H  H2  1  0.77327017  0.86580446  0.60652590  1  0  0.105764  0  0.976035  0  0  0.108272  0  1.04674  0  0  0.111419  0  1.044512  0  0  0.113182  0.105911  0  1.048526  0
H  H3  1  0.13419619  0.22673220  0.89347497  1  0  0.105749  0  0.976003  0  0  0.10824  0  1.046743  0  0  0.111392  0  1.044509  0  0  0.113159  0.105878  0  1.04853  0
H  H4  1  0.22673088  0.13419631  0.39347318  1  0  0.105819  0  0.97586  0  0  0.108224  0  1.046724  0  0  0.111361  0  1.044506  0  0  0.113137  0.105864  0  1.048511  0
H  H5  1  0.86580486  0.77326739  0.10652571  1  0  0.105752  0  0.976028  0  0  0.108238  0  1.046769  0  0  0.111394  0  1.044531  0  0  0.113163  0.105878  0  1.048553  0
H  H6  1  0.69158428  0.05108012  0.43168178  1  0  0.128605  0  0.965315  0  0  0.136665  0  1.025176  0  0  0.139824  0  1.023526  0  0  0.124514  0.134332  0  1.026524  0
H  H7  1  0.94892017  0.30841587  0.06831968  1  0  0.128596  0  0.965345  0  0  0.136738  0  1.025092  0  0  0.139901  0  1.023443  0  0  0.124536  0.134405  0  1.026439  0
H  H8  1  0.30841794  0.94892182  0.56831787  1  0  0.128529  0  0.965471  0  0  0.136691  0  1.025182  0  0  0.13985  0  1.023532  0  0  0.124531  0.134358  0  1.026528  0
H  H9  1  0.05107971  0.69158255  0.93168118  1  0  0.12854  0  0.965379  0  0  0.136688  0  1.025132  0  0  0.139847  0  1.023483  0  0  0.124527  0.134354  0  1.02648  0
H  H10  1  0.97811738  0.31201030  0.58812380  1  0  0.104314  0  0.962384  0  0  0.107301  0  1.03831  0  0  0.11121  0  1.032614  0  0  0.131765  0.10445  0  1.042338  0
H  H11  1  0.68798963  0.02188304  0.91187631  1  0  0.104321  0  0.962366  0  0  0.107278  0  1.038328  0  0  0.111186  0  1.032635  0  0  0.131762  0.10443  0  1.04236  0
H  H12  1  0.02188133  0.68798930  0.41187555  1  0  0.104332  0  0.962373  0  0  0.107328  0  1.038303  0  0  0.111236  0  1.03261  0  0  0.131791  0.104479  0  1.042326  0
H  H13  1  0.31201143  0.97811774  0.08812277  1  0  0.104321  0  0.962393  0  0  0.107307  0  1.038341  0  0  0.111215  0  1.032645  0  0  0.131773  0.104458  0  1.042366  0
H  H14  1  0.79458248  0.32562746  0.34185594  1  0  0.125627  0  0.908  0  0  0.133091  0  0.972442  0  0  0.136349  0  0.968664  0  0  0.124859  0.130641  0  0.975355  0
H  H15  1  0.67437238  0.20541814  0.15814464  1  0  0.125636  0  0.907928  0  0  0.133093  0  0.972405  0  0  0.136346  0  0.968625  0  0  0.124857  0.130653  0  0.975305  0
H  H16  1  0.20541738  0.67437566  0.65814380  1  0  0.12561  0  0.908014  0  0  0.133082  0  0.972449  0  0  0.136341  0  0.968675  0  0  0.124852  0.130628  0  0.975369  0
H  H17  1  0.32562633  0.79458145  0.84185547  1  0  0.125573  0  0.908034  0  0  0.133081  0  0.972433  0  0  0.136336  0  0.968655  0  0  0.124859  0.130631  0  0.975345  0
H  H18  1  0.89401340  0.44302964  0.41314611  1  0  0.108603  0  0.910351  0  0  0.118092  0  0.976235  0  0  0.119941  0  0.974095  0  0  0.120848  0.116659  0  0.977967  0
H  H19  1  0.55697158  0.10598618  0.08685519  1  0  0.108641  0  0.910295  0  0  0.118113  0  0.976188  0  0  0.119959  0  0.974043  0  0  0.120845  0.116679  0  0.977925  0
H  H20  1  0.10598881  0.55697230  0.58685505  1  0  0.108654  0  0.910293  0  0  0.118127  0  0.976174  0  0  0.11998  0  0.974035  0  0  0.120851  0.116694  0  0.977908  0
H  H21  1  0.44302948  0.89401106  0.91314492  1  0  0.108662  0  0.910289  0  0  0.11813  0  0.976177  0  0  0.119978  0  0.974034  0  0  0.120844  0.116697  0  0.977913  0
H  H22  1  0.80642197  0.49298736  0.88276965  1  0  0.113641  0  0.982025  0  0  0.130023  0  1.051042  0  0  0.130686  0  1.053868  0  0  0.084646  0.129574  0  1.049103  0
H  H23  1  0.50701333  0.19357724  0.61723100  1  0  0.113625  0  0.982093  0  0  0.130037  0  1.051069  0  0  0.130701  0  1.053894  0  0  0.084657  0.129588  0  1.049128  0
H  H24  1  0.19357790  0.50701341  0.11723028  1  0  0.113628  0  0.982056  0  0  0.130022  0  1.051045  0  0  0.130686  0  1.05387  0  0  0.084643  0.129574  0  1.049105  0
H  H25  1  0.49298538  0.80642118  0.38276995  1  0  0.113645  0  0.982103  0  0  0.13006  0  1.051052  0  0  0.130725  0  1.053875  0  0  0.084637  0.129612  0  1.049111  0
H  H26  1  0.91394993  0.48392090  0.76064777  1  0  0.137772  0  0.943117  0  0  0.157085  0  1.001009  0  0  0.160002  0  0.999391  0  0  0.09248  0.154973  0  1.002205  0
H  H27  1  0.51608027  0.08605056  0.73935207  1  0  0.13776  0  0.943143  0  0  0.157076  0  1.001032  0  0  0.159992  0  0.999415  0  0  0.092482  0.154964  0  1.002229  0
H  H28  1  0.08605112  0.51607987  0.23935206  1  0  0.137753  0  0.943173  0  0  0.157087  0  1.001026  0  0  0.160004  0  0.999408  0  0  0.092487  0.154974  0  1.002223  0
H  H29  1  0.48391844  0.91394903  0.26064879  1  0  0.137788  0  0.943094  0  0  0.157113  0  1.000967  0  0  0.160018  0  0.999363  0  0  0.092487  0.155002  0  1.002165  0
H  H30  1  0.70410889  0.51445763  0.77363065  1  0  0.122186  0  0.956552  0  0  0.137397  0  1.024141  0  0  0.139724  0  1.023108  0  0  0.084935  0.135755  0  1.024885  0
H  H31  1  0.48554356  0.29589033  0.72636912  1  0  0.122206  0  0.956597  0  0  0.137421  0  1.024175  0  0  0.139748  0  1.023142  0  0  0.08496  0.135779  0  1.024919  0
H  H32  1  0.29589099  0.48554197  0.22636937  1  0  0.122271  0  0.956416  0  0  0.137398  0  1.024145  0  0  0.139725  0  1.023112  0  0  0.084935  0.135756  0  1.024889  0
H  H33  1  0.51445750  0.70410809  0.27363165  1  0  0.122165  0  0.956607  0  0  0.137414  0  1.024136  0  0  0.139742  0  1.023102  0  0  0.084941  0.135772  0  1.02488  0
C  C34  1  0.80258854  0.98607759  0.57658037  1  0  0.024617  0  3.724387  0  0  -0.012007  0  3.994131  0  0  -0.009733  0  4.01338  0  0  0.002859  -0.0135  0  3.981262  0
C  C35  1  0.01392312  0.19740767  0.92342092  1  0  0.024679  0  3.724407  0  0  -0.011965  0  3.994218  0  0  -0.009695  0  4.013466  0  0  0.002905  -0.013457  0  3.981346  0
C  C36  1  0.19740781  0.01392318  0.42341757  1  0  0.024708  0  3.724211  0  0  -0.012015  0  3.994164  0  0  -0.009728  0  4.013414  0  0  0.002894  -0.013509  0  3.981294  0
C  C37  1  0.98607676  0.80259192  0.07657985  1  0  0.024694  0  3.724434  0  0  -0.011935  0  3.994238  0  0  -0.009669  0  4.013483  0  0  0.002922  -0.013428  0  3.981365  0
C  C38  1  0.75908374  0.07591940  0.49161578  1  0  -0.07147  0  3.654662  0  0  -0.110722  0  3.914327  0  0  -0.110214  0  3.93322  0  0  -0.002006  -0.111075  0  3.901745  0
C  C39  1  0.92408259  0.24091715  0.00838477  1  0  -0.07169  0  3.654791  0  0  -0.11089  0  3.91435  0  0  -0.11039  0  3.93325  0  0  -0.002089  -0.111242  0  3.90177  0
C  C40  1  0.24091730  0.92408372  0.50838236  1  0  -0.07159  0  3.654931  0  0  -0.110827  0  3.914501  0  0  -0.110319  0  3.933393  0  0  -0.002091  -0.111178  0  3.901919  0
C  C41  1  0.07591845  0.75908361  0.99161657  1  0  -0.071574  0  3.654786  0  0  -0.110817  0  3.914389  0  0  -0.110309  0  3.933284  0  0  -0.002075  -0.111169  0  3.901809  0
C  C42  1  0.90896956  0.21683407  0.57063206  1  0  0.161275  0  3.65212  0  0  0.095348  0  3.922075  0  0  0.10931  0  3.934093  0  0  0.141814  0.086372  0  3.91366  0
C  C43  1  0.78316538  0.09103164  0.92936804  1  0  0.16128  0  3.651989  0  0  0.095338  0  3.922036  0  0  0.1093  0  3.934052  0  0  0.141811  0.086357  0  3.913627  0
C  C44  1  0.09103032  0.78316552  0.42936720  1  0  0.161281  0  3.652052  0  0  0.095296  0  3.922052  0  0  0.109258  0  3.934069  0  0  0.141783  0.086321  0  3.913637  0
C  C45  1  0.21683566  0.90897030  0.07063094  1  0  0.161289  0  3.652079  0  0  0.095326  0  3.922092  0  0  0.109288  0  3.934108  0  0  0.141798  0.08635  0  3.913678  0
C  C46  1  0.79694735  0.36075999  0.41825252  1  0  -0.014599  0  3.61505  0  0  -0.083952  0  3.878506  0  0  -0.078463  0  3.884725  0  0  -0.040437  -0.087664  0  3.87465  0
C  C47  1  0.63923969  0.20305221  0.08174814  1  0  -0.014579  0  3.614926  0  0  -0.083942  0  3.878387  0  0  -0.078433  0  3.884578  0  0  -0.04043  -0.087661  0  3.874525  0
C  C48  1  0.20305251  0.63924195  0.58174807  1  0  -0.014613  0  3.61508  0  0  -0.083934  0  3.878485  0  0  -0.078461  0  3.884725  0  0  -0.040454  -0.087647  0  3.87463  0
C  C49  1  0.36076019  0.79694738  0.91825188  1  0  -0.014597  0  3.615028  0  0  -0.083948  0  3.878423  0  0  -0.078448  0  3.884628  0  0  -0.040446  -0.087658  0  3.874565  0
C  C50  1  0.64457047  0.43594236  0.45722744  1  0  -0.072901  0  3.775411  0  0  -0.083586  0  4.055639  0  0  -0.085295  0  4.074918  0  0  -0.016975  -0.082542  0  4.0431  0
C  C51  1  0.56405891  0.35542877  0.04277220  1  0  -0.072917  0  3.775589  0  0  -0.083611  0  4.055615  0  0  -0.085326  0  4.074893  0  0  -0.01698  -0.082562  0  4.043074  0
C  C52  1  0.35542938  0.56406194  0.54277296  1  0  -0.073034  0  3.775805  0  0  -0.083605  0  4.05561  0  0  -0.085309  0  4.074895  0  0  -0.01695  -0.082554  0  4.043059  0
C  C53  1  0.43593981  0.64456965  0.95722724  1  0  -0.072916  0  3.775565  0  0  -0.083579  0  4.055538  0  0  -0.085292  0  4.074816  0  0  -0.016963  -0.082534  0  4.042999  0
C  C54  1  0.50069046  0.39375007  0.42993450  1  0  0.169426  0  3.779163  0  0  0.132535  0  4.087359  0  0  0.140471  0  4.096515  0  0  0.092703  0.126751  0  4.081685  0
C  C55  1  0.60624837  0.49931089  0.07006588  1  0  0.168543  0  3.780369  0  0  0.132523  0  4.087296  0  0  0.140457  0  4.096453  0  0  0.092738  0.12674  0  4.081622  0
C  C56  1  0.49931058  0.60625305  0.57006515  1  0  0.168345  0  3.78074  0  0  0.132469  0  4.087405  0  0  0.140404  0  4.09656  0  0  0.092671  0.126685  0  4.081729  0
C  C57  1  0.39375152  0.50068753  0.92993347  1  0  0.168451  0  3.780539  0  0  0.132491  0  4.087357  0  0  0.140425  0  4.096514  0  0  0.092705  0.126708  0  4.081685  0
C  C58  1  0.35984721  0.45660815  0.47170030  1  0  0.182134  0  3.768677  0  0  0.143914  0  4.076439  0  0  0.151914  0  4.086513  0  0  0.093944  0.138076  0  4.070145  0
C  C59  1  0.54339250  0.64015211  0.02829992  1  0  0.182185  0  3.768931  0  0  0.143979  0  4.076437  0  0  0.151981  0  4.086511  0  0  0.093951  0.138143  0  4.070147  0
C  C60  1  0.64015382  0.54339496  0.52830086  1  0  0.182046  0  3.769255  0  0  0.143973  0  4.076521  0  0  0.151975  0  4.086594  0  0  0.093949  0.138137  0  4.070229  0
C  C61  1  0.45660623  0.35984514  0.97169886  1  0  0.182145  0  3.769097  0  0  0.143976  0  4.076547  0  0  0.151976  0  4.086623  0  0  0.093964  0.138138  0  4.070256  0
C  C62  1  0.83550257  0.71818128  0.79296066  1  0  0.724749  0  3.866198  0  0  0.687198  0  4.159073  0  0  0.72046  0  4.151564  0  0  0.190953  0.6646  0  4.16332  0
C  C63  1  0.28181761  0.16449759  0.70704067  1  0  0.724748  0  3.866307  0  0  0.687201  0  4.159162  0  0  0.720462  0  4.151653  0  0  0.190958  0.664602  0  4.16341  0
C  C64  1  0.16449849  0.28181714  0.20704011  1  0  0.724761  0  3.866267  0  0  0.687184  0  4.159154  0  0  0.720446  0  4.151644  0  0  0.190946  0.664586  0  4.163402  0
C  C65  1  0.71818227  0.83550200  0.29296010  1  0  0.724739  0  3.866303  0  0  0.68719  0  4.159158  0  0  0.720453  0  4.151645  0  0  0.190938  0.66459  0  4.163405  0
C  C66  1  0.81439881  0.54152505  0.80153787  1  0  -0.452728  0  3.675116  0  0  -0.528819  0  3.911192  0  0  -0.536078  0  3.915147  0  0  -0.2582  -0.523695  0  3.908283  0
C  C67  1  0.45847659  0.18560151  0.69846183  1  0  -0.452795  0  3.675272  0  0  -0.528879  0  3.911292  0  0  -0.536139  0  3.915248  0  0  -0.25826  -0.523755  0  3.908383  0
C  C68  1  0.18560107  0.45847455  0.19846214  1  0  -0.452746  0  3.675147  0  0  -0.528824  0  3.911195  0  0  -0.536083  0  3.91515  0  0  -0.258211  -0.5237  0  3.908286  0
C  C69  1  0.54152328  0.81439808  0.30153894  1  0  -0.452845  0  3.675243  0  0  -0.52893  0  3.911214  0  0  -0.53618  0  3.915175  0  0  -0.258226  -0.523807  0  3.908306  0
N  N70  1  0.89605455  0.07525702  0.62490863  1  0  -0.382079  0  3.332314  0  0  -0.298473  0  3.632291  0  0  -0.318835  0  3.645234  0  0  -0.358786  -0.284747  0  3.623321  0
N  N71  1  0.92474347  0.10394649  0.87509150  1  0  -0.382071  0  3.332334  0  0  -0.298484  0  3.63235  0  0  -0.318846  0  3.645291  0  0  -0.358782  -0.284758  0  3.62338  0
N  N72  1  0.10394299  0.92474258  0.37509006  1  0  -0.382071  0  3.332366  0  0  -0.298395  0  3.632261  0  0  -0.318755  0  3.645201  0  0  -0.358729  -0.284669  0  3.623291  0
N  N73  1  0.07525757  0.89605427  0.12490909  1  0  -0.382086  0  3.332381  0  0  -0.298489  0  3.632372  0  0  -0.318852  0  3.645319  0  0  -0.358785  -0.284762  0  3.623402  0
N  N74  1  0.82804889  0.22115943  0.48867452  1  0  -0.055392  0  3.552479  0  0  0.038712  0  3.77381  0  0  0.023541  0  3.80058  0  0  -0.237722  0.048823  0  3.755536  0
N  N75  1  0.77884245  0.17195038  0.01132686  1  0  -0.055273  0  3.552354  0  0  0.038814  0  3.773719  0  0  0.023639  0  3.800487  0  0  -0.237696  0.048927  0  3.755449  0
N  N76  1  0.17195098  0.77884252  0.51132531  1  0  -0.055318  0  3.552419  0  0  0.03878  0  3.77379  0  0  0.023615  0  3.800564  0  0  -0.237688  0.048893  0  3.755513  0
N  N77  1  0.22115979  0.82804922  0.98867297  1  0  -0.055339  0  3.552418  0  0  0.038752  0  3.773806  0  0  0.023579  0  3.800573  0  0  -0.237691  0.048864  0  3.755532  0
O  O78  1  0.97870299  0.76746921  0.76355929  1  0  -0.674813  0  1.994981  0  0  -0.595999  0  2.260068  0  0  -0.624566  0  2.244412  0  0  -0.344248  -0.575941  0  2.2701  0
O  O79  1  0.23253222  0.02129638  0.73644046  1  0  -0.674833  0  1.994979  0  0  -0.59601  0  2.260052  0  0  -0.624577  0  2.244396  0  0  -0.344275  -0.575954  0  2.270086  0
O  O80  1  0.02129689  0.23253156  0.23643988  1  0  -0.674879  0  1.995048  0  0  -0.595994  0  2.260075  0  0  -0.624561  0  2.244419  0  0  -0.344261  -0.575936  0  2.270109  0
O  O81  1  0.76746766  0.97870321  0.26356107  1  0  -0.674817  0  1.994972  0  0  -0.596001  0  2.260092  0  0  -0.624568  0  2.244434  0  0  -0.344248  -0.575945  0  2.270127  0
O  O82  1  0.72142980  0.80638713  0.81488251  1  0  -0.645186  0  1.879736  0  0  -0.599116  0  2.103005  0  0  -0.622748  0  2.094969  0  0  -0.338956  -0.58253  0  2.107972  0
O  O83  1  0.19361348  0.27856922  0.68511864  1  0  -0.645154  0  1.879872  0  0  -0.599073  0  2.103124  0  0  -0.622704  0  2.095086  0  0  -0.33892  -0.582486  0  2.108091  0
O  O84  1  0.27856890  0.19361247  0.18511760  1  0  -0.645072  0  1.879612  0  0  -0.599086  0  2.103087  0  0  -0.622719  0  2.095049  0  0  -0.33893  -0.582498  0  2.108053  0
O  O85  1  0.80638640  0.72143037  0.31488289  1  0  -0.645177  0  1.879876  0  0  -0.599072  0  2.103117  0  0  -0.622707  0  2.095083  0  0  -0.338922  -0.582486  0  2.108082  0
F  F86  1  0.49662671  0.28848810  0.36173210  1  0  -0.162845  0  1.231847  0  0  -0.102466  0  1.386622  0  0  -0.111295  0  1.377817  0  0  -0.074618  -0.096064  0  1.392663  0
F  F87  1  0.71150853  0.50337067  0.13827031  1  0  -0.162487  0  1.231939  0  0  -0.102495  0  1.386573  0  0  -0.111324  0  1.37777  0  0  -0.074662  -0.096094  0  1.392615  0
F  F88  1  0.50337434  0.71151149  0.63827009  1  0  -0.162388  0  1.232077  0  0  -0.102465  0  1.386665  0  0  -0.111294  0  1.377861  0  0  -0.074616  -0.096064  0  1.392706  0
F  F89  1  0.28849019  0.49662657  0.86172998  1  0  -0.162457  0  1.232055  0  0  -0.102485  0  1.386645  0  0  -0.111314  0  1.377841  0  0  -0.07464  -0.096083  0  1.392685  0
F  F90  1  0.22313507  0.41171214  0.44187303  1  0  -0.174144  0  1.246019  0  0  -0.110222  0  1.407707  0  0  -0.120459  0  1.399945  0  0  -0.0719  -0.102816  0  1.412992  0
F  F91  1  0.58828688  0.77686391  0.05812803  1  0  -0.174113  0  1.246083  0  0  -0.110249  0  1.407715  0  0  -0.120484  0  1.399953  0  0  -0.071903  -0.102842  0  1.413  0
F  F92  1  0.77686482  0.58828628  0.55812632  1  0  -0.174074  0  1.246281  0  0  -0.110212  0  1.407876  0  0  -0.120447  0  1.400113  0  0  -0.071879  -0.102806  0  1.413159  0
F  F93  1  0.41171419  0.22313334  0.94187132  1  0  -0.174058  0  1.246191  0  0  -0.110224  0  1.407833  0  0  -0.12046  0  1.400071  0  0  -0.071882  -0.102817  0  1.413118  0
