# generated using pymatgen
data_SrH14(C3N2)4
_symmetry_space_group_name_H-M   'P 1'
_cell_length_a   10.62018931
_cell_length_b   10.58481872
_cell_length_c   13.89400000
_cell_angle_alpha   95.26858509
_cell_angle_beta   90.00000000
_cell_angle_gamma   90.00000000
_symmetry_Int_Tables_number   1
_chemical_formula_structural   SrH14(C3N2)4
_chemical_formula_sum   'Sr4 H56 C48 N32'
_cell_volume   1555.26457846
_cell_formula_units_Z   4
loop_
 _symmetry_equiv_pos_site_id
 _symmetry_equiv_pos_as_xyz
  1  'x, y, z'
loop_
 _atom_site_type_symbol
 _atom_site_label
 _atom_site_symmetry_multiplicity
 _atom_site_fract_x
 _atom_site_fract_y
 _atom_site_fract_z
 _atom_site_occupancy
 _atom_site_hle17_bader_spin_density
 _atom_site_hle17_ddec_charge
 _atom_site_hle17_ddec_spin_density
 _atom_site_hle17_ddec_sum_bond_order
 _atom_site_hle17_magmom
 _atom_site_hse06_10hf_bader_spin_density
 _atom_site_hse06_10hf_ddec_charge
 _atom_site_hse06_10hf_ddec_spin_density
 _atom_site_hse06_10hf_ddec_sum_bond_order
 _atom_site_hse06_10hf_magmom
 _atom_site_hse06_bader_spin_density
 _atom_site_hse06_ddec_charge
 _atom_site_hse06_ddec_spin_density
 _atom_site_hse06_ddec_sum_bond_order
 _atom_site_hse06_magmom
 _atom_site_pbe_bader_charge
 _atom_site_pbe_bader_spin_density
 _atom_site_pbe_cm5_charge
 _atom_site_pbe_ddec_charge
 _atom_site_pbe_ddec_spin_density
 _atom_site_pbe_ddec_sum_bond_order
 _atom_site_pbe_magmom
Sr  Sr0  1  0.28907300  0.50531020  0.25226679  1  0  1.40898  0  1.263523  0  0  1.220655  0  1.640908  0  0  1.256439  0  1.609439  0  1.634945  0  0.982802  1.194024  0  1.663481  0
Sr  Sr1  1  0.78907445  0.99468791  0.24773384  1  0  1.408918  0  1.263584  0  0  1.220594  0  1.640964  0  0  1.256377  0  1.609495  0  1.634961  0  0.982777  1.193962  0  1.663538  0
Sr  Sr2  1  0.71092518  0.49468886  0.74773293  1  0  1.408942  0  1.263533  0  0  1.220573  0  1.640975  0  0  1.256362  0  1.609503  0  1.634926  0  0.982775  1.193944  0  1.663546  0
Sr  Sr3  1  0.21092656  0.00531020  0.75226653  1  0  1.408941  0  1.263545  0  0  1.220586  0  1.640966  0  0  1.256376  0  1.609493  0  1.634952  0  0.982787  1.193956  0  1.663538  0
H  H4  1  0.40992772  0.68375348  0.48139572  1  0  0.084228  0  0.949634  0  0  0.091012  0  1.01724  0  0  0.092985  0  1.015704  0  0.143217  0  0.13459  0.089506  0  1.01841  0
H  H5  1  0.90992728  0.81624748  0.01860438  1  0  0.084275  0  0.949644  0  0  0.091026  0  1.017282  0  0  0.092998  0  1.015747  0  0.143223  0  0.134603  0.089521  0  1.018452  0
H  H6  1  0.59007329  0.31624653  0.51860478  1  0  0.084245  0  0.949596  0  0  0.091029  0  1.0172  0  0  0.093002  0  1.015663  0  0.143228  0  0.134593  0.089523  0  1.018369  0
H  H7  1  0.09007467  0.18375158  0.98139750  1  0  0.08421  0  0.949738  0  0  0.091003  0  1.017325  0  0  0.092975  0  1.01579  0  0.143296  0  0.134562  0.089497  0  1.018497  0
H  H8  1  0.33480665  0.24618268  0.37033371  1  0  0.079001  0  0.97813  0  0  0.091681  0  1.038524  0  0  0.093939  0  1.037887  0  0.05591  0  0.109252  0.089949  0  1.039285  0
H  H9  1  0.83480527  0.25381638  0.12966576  1  0  0.079006  0  0.97807  0  0  0.091686  0  1.03846  0  0  0.093942  0  1.03782  0  0.055889  0  0.10924  0.089953  0  1.039221  0
H  H10  1  0.66519342  0.75381923  0.62966909  1  0  0.079042  0  0.978118  0  0  0.091729  0  1.038497  0  0  0.093985  0  1.037857  0  0.055941  0  0.109262  0.089997  0  1.039257  0
H  H11  1  0.16519385  0.74618173  0.87033101  1  0  0.079026  0  0.978131  0  0  0.091711  0  1.038519  0  0  0.093966  0  1.037881  0  0.055948  0  0.109245  0.089978  0  1.039279  0
H  H12  1  0.75942243  0.71948369  0.36959335  1  0  0.075057  0  0.981804  0  0  0.085647  0  1.045596  0  0  0.087961  0  1.044926  0  0.064816  0  0.105088  0.083817  0  1.046436  0
H  H13  1  0.25942193  0.78050873  0.13040831  1  0  0.075048  0  0.981826  0  0  0.085628  0  1.045639  0  0  0.087952  0  1.044958  0  0.064998  0  0.105069  0.083798  0  1.046479  0
H  H14  1  0.24057857  0.28051442  0.63040486  1  0  0.075076  0  0.98179  0  0  0.085646  0  1.045602  0  0  0.087976  0  1.044916  0  0.064844  0  0.105096  0.083819  0  1.046437  0
H  H15  1  0.74057814  0.21948369  0.86959382  1  0  0.075093  0  0.981772  0  0  0.085681  0  1.045563  0  0  0.087993  0  1.044897  0  0.064833  0  0.105094  0.083852  0  1.046403  0
H  H16  1  0.44841668  0.84901377  0.21930664  1  0  0.051691  0  0.97069  0  0  0.060511  0  1.042192  0  0  0.062661  0  1.039401  0  0.044805  0  0.11366  0.058918  0  1.044361  0
H  H17  1  0.94841247  0.65098529  0.28069405  1  0  0.051693  0  0.970673  0  0  0.060509  0  1.042172  0  0  0.06266  0  1.03938  0  0.044753  0  0.113669  0.058916  0  1.044342  0
H  H18  1  0.55158339  0.15098623  0.78069603  1  0  0.051668  0  0.970677  0  0  0.060529  0  1.042143  0  0  0.062682  0  1.039349  0  0.044762  0  0.113638  0.058936  0  1.044312  0
H  H19  1  0.05158288  0.34901377  0.71930422  1  0  0.051705  0  0.970613  0  0  0.060536  0  1.042116  0  0  0.062688  0  1.039323  0  0.044713  0  0.11365  0.058943  0  1.044286  0
H  H20  1  0.09961122  0.43442188  0.46965273  1  0  0.088138  0  0.977756  0  0  0.09456  0  1.044363  0  0  0.096832  0  1.043875  0  0.103772  0  0.111442  0.09293  0  1.044788  0
H  H21  1  0.59961078  0.06557813  0.03034680  1  0  0.088164  0  0.977732  0  0  0.094592  0  1.044333  0  0  0.096862  0  1.043847  0  0.10378  0  0.111445  0.092961  0  1.044758  0
H  H22  1  0.90038885  0.56557813  0.53034705  1  0  0.088142  0  0.977755  0  0  0.094565  0  1.04436  0  0  0.096836  0  1.043873  0  0.103781  0  0.111442  0.092935  0  1.044784  0
H  H23  1  0.40038928  0.93442473  0.96965318  1  0  0.088156  0  0.977768  0  0  0.094573  0  1.044376  0  0  0.096844  0  1.043889  0  0.103775  0  0.111446  0.092942  0  1.044801  0
H  H24  1  0.15007925  0.58482937  0.01748691  1  0  0.100509  0  0.96799  0  0  0.109157  0  1.028667  0  0  0.111664  0  1.028016  0  0.087285  0  0.116006  0.107317  0  1.029292  0
H  H25  1  0.65008069  0.91517349  0.48251260  1  0  0.1005  0  0.96801  0  0  0.109139  0  1.028695  0  0  0.111647  0  1.028042  0  0.087328  0  0.115982  0.107297  0  1.029328  0
H  H26  1  0.84991894  0.41517159  0.98251222  1  0  0.100481  0  0.968049  0  0  0.109118  0  1.028746  0  0  0.111625  0  1.028094  0  0.087302  0  0.115977  0.107279  0  1.029366  0
H  H27  1  0.34992032  0.08482747  0.51748653  1  0  0.10048  0  0.968023  0  0  0.109121  0  1.028711  0  0  0.111628  0  1.028058  0  0.087278  0  0.115974  0.107279  0  1.02934  0
H  H28  1  0.52011502  0.06194818  0.37053047  1  0  0.085034  0  0.984935  0  0  0.09475  0  1.049943  0  0  0.097168  0  1.049366  0  0.072902  0  0.10908  0.092906  0  1.050657  0
H  H29  1  0.02011264  0.43805277  0.12946913  1  0  0.085047  0  0.984924  0  0  0.094765  0  1.049923  0  0  0.097183  0  1.049345  0  0.072931  0  0.109087  0.092921  0  1.050638  0
H  H30  1  0.47988504  0.93805373  0.62946945  1  0  0.085058  0  0.984905  0  0  0.094771  0  1.049906  0  0  0.09719  0  1.049329  0  0.07295  0  0.109094  0.092927  0  1.05062  0
H  H31  1  0.97988460  0.56194723  0.87053066  1  0  0.085057  0  0.984922  0  0  0.094766  0  1.049932  0  0  0.097186  0  1.049354  0  0.072968  0  0.109089  0.092921  0  1.050646  0
H  H32  1  0.21474853  0.48303147  0.83130063  1  0  0.101022  0  0.978261  0  0  0.10545  0  1.050499  0  0  0.107619  0  1.050555  0  0.130277  0  0.117578  0.103691  0  1.05089  0
H  H33  1  0.71474903  0.01697043  0.66869831  1  0  0.101026  0  0.978253  0  0  0.105458  0  1.050486  0  0  0.107628  0  1.050543  0  0.130284  0  0.117583  0.103699  0  1.050879  0
H  H34  1  0.78525154  0.51696948  0.16869850  1  0  0.101027  0  0.978272  0  0  0.105454  0  1.050514  0  0  0.107624  0  1.05057  0  0.130288  0  0.117588  0.103695  0  1.050906  0
H  H35  1  0.28525198  0.98303053  0.33130082  1  0  0.101053  0  0.97831  0  0  0.105505  0  1.050518  0  0  0.107675  0  1.050573  0  0.130273  0  0.117606  0.103746  0  1.05091  0
H  H36  1  0.30029126  0.71326269  0.64502113  1  0  0.288702  0  0.926661  0  0  0.269322  0  0.990352  0  0  0.275766  0  0.987034  0  0.510208  0  0.319837  0.26462  0  0.993084  0
H  H37  1  0.80029176  0.78673827  0.85497898  1  0  0.288704  0  0.926668  0  0  0.269324  0  0.990359  0  0  0.275769  0  0.987041  0  0.510204  0  0.319838  0.264623  0  0.99309  0
H  H38  1  0.69970787  0.28673732  0.35497866  1  0  0.288698  0  0.926669  0  0  0.269315  0  0.990362  0  0  0.275761  0  0.987044  0  0.510209  0  0.319836  0.264614  0  0.993093  0
H  H39  1  0.19971019  0.21326268  0.14502303  1  0  0.288657  0  0.926702  0  0  0.269293  0  0.990369  0  0  0.275738  0  0.987048  0  0.510172  0  0.31984  0.264594  0  0.993095  0
H  H40  1  0.57728067  0.53226440  0.35258549  1  0  0.083276  0  0.99451  0  0  0.089618  0  1.063385  0  0  0.092008  0  1.063316  0  0.070877  0  0.105721  0.087914  0  1.063521  0
H  H41  1  0.07728393  0.96772992  0.14741487  1  0  0.083234  0  0.994677  0  0  0.089541  0  1.06358  0  0  0.091958  0  1.063485  0  0.070954  0  0.105685  0.087838  0  1.063716  0
H  H42  1  0.42271939  0.46773371  0.64741344  1  0  0.083288  0  0.994527  0  0  0.089661  0  1.063366  0  0  0.09205  0  1.063299  0  0.071058  0  0.105731  0.087957  0  1.063504  0
H  H43  1  0.92271990  0.03226535  0.85258602  1  0  0.083283  0  0.994508  0  0  0.089628  0  1.063378  0  0  0.092023  0  1.063304  0  0.071055  0  0.105721  0.087924  0  1.063515  0
H  H44  1  0.60749953  0.31156536  0.16151468  1  0  0.047888  0  0.97384  0  0  0.056371  0  1.047689  0  0  0.058488  0  1.045089  0  0.072959  0  0.110969  0.054817  0  1.049682  0
H  H45  1  0.10749903  0.18843465  0.33848485  1  0  0.047822  0  0.973896  0  0  0.056364  0  1.047689  0  0  0.058482  0  1.045089  0  0.072521  0  0.11096  0.054808  0  1.049685  0
H  H46  1  0.39249959  0.68843370  0.83848503  1  0  0.047859  0  0.973843  0  0  0.05636  0  1.047682  0  0  0.058477  0  1.045083  0  0.072951  0  0.110956  0.054804  0  1.049678  0
H  H47  1  0.89249821  0.81156631  0.66151428  1  0  0.047842  0  0.973868  0  0  0.05638  0  1.047664  0  0  0.058501  0  1.045062  0  0.072927  0  0.110964  0.054826  0  1.049657  0
H  H48  1  0.46116315  0.34106128  0.03460512  1  0  0.079546  0  0.942291  0  0  0.090428  0  1.005278  0  0  0.092596  0  1.00263  0  0.122605  0  0.134369  0.088867  0  1.007113  0
H  H49  1  0.96116554  0.15893872  0.46539442  1  0  0.079474  0  0.942322  0  0  0.090397  0  1.005275  0  0  0.092564  0  1.002628  0  0.122565  0  0.134349  0.088837  0  1.007109  0
H  H50  1  0.53883503  0.65893967  0.96539473  1  0  0.079478  0  0.942332  0  0  0.090405  0  1.005276  0  0  0.092573  0  1.002629  0  0.12257  0  0.134351  0.088845  0  1.007112  0
H  H51  1  0.03883641  0.84106129  0.53460465  1  0  0.079512  0  0.942313  0  0  0.090423  0  1.005275  0  0  0.09259  0  1.002628  0  0.12261  0  0.13437  0.088862  0  1.007111  0
H  H52  1  0.10799243  0.56937126  0.65229802  1  0  0.107095  0  0.982471  0  0  0.114595  0  1.047922  0  0  0.116548  0  1.048392  0  0.129329  0  0.119028  0.113129  0  1.047739  0
H  H53  1  0.60799293  0.93062875  0.84770130  1  0  0.107078  0  0.982495  0  0  0.114576  0  1.047952  0  0  0.11653  0  1.048422  0  0.129326  0  0.119018  0.113108  0  1.04777  0
H  H54  1  0.89200670  0.43062874  0.34770176  1  0  0.107107  0  0.982483  0  0  0.114601  0  1.047945  0  0  0.116555  0  1.048415  0  0.129343  0  0.119026  0.113133  0  1.047762  0
H  H55  1  0.39201184  0.06937316  0.15229862  1  0  0.107136  0  0.982405  0  0  0.114632  0  1.047857  0  0  0.116586  0  1.048325  0  0.129293  0  0.119053  0.113166  0  1.047674  0
H  H56  1  0.40550030  0.34380224  0.85603840  1  0  0.288392  0  0.930555  0  0  0.269989  0  0.994204  0  0  0.276125  0  0.991063  0  0.506685  0  0.319707  0.265652  0  0.996479  0
H  H57  1  0.90550175  0.15619966  0.64396126  1  0  0.288435  0  0.930584  0  0  0.269977  0  0.994248  0  0  0.276112  0  0.991108  0  0.506667  0  0.319732  0.265637  0  0.996523  0
H  H58  1  0.59449976  0.65619871  0.14396217  1  0  0.288405  0  0.93055  0  0  0.269954  0  0.994214  0  0  0.27609  0  0.991074  0  0.506673  0  0.319726  0.265617  0  0.996489  0
H  H59  1  0.09449926  0.84380225  0.35603793  1  0  0.288421  0  0.930566  0  0  0.269963  0  0.994236  0  0  0.276098  0  0.991096  0  0.506677  0  0.319722  0.265624  0  0.996511  0
C  C60  1  0.57659707  0.62614492  0.32691231  1  0  -0.051103  0  3.844394  0  0  -0.073528  0  4.100915  0  0  -0.072979  0  4.121746  0  0.320156  0  -0.031893  -0.073709  0  4.086446  0
C  C61  1  0.07659845  0.87385130  0.17308818  1  0  -0.05103  0  3.844514  0  0  -0.073425  0  4.101019  0  0  -0.072898  0  4.121832  0  0.32017  0  -0.031857  -0.073608  0  4.086553  0
C  C62  1  0.42340300  0.37385604  0.67308898  1  0  -0.051116  0  3.844374  0  0  -0.073568  0  4.100875  0  0  -0.073018  0  4.121709  0  0.319978  0  -0.031888  -0.073749  0  4.086408  0
C  C63  1  0.92340350  0.12614397  0.82691055  1  0  -0.051095  0  3.844375  0  0  -0.073521  0  4.100891  0  0  -0.072976  0  4.121716  0  0.319985  0  -0.031897  -0.073703  0  4.086425  0
C  C64  1  0.51085059  0.14059924  0.32599144  1  0  -0.058359  0  3.840128  0  0  -0.08194  0  4.096735  0  0  -0.081382  0  4.117114  0  0.287556  0  -0.032457  -0.082057  0  4.082387  0
C  C65  1  0.01085009  0.35940172  0.17400816  1  0  -0.058394  0  3.840043  0  0  -0.081977  0  4.096655  0  0  -0.081418  0  4.11703  0  0.287466  0  -0.032475  -0.082097  0  4.082316  0
C  C66  1  0.48914759  0.85939698  0.67400520  1  0  -0.058383  0  3.840087  0  0  -0.081953  0  4.096678  0  0  -0.081393  0  4.117053  0  0.287505  0  -0.032495  -0.08207  0  4.08233  0
C  C67  1  0.98914433  0.64060304  0.82599339  1  0  -0.058402  0  3.840092  0  0  -0.081971  0  4.096683  0  0  -0.081413  0  4.11706  0  0.287566  0  -0.032487  -0.082098  0  4.082366  0
C  C68  1  0.22452142  0.51910514  0.99357872  1  0  -0.025589  0  3.78647  0  0  -0.053099  0  4.049618  0  0  -0.052921  0  4.070311  0  0.430443  0  -0.009219  -0.053229  0  4.035548  0
C  C69  1  0.72452192  0.98089772  0.50642224  1  0  -0.02559  0  3.786568  0  0  -0.053087  0  4.049717  0  0  -0.052911  0  4.070412  0  0.430437  0  -0.009198  -0.053219  0  4.035647  0
C  C70  1  0.77547864  0.48089582  0.00642185  1  0  -0.025512  0  3.7865  0  0  -0.053012  0  4.049641  0  0  -0.052834  0  4.070335  0  0.430352  0  -0.009178  -0.053141  0  4.035572  0
C  C71  1  0.27547908  0.01910323  0.49357761  1  0  -0.025549  0  3.786519  0  0  -0.053051  0  4.049671  0  0  -0.052873  0  4.070365  0  0.430447  0  -0.009185  -0.053182  0  4.035604  0
C  C72  1  0.50920844  0.78753048  0.25742895  1  0  0.166489  0  3.85724  0  0  0.125016  0  4.127737  0  0  0.136083  0  4.14133  0  0.89294  0  0.097637  0.11773  0  4.118322  0
C  C73  1  0.00920699  0.71246763  0.24257383  1  0  0.166588  0  3.857097  0  0  0.125124  0  4.127605  0  0  0.136191  0  4.141195  0  0.893258  0  0.097671  0.117839  0  4.118191  0
C  C74  1  0.49079445  0.21246763  0.74256926  1  0  0.166496  0  3.857202  0  0  0.124983  0  4.127709  0  0  0.136049  0  4.141304  0  0.892947  0  0.097654  0.117698  0  4.118293  0
C  C75  1  0.99079496  0.28753238  0.75743027  1  0  0.166519  0  3.857094  0  0  0.125034  0  4.127592  0  0  0.1361  0  4.141186  0  0.892988  0  0.097664  0.117749  0  4.118175  0
C  C76  1  0.16836235  0.57092058  0.58941446  1  0  -0.029411  0  3.709573  0  0  -0.066579  0  3.970729  0  0  -0.065225  0  3.990812  0  0.253004  0  -0.002858  -0.067498  0  3.957321  0
C  C77  1  0.66836191  0.92908038  0.91058564  1  0  -0.029347  0  3.709544  0  0  -0.06651  0  3.970697  0  0  -0.065158  0  3.990784  0  0.252995  0  -0.00286  -0.067427  0  3.95729  0
C  C78  1  0.83163678  0.42908037  0.41058611  1  0  -0.029397  0  3.709632  0  0  -0.066564  0  3.97078  0  0  -0.065212  0  3.990866  0  0.253009  0  -0.002849  -0.067481  0  3.957372  0
C  C79  1  0.33163721  0.07092058  0.08941637  1  0  -0.029427  0  3.709399  0  0  -0.06659  0  3.970568  0  0  -0.065234  0  3.990646  0  0.252965  0  -0.002867  -0.067511  0  3.957164  0
C  C80  1  0.16606766  0.50571627  0.49892179  1  0  -0.024489  0  3.800545  0  0  -0.047523  0  4.057706  0  0  -0.047084  0  4.078423  0  0.410556  0  -0.010291  -0.047839  0  4.043657  0
C  C81  1  0.66606816  0.99428469  0.00107831  1  0  -0.024591  0  3.800502  0  0  -0.047636  0  4.05768  0  0  -0.047196  0  4.078398  0  0.410564  0  -0.010313  -0.04795  0  4.04363  0
C  C82  1  0.83393240  0.49428374  0.50107871  1  0  -0.024531  0  3.800619  0  0  -0.047569  0  4.057781  0  0  -0.047129  0  4.0785  0  0.41056  0  -0.01031  -0.047884  0  4.043732  0
C  C83  1  0.33393096  0.00571532  0.99892363  1  0  -0.024566  0  3.800485  0  0  -0.047593  0  4.057652  0  0  -0.047154  0  4.078372  0  0.410571  0  -0.01031  -0.047907  0  4.043605  0
C  C84  1  0.55690909  0.26742251  0.21778541  1  0  0.183834  0  3.839142  0  0  0.137335  0  4.117743  0  0  0.148618  0  4.131129  0  0.901572  0  0.100941  0.129896  0  4.108562  0
C  C85  1  0.05690765  0.23257654  0.28221477  1  0  0.183858  0  3.839249  0  0  0.137304  0  4.117873  0  0  0.148588  0  4.131258  0  0.902025  0  0.100924  0.129866  0  4.10869  0
C  C86  1  0.44309097  0.73257750  0.78221509  1  0  0.18389  0  3.83918  0  0  0.137367  0  4.117788  0  0  0.148652  0  4.131175  0  0.901628  0  0.10096  0.129928  0  4.108606  0
C  C87  1  0.94309053  0.76742346  0.71778429  1  0  0.183838  0  3.839158  0  0  0.137283  0  4.117778  0  0  0.148565  0  4.131167  0  0.90157  0  0.100935  0.129846  0  4.108595  0
C  C88  1  0.32663825  0.63249970  0.50092962  1  0  0.222668  0  3.690052  0  0  0.165216  0  3.96288  0  0  0.178894  0  3.974466  0  0.964986  0  0.145585  0.156266  0  3.95481  0
C  C89  1  0.82663875  0.86750032  0.99906969  1  0  0.222661  0  3.690101  0  0  0.165232  0  3.962927  0  0  0.178912  0  3.974514  0  0.964978  0  0.145567  0.156282  0  3.954856  0
C  C90  1  0.67336276  0.36750031  0.49907016  1  0  0.222643  0  3.690079  0  0  0.165186  0  3.962901  0  0  0.178865  0  3.974489  0  0.964986  0  0.145579  0.156236  0  3.954831  0
C  C91  1  0.17336414  0.13250064  0.00093016  1  0  0.222768  0  3.690096  0  0  0.16532  0  3.962903  0  0  0.178999  0  3.974489  0  0.964961  0  0.14563  0.15637  0  3.954831  0
C  C92  1  0.25517059  0.47039402  0.90125292  1  0  -0.02454  0  3.718998  0  0  -0.061109  0  3.981044  0  0  -0.059909  0  4.001406  0  0.268183  0  -0.002161  -0.06171  0  3.967324  0
C  C93  1  0.75517204  0.02960883  0.59874753  1  0  -0.024454  0  3.718932  0  0  -0.061045  0  3.980974  0  0  -0.059845  0  4.001337  0  0.26798  0  -0.002129  -0.061652  0  3.967255  0
C  C94  1  0.74482947  0.52960693  0.09874693  1  0  -0.024507  0  3.718966  0  0  -0.061087  0  3.981003  0  0  -0.059887  0  4.001365  0  0.268282  0  -0.002159  -0.06169  0  3.967286  0
C  C95  1  0.24482991  0.97039308  0.40125239  1  0  -0.024533  0  3.719045  0  0  -0.061145  0  3.981084  0  0  -0.059945  0  4.001445  0  0.268253  0  -0.002176  -0.06175  0  3.967366  0
C  C96  1  0.38485849  0.39504180  0.00663162  1  0  0.214969  0  3.71936  0  0  0.157027  0  3.996439  0  0  0.170515  0  4.008077  0  0.9833  0  0.140807  0.148316  0  3.988166  0
C  C97  1  0.88485993  0.10495821  0.49336648  1  0  0.215118  0  3.719352  0  0  0.157124  0  3.996431  0  0  0.170616  0  4.008069  0  0.983283  0  0.140848  0.14841  0  3.988157  0
C  C98  1  0.61514064  0.60495916  0.99336751  1  0  0.215064  0  3.719396  0  0  0.157074  0  3.996478  0  0  0.170566  0  4.008117  0  0.983302  0  0.14081  0.148363  0  3.988207  0
C  C99  1  0.11514202  0.89504275  0.50663194  1  0  0.215065  0  3.719359  0  0  0.157079  0  3.99643  0  0  0.170569  0  4.008069  0  0.983334  0  0.140812  0.148366  0  3.988157  0
C  C100  1  0.66791747  0.71973037  0.33471713  1  0  -0.043334  0  3.851469  0  0  -0.06754  0  4.107388  0  0  -0.067115  0  4.128781  0  0.31301  0  -0.028981  -0.0674  0  4.092665  0
C  C101  1  0.16791603  0.78026490  0.16528330  1  0  -0.043328  0  3.851429  0  0  -0.067523  0  4.107325  0  0  -0.067109  0  4.128715  0  0.312888  0  -0.028988  -0.067382  0  4.092605  0
C  C102  1  0.33208353  0.28026964  0.66528338  1  0  -0.043335  0  3.851414  0  0  -0.067517  0  4.107326  0  0  -0.067107  0  4.128709  0  0.313006  0  -0.028984  -0.067379  0  4.092604  0
C  C103  1  0.83208310  0.21972942  0.83471609  1  0  -0.043413  0  3.851406  0  0  -0.067618  0  4.107326  0  0  -0.067191  0  4.128719  0  0.31302  0  -0.029014  -0.067479  0  4.092606  0
C  C104  1  0.41813850  0.23226725  0.32523474  1  0  -0.045011  0  3.844357  0  0  -0.068681  0  4.09975  0  0  -0.067832  0  4.120497  0  0.347936  0  -0.027375  -0.068857  0  4.08551  0
C  C105  1  0.91813712  0.26773465  0.17476421  1  0  -0.045024  0  3.844254  0  0  -0.068683  0  4.099645  0  0  -0.067832  0  4.120389  0  0.347916  0  -0.027366  -0.068859  0  4.085405  0
C  C106  1  0.58186251  0.76773276  0.67476505  1  0  -0.045126  0  3.844345  0  0  -0.068809  0  4.099746  0  0  -0.067956  0  4.120488  0  0.347876  0  -0.027412  -0.068984  0  4.085505  0
C  C107  1  0.08186106  0.73226820  0.82523434  1  0  -0.04512  0  3.844281  0  0  -0.068797  0  4.099675  0  0  -0.067945  0  4.12042  0  0.347923  0  -0.02739  -0.068974  0  4.085431  0
N  N108  1  0.60073223  0.16322236  0.25717241  1  0  -0.514154  0  3.165077  0  0  -0.440502  0  3.428265  0  0  -0.456979  0  3.44336  0  -1.263527  0  -0.439132  -0.428737  0  3.417666  0
N  N109  1  0.10073361  0.33677669  0.24282849  1  0  -0.514148  0  3.165037  0  0  -0.440484  0  3.428201  0  0  -0.456962  0  3.443295  0  -1.263453  0  -0.43913  -0.428719  0  3.417599  0
N  N110  1  0.39926407  0.83677670  0.74282875  1  0  -0.51419  0  3.165013  0  0  -0.440518  0  3.428162  0  0  -0.456998  0  3.443257  0  -1.263493  0  -0.439124  -0.428751  0  3.417561  0
N  N111  1  0.89926551  0.66322426  0.75717136  1  0  -0.514109  0  3.1651  0  0  -0.440432  0  3.428253  0  0  -0.45691  0  3.44335  0  -1.263557  0  -0.439103  -0.428669  0  3.417649  0
N  N112  1  0.26505836  0.54492747  0.44390461  1  0  -0.451212  0  3.128542  0  0  -0.386443  0  3.399509  0  0  -0.402881  0  3.415278  0  -1.235058  0  -0.411402  -0.375138  0  3.388551  0
N  N113  1  0.76505887  0.95507349  0.05609478  1  0  -0.451178  0  3.128493  0  0  -0.386403  0  3.399442  0  0  -0.402841  0  3.415212  0  -1.235053  0  -0.411365  -0.375097  0  3.388485  0
N  N114  1  0.73494170  0.45507254  0.55609518  1  0  -0.451197  0  3.128591  0  0  -0.38642  0  3.399556  0  0  -0.402861  0  3.415326  0  -1.235075  0  -0.411402  -0.375115  0  3.388597  0
N  N115  1  0.23494214  0.04492557  0.94390638  1  0  -0.451254  0  3.128635  0  0  -0.386483  0  3.399597  0  0  -0.402922  0  3.415367  0  -1.235025  0  -0.411423  -0.375178  0  3.388639  0
N  N116  1  0.27101777  0.65033919  0.58897331  1  0  -0.27993  0  3.498186  0  0  -0.212681  0  3.732986  0  0  -0.228643  0  3.749969  0  -1.290436  0  -0.377099  -0.201964  0  3.721546  0
N  N117  1  0.77101827  0.84966083  0.91102672  1  0  -0.279976  0  3.498206  0  0  -0.212725  0  3.732995  0  0  -0.228684  0  3.749969  0  -1.290434  0  -0.3771  -0.202008  0  3.721553  0
N  N118  1  0.72898136  0.34965987  0.41102712  1  0  -0.279922  0  3.498244  0  0  -0.212658  0  3.733024  0  0  -0.228616  0  3.749994  0  -1.290448  0  -0.377082  -0.201943  0  3.721583  0
N  N119  1  0.22898368  0.15034013  0.08897529  1  0  -0.279895  0  3.498136  0  0  -0.212663  0  3.732945  0  0  -0.228624  0  3.74993  0  -1.290425  0  -0.377094  -0.201947  0  3.721505  0
N  N120  1  0.47476837  0.66922705  0.27709106  1  0  -0.504036  0  3.171438  0  0  -0.433368  0  3.436312  0  0  -0.449884  0  3.451948  0  -1.266677  0  -0.448343  -0.421671  0  3.425558  0
N  N121  1  0.97476699  0.83077201  0.22291035  1  0  -0.504069  0  3.171353  0  0  -0.433401  0  3.436217  0  0  -0.449919  0  3.451861  0  -1.26666  0  -0.448342  -0.421703  0  3.425462  0
N  N122  1  0.52523263  0.33077296  0.72290800  1  0  -0.504084  0  3.171465  0  0  -0.433418  0  3.436379  0  0  -0.449936  0  3.452015  0  -1.266685  0  -0.448393  -0.421721  0  3.425624  0
N  N123  1  0.02523307  0.16922705  0.77709225  1  0  -0.504097  0  3.17145  0  0  -0.43343  0  3.436334  0  0  -0.449947  0  3.45197  0  -1.266702  0  -0.448383  -0.421733  0  3.425579  0
N  N124  1  0.62519978  0.82284514  0.29000085  1  0  -0.491287  0  3.173636  0  0  -0.419674  0  3.438024  0  0  -0.43647  0  3.454837  0  -1.251276  0  -0.446687  -0.407694  0  3.425962  0
N  N125  1  0.12519833  0.67715108  0.21000036  1  0  -0.491427  0  3.173679  0  0  -0.419818  0  3.438074  0  0  -0.436616  0  3.454891  0  -1.251717  0  -0.446722  -0.407833  0  3.425999  0
N  N126  1  0.37480123  0.17715392  0.70999814  1  0  -0.491265  0  3.173617  0  0  -0.419646  0  3.438012  0  0  -0.436445  0  3.454834  0  -1.251263  0  -0.446655  -0.407667  0  3.425952  0
N  N127  1  0.87480079  0.32284609  0.79000139  1  0  -0.491255  0  3.173567  0  0  -0.419632  0  3.437952  0  0  -0.43643  0  3.454765  0  -1.251236  0  -0.446639  -0.407653  0  3.425889  0
N  N128  1  0.44743082  0.31329779  0.25599603  1  0  -0.487336  0  3.158168  0  0  -0.417864  0  3.428943  0  0  -0.434283  0  3.445224  0  -1.28239  0  -0.441004  -0.406421  0  3.417532  0
N  N129  1  0.94743132  0.18670221  0.24400350  1  0  -0.487269  0  3.158149  0  0  -0.417802  0  3.428941  0  0  -0.434221  0  3.445221  0  -1.282365  0  -0.440969  -0.406359  0  3.41753  0
N  N130  1  0.55256925  0.68670317  0.74400598  1  0  -0.487243  0  3.157988  0  0  -0.417761  0  3.428763  0  0  -0.434182  0  3.445043  0  -1.28241  0  -0.440962  -0.406318  0  3.417351  0
N  N131  1  0.05256968  0.81329684  0.75599406  1  0  -0.487229  0  3.157989  0  0  -0.417749  0  3.428776  0  0  -0.434168  0  3.445057  0  -1.282406  0  -0.440974  -0.406306  0  3.417364  0
N  N132  1  0.30623748  0.47141109  0.05919293  1  0  -0.448059  0  3.132904  0  0  -0.387219  0  3.413319  0  0  -0.403129  0  3.428942  0  -1.237297  0  -0.409424  -0.376229  0  3.402366  0
N  N133  1  0.80623798  0.02858891  0.44080660  1  0  -0.448105  0  3.133038  0  0  -0.387272  0  3.413472  0  0  -0.403181  0  3.429096  0  -1.237385  0  -0.409461  -0.376281  0  3.402518  0
N  N134  1  0.69376070  0.52858892  0.94080613  1  0  -0.448159  0  3.132908  0  0  -0.387318  0  3.41334  0  0  -0.40323  0  3.428964  0  -1.237297  0  -0.409448  -0.376327  0  3.402386  0
N  N135  1  0.19376302  0.97141109  0.55919318  1  0  -0.448103  0  3.132921  0  0  -0.387265  0  3.41335  0  0  -0.403174  0  3.428973  0  -1.237385  0  -0.409442  -0.376273  0  3.402397  0
N  N136  1  0.35683168  0.39200198  0.91132612  1  0  -0.278607  0  3.49348  0  0  -0.210545  0  3.723271  0  0  -0.226154  0  3.740477  0  -1.297601  0  -0.375752  -0.200063  0  3.711403  0
N  N137  1  0.85683313  0.10799992  0.58867282  1  0  -0.278767  0  3.493475  0  0  -0.210612  0  3.723325  0  0  -0.226225  0  3.740531  0  -1.297276  0  -0.375792  -0.200118  0  3.711451  0
N  N138  1  0.64316744  0.60799898  0.08867301  1  0  -0.278657  0  3.493427  0  0  -0.210524  0  3.723281  0  0  -0.226138  0  3.740488  0  -1.297581  0  -0.375758  -0.200043  0  3.711415  0
N  N139  1  0.14316882  0.89200103  0.41132631  1  0  -0.278714  0  3.493494  0  0  -0.21056  0  3.723328  0  0  -0.226172  0  3.740535  0  -1.297594  0  -0.375777  -0.200072  0  3.711457  0
