# generated using pymatgen
data_AgH8C6S2O2F3
_symmetry_space_group_name_H-M   'P 1'
_cell_length_a   6.90637783
_cell_length_b   8.25063061
_cell_length_c   17.26258893
_cell_angle_alpha   90.00135236
_cell_angle_beta   90.00003983
_cell_angle_gamma   89.99992778
_symmetry_Int_Tables_number   1
_chemical_formula_structural   AgH8C6S2O2F3
_chemical_formula_sum   'Ag4 H32 C24 S8 O8 F12'
_cell_volume   983.65636461
_cell_formula_units_Z   4
loop_
 _symmetry_equiv_pos_site_id
 _symmetry_equiv_pos_as_xyz
  1  'x, y, z'
loop_
 _atom_site_type_symbol
 _atom_site_label
 _atom_site_symmetry_multiplicity
 _atom_site_fract_x
 _atom_site_fract_y
 _atom_site_fract_z
 _atom_site_occupancy
 _atom_site_hle17_bader_spin_density
 _atom_site_hle17_ddec_charge
 _atom_site_hle17_ddec_spin_density
 _atom_site_hle17_ddec_sum_bond_order
 _atom_site_hle17_magmom
 _atom_site_hse06_10hf_bader_spin_density
 _atom_site_hse06_10hf_ddec_charge
 _atom_site_hse06_10hf_ddec_spin_density
 _atom_site_hse06_10hf_ddec_sum_bond_order
 _atom_site_hse06_10hf_magmom
 _atom_site_hse06_bader_spin_density
 _atom_site_hse06_ddec_charge
 _atom_site_hse06_ddec_spin_density
 _atom_site_hse06_ddec_sum_bond_order
 _atom_site_hse06_magmom
 _atom_site_pbe_bader_spin_density
 _atom_site_pbe_cm5_charge
 _atom_site_pbe_ddec_charge
 _atom_site_pbe_ddec_spin_density
 _atom_site_pbe_ddec_sum_bond_order
 _atom_site_pbe_magmom
Ag  Ag0  1  0.27679898  0.57093874  0.22481948  1  0  0.387868  0  1.628372  0  0  0.266589  0  2.103342  0  0  0.291353  0  2.058579  0  0  0.362604  0.249183  0  2.134344  0
Ag  Ag1  1  0.22320124  0.42905772  0.72482478  1  0  0.387859  0  1.628462  0  0  0.266624  0  2.103367  0  0  0.291402  0  2.058658  0  0  0.362594  0.249216  0  2.134368  0
Ag  Ag2  1  0.77679934  0.92905925  0.77517471  1  0  0.387863  0  1.628486  0  0  0.266625  0  2.103382  0  0  0.291404  0  2.058665  0  0  0.362621  0.249218  0  2.134388  0
Ag  Ag3  1  0.72320418  0.07093555  0.27517707  1  0  0.387888  0  1.62846  0  0  0.266627  0  2.103417  0  0  0.291395  0  2.058713  0  0  0.362613  0.249199  0  2.134499  0
H  H4  1  0.77827037  0.47556910  0.28622058  1  0  0.143482  0  0.934719  0  0  0.160271  0  0.98997  0  0  0.161307  0  0.990601  0  0  0.110813  0.159373  0  0.989779  0
H  H5  1  0.72173751  0.52442987  0.78621305  1  0  0.143548  0  0.934782  0  0  0.160421  0  0.989939  0  0  0.161458  0  0.990567  0  0  0.110922  0.159525  0  0.989747  0
H  H6  1  0.27826224  0.02442895  0.71377724  1  0  0.143501  0  0.93469  0  0  0.160303  0  0.989945  0  0  0.161351  0  0.990563  0  0  0.110838  0.159405  0  0.989751  0
H  H7  1  0.22174375  0.97556211  0.21378459  1  0  0.143494  0  0.934805  0  0  0.16037  0  0.989992  0  0  0.161411  0  0.99062  0  0  0.110911  0.159475  0  0.989794  0
H  H8  1  0.93670512  0.51729631  0.36688544  1  0  0.126994  0  0.927832  0  0  0.13779  0  0.991027  0  0  0.139535  0  0.989868  0  0  0.102207  0.136457  0  0.991949  0
H  H9  1  0.56331014  0.48270422  0.86687857  1  0  0.127069  0  0.927715  0  0  0.137869  0  0.990929  0  0  0.139665  0  0.989677  0  0  0.102243  0.136538  0  0.991856  0
H  H10  1  0.43669904  0.98270272  0.63311342  1  0  0.127001  0  0.927795  0  0  0.137805  0  0.990988  0  0  0.13954  0  0.989869  0  0  0.102202  0.136433  0  0.992009  0
H  H11  1  0.06330680  0.01729769  0.13312209  1  0  0.12702  0  0.927754  0  0  0.13783  0  0.990966  0  0  0.139565  0  0.98983  0  0  0.102224  0.136496  0  0.991898  0
H  H12  1  0.98339991  0.29655114  0.48151533  1  0  0.092842  0  0.950121  0  0  0.109042  0  1.013182  0  0  0.109576  0  1.013979  0  0  0.091234  0.108569  0  1.01274  0
H  H13  1  0.51662279  0.70345021  0.98151267  1  0  0.092861  0  0.949923  0  0  0.109056  0  1.013052  0  0  0.109673  0  1.01373  0  0  0.091219  0.108589  0  1.012615  0
H  H14  1  0.48339406  0.20345397  0.51848138  1  0  0.092872  0  0.950054  0  0  0.10911  0  1.013078  0  0  0.109642  0  1.013877  0  0  0.091258  0.108546  0  1.012756  0
H  H15  1  0.01661158  0.79654320  0.01848029  1  0  0.0928  0  0.950028  0  0  0.109029  0  1.013104  0  0  0.109545  0  1.013928  0  0  0.09125  0.108559  0  1.012671  0
H  H16  1  0.87710845  0.10099030  0.47795623  1  0  0.108381  0  0.933458  0  0  0.122901  0  0.996398  0  0  0.124485  0  0.995347  0  0  0.098354  0.121584  0  0.997409  0
H  H17  1  0.62290990  0.89901208  0.97795522  1  0  0.108293  0  0.933623  0  0  0.122939  0  0.996427  0  0  0.124513  0  0.995388  0  0  0.098346  0.121663  0  0.997365  0
H  H18  1  0.37710665  0.39901371  0.52204451  1  0  0.108366  0  0.933452  0  0  0.122918  0  0.99637  0  0  0.124498  0  0.995323  0  0  0.098343  0.121657  0  0.997276  0
H  H19  1  0.12289611  0.60098242  0.02204355  1  0  0.108304  0  0.93345  0  0  0.122882  0  0.996354  0  0  0.124516  0  0.995217  0  0  0.098348  0.121621  0  0.997273  0
H  H20  1  0.07671634  0.02570275  0.36433195  1  0  0.072491  0  0.953301  0  0  0.087152  0  1.023168  0  0  0.088006  0  1.023051  0  0  0.082456  0.086436  0  1.023353  0
H  H21  1  0.42328846  0.97429696  0.86433651  1  0  0.072439  0  0.953327  0  0  0.087073  0  1.02324  0  0  0.087919  0  1.023136  0  0  0.082473  0.086363  0  1.023427  0
H  H22  1  0.57671060  0.47429430  0.63566871  1  0  0.072462  0  0.953256  0  0  0.087115  0  1.023146  0  0  0.087972  0  1.023033  0  0  0.082449  0.086404  0  1.023331  0
H  H23  1  0.92328688  0.52570815  0.13566351  1  0  0.072421  0  0.953255  0  0  0.087082  0  1.023109  0  0  0.087922  0  1.023028  0  0  0.082454  0.086372  0  1.023299  0
H  H24  1  0.22248887  0.08497403  0.44291148  1  0  0.09049  0  0.933113  0  0  0.105647  0  0.99697  0  0  0.106111  0  0.997677  0  0  0.092559  0.105156  0  0.996688  0
H  H25  1  0.27752186  0.91502229  0.94291591  1  0  0.090487  0  0.933073  0  0  0.105654  0  0.996913  0  0  0.106107  0  0.997641  0  0  0.092569  0.105232  0  0.996534  0
H  H26  1  0.72248888  0.41502894  0.55709037  1  0  0.09046  0  0.933048  0  0  0.10562  0  0.996911  0  0  0.106085  0  0.997627  0  0  0.092554  0.105199  0  0.996523  0
H  H27  1  0.77751136  0.58497569  0.05708581  1  0  0.090478  0  0.933123  0  0  0.105622  0  0.996972  0  0  0.106151  0  0.997588  0  0  0.092539  0.105204  0  0.996587  0
H  H28  1  0.34821739  0.19848953  0.32048033  1  0  0.101064  0  0.945616  0  0  0.116109  0  1.012784  0  0  0.117812  0  1.011334  0  0  0.094824  0.114738  0  1.014051  0
H  H29  1  0.15179023  0.80150801  0.82048170  1  0  0.101064  0  0.945677  0  0  0.116066  0  1.01288  0  0  0.117769  0  1.011434  0  0  0.094827  0.114698  0  1.01414  0
H  H30  1  0.84821344  0.30150603  0.67951982  1  0  0.101101  0  0.94565  0  0  0.116121  0  1.012847  0  0  0.117823  0  1.011395  0  0  0.09484  0.114755  0  1.014106  0
H  H31  1  0.65178846  0.69849131  0.17951766  1  0  0.101061  0  0.945692  0  0  0.116104  0  1.01286  0  0  0.117798  0  1.01143  0  0  0.094851  0.114736  0  1.014118  0
H  H32  1  0.27908412  0.35838071  0.38320240  1  0  0.105021  0  0.941885  0  0  0.119445  0  1.00454  0  0  0.120872  0  1.004498  0  0  0.0963  0.118356  0  1.004645  0
H  H33  1  0.22092506  0.64161750  0.88320026  1  0  0.105074  0  0.941835  0  0  0.119488  0  1.004471  0  0  0.120918  0  1.004437  0  0  0.096316  0.118397  0  1.004582  0
H  H34  1  0.77907596  0.14161734  0.61679715  1  0  0.105034  0  0.941855  0  0  0.119463  0  1.004499  0  0  0.120889  0  1.004455  0  0  0.096299  0.118366  0  1.004635  0
H  H35  1  0.72092148  0.85838538  0.11680086  1  0  0.105017  0  0.941851  0  0  0.119438  0  1.004519  0  0  0.120855  0  1.004499  0  0  0.096305  0.118348  0  1.004627  0
C  C36  1  0.88192246  0.42356556  0.32741169  1  0  -0.211429  0  3.615856  0  0  -0.247732  0  3.884986  0  0  -0.246924  0  3.895277  0  0  -0.14404  -0.248283  0  3.878084  0
C  C37  1  0.61808694  0.57643787  0.82740588  1  0  -0.211612  0  3.615852  0  0  -0.247994  0  3.884968  0  0  -0.24718  0  3.895253  0  0  -0.144193  -0.24855  0  3.878089  0
C  C38  1  0.38191708  0.07643360  0.67258790  1  0  -0.211385  0  3.615677  0  0  -0.247773  0  3.884957  0  0  -0.246983  0  3.895249  0  0  -0.144032  -0.24834  0  3.878102  0
C  C39  1  0.11809029  0.92356149  0.17259289  1  0  -0.211476  0  3.615878  0  0  -0.247893  0  3.884992  0  0  -0.247105  0  3.895309  0  0  -0.144143  -0.248447  0  3.878107  0
C  C40  1  0.94374820  0.19639544  0.44266949  1  0  -0.157493  0  3.643903  0  0  -0.199948  0  3.915881  0  0  -0.199968  0  3.929199  0  0  -0.155643  -0.199891  0  3.90687  0
C  C41  1  0.55626864  0.80361005  0.94266738  1  0  -0.157353  0  3.643688  0  0  -0.200055  0  3.915906  0  0  -0.200096  0  3.929256  0  0  -0.155618  -0.199965  0  3.906841  0
C  C42  1  0.44374516  0.30360730  0.55733011  1  0  -0.157515  0  3.643692  0  0  -0.20006  0  3.91578  0  0  -0.200075  0  3.929102  0  0  -0.155648  -0.200004  0  3.906794  0
C  C43  1  0.05625766  0.69639179  0.05732848  1  0  -0.157286  0  3.643534  0  0  -0.199924  0  3.915653  0  0  -0.199958  0  3.929012  0  0  -0.155593  -0.199841  0  3.906587  0
C  C44  1  0.11916402  0.13078890  0.39965286  1  0  -0.101312  0  3.726675  0  0  -0.142253  0  3.986649  0  0  -0.143817  0  4.003205  0  0  -0.174249  -0.140954  0  3.975148  0
C  C45  1  0.38084375  0.86920770  0.89965390  1  0  -0.101361  0  3.726773  0  0  -0.142267  0  3.986783  0  0  -0.14384  0  4.003364  0  0  -0.174343  -0.140948  0  3.97523  0
C  C46  1  0.61916272  0.36920932  0.60034781  1  0  -0.101288  0  3.726597  0  0  -0.142256  0  3.986671  0  0  -0.143788  0  4.00314  0  0  -0.174292  -0.140943  0  3.975112  0
C  C47  1  0.88083615  0.63079502  0.10034436  1  0  -0.101364  0  3.72667  0  0  -0.142254  0  3.986677  0  0  -0.143791  0  4.003155  0  0  -0.174288  -0.140941  0  3.975128  0
C  C48  1  0.22407705  0.25483268  0.34975086  1  0  -0.143087  0  3.60989  0  0  -0.179085  0  3.865568  0  0  -0.179651  0  3.879176  0  0  -0.153758  -0.178579  0  3.856187  0
C  C49  1  0.27593352  0.74516510  0.84974990  1  0  -0.14317  0  3.610073  0  0  -0.179087  0  3.865669  0  0  -0.179672  0  3.879303  0  0  -0.153819  -0.178568  0  3.856286  0
C  C50  1  0.72407168  0.24516543  0.65024926  1  0  -0.143147  0  3.610125  0  0  -0.179081  0  3.865684  0  0  -0.179638  0  3.879291  0  0  -0.153774  -0.178572  0  3.856306  0
C  C51  1  0.77593017  0.75483410  0.15025008  1  0  -0.143082  0  3.610114  0  0  -0.17909  0  3.86577  0  0  -0.179682  0  3.87944  0  0  -0.153819  -0.178565  0  3.856376  0
C  C52  1  0.52411837  0.25909378  0.14398168  1  0  0.482122  0  4.047069  0  0  0.434247  0  4.341247  0  0  0.463714  0  4.337073  0  0  0.181253  0.414263  0  4.343525  0
C  C53  1  0.97588202  0.74093089  0.64396856  1  0  0.482109  0  4.047288  0  0  0.434233  0  4.341477  0  0  0.463686  0  4.33736  0  0  0.181314  0.414243  0  4.343767  0
C  C54  1  0.02411306  0.24090817  0.85602302  1  0  0.482382  0  4.046751  0  0  0.434374  0  4.341218  0  0  0.463801  0  4.337119  0  0  0.181274  0.414358  0  4.34355  0
C  C55  1  0.47586857  0.75906689  0.35603032  1  0  0.481845  0  4.047097  0  0  0.433952  0  4.341234  0  0  0.463396  0  4.33712  0  0  0.181128  0.413881  0  4.343759  0
C  C56  1  0.39953054  0.28855158  0.06968069  1  0  0.667018  0  3.63185  0  0  0.596226  0  3.977723  0  0  0.624173  0  3.94936  0  0  0.28982  0.576337  0  3.997832  0
C  C57  1  0.10044913  0.71145297  0.56967524  1  0  0.666713  0  3.632424  0  0  0.596  0  3.978128  0  0  0.623668  0  3.95029  0  0  0.289718  0.576076  0  3.998291  0
C  C58  1  0.89953441  0.21145484  0.93032238  1  0  0.666756  0  3.632386  0  0  0.595887  0  3.978444  0  0  0.623603  0  3.950521  0  0  0.289715  0.576003  0  3.99856  0
C  C59  1  0.60045345  0.78854156  0.43032643  1  0  0.666812  0  3.632174  0  0  0.59621  0  3.977751  0  0  0.623922  0  3.949825  0  0  0.289707  0.576033  0  3.998438  0
S  S60  1  0.07631495  0.33545011  0.27132679  1  0  0.033957  0  2.6635  0  0  0.069445  0  3.076937  0  0  0.063531  0  3.067723  0  0  -0.01256  0.073431  0  3.083382  0
S  S61  1  0.42368680  0.66454622  0.77132322  1  0  0.034047  0  2.663515  0  0  0.069506  0  3.076957  0  0  0.063602  0  3.067722  0  0  -0.01253  0.073491  0  3.083397  0
S  S62  1  0.57631274  0.16454452  0.72867387  1  0  0.03398  0  2.663486  0  0  0.069475  0  3.076932  0  0  0.063578  0  3.067695  0  0  -0.012555  0.073459  0  3.083382  0
S  S63  1  0.92369214  0.83544919  0.22867622  1  0  0.033985  0  2.663543  0  0  0.069484  0  3.077017  0  0  0.063572  0  3.067802  0  0  -0.012543  0.073469  0  3.083453  0
S  S64  1  0.74929883  0.27146100  0.38106093  1  0  0.077448  0  2.622848  0  0  0.10751  0  3.039123  0  0  0.101928  0  3.031213  0  0  0.003743  0.111125  0  3.044784  0
S  S65  1  0.75071211  0.72854144  0.88105398  1  0  0.077513  0  2.622773  0  0  0.107611  0  3.039157  0  0  0.102004  0  3.031244  0  0  0.003829  0.111283  0  3.044706  0
S  S66  1  0.24929602  0.22853951  0.61893919  1  0  0.077426  0  2.622835  0  0  0.107518  0  3.039171  0  0  0.101946  0  3.031259  0  0  0.003731  0.111179  0  3.044746  0
S  S67  1  0.25070546  0.77146020  0.11893846  1  0  0.07749  0  2.622752  0  0  0.107602  0  3.039108  0  0  0.102062  0  3.031094  0  0  0.00378  0.111277  0  3.044657  0
O  O68  1  0.55773217  0.38201507  0.18469932  1  0  -0.564369  0  2.027202  0  0  -0.522837  0  2.282009  0  0  -0.546154  0  2.272306  0  0  -0.327354  -0.506399  0  2.288135  0
O  O69  1  0.94226105  0.61800434  0.68469929  1  0  -0.564412  0  2.026921  0  0  -0.522908  0  2.281753  0  0  -0.546263  0  2.272147  0  0  -0.327367  -0.506471  0  2.287878  0
O  O70  1  0.05772987  0.11800139  0.81530248  1  0  -0.564358  0  2.027371  0  0  -0.52276  0  2.282207  0  0  -0.546104  0  2.272605  0  0  -0.327275  -0.50632  0  2.288356  0
O  O71  1  0.44227340  0.88201772  0.31530131  1  0  -0.564429  0  2.026424  0  0  -0.522912  0  2.281287  0  0  -0.546277  0  2.271683  0  0  -0.327349  -0.506546  0  2.287556  0
O  O72  1  0.56844708  0.11266524  0.15542584  1  0  -0.542263  0  2.067059  0  0  -0.492841  0  2.321927  0  0  -0.518456  0  2.313074  0  0  -0.326486  -0.474853  0  2.32737  0
O  O73  1  0.93155188  0.88736970  0.65541957  1  0  -0.542249  0  2.067237  0  0  -0.492809  0  2.322055  0  0  -0.518382  0  2.313223  0  0  -0.326542  -0.474825  0  2.327509  0
O  O74  1  0.06845890  0.38735970  0.84458235  1  0  -0.542511  0  2.06662  0  0  -0.493016  0  2.321499  0  0  -0.518612  0  2.312707  0  0  -0.326581  -0.475012  0  2.32695  0
O  O75  1  0.43149664  0.61266328  0.34458045  1  0  -0.542004  0  2.067572  0  0  -0.492581  0  2.322437  0  0  -0.518126  0  2.313549  0  0  -0.326373  -0.474607  0  2.327909  0
F  F76  1  0.45221504  0.42656307  0.03060043  1  0  -0.263237  0  1.171173  0  0  -0.221827  0  1.339978  0  0  -0.23218  0  1.324262  0  0  -0.10646  -0.214554  0  1.351022  0
F  F77  1  0.04773416  0.57345410  0.53058936  1  0  -0.263109  0  1.171149  0  0  -0.221815  0  1.340002  0  0  -0.231954  0  1.32435  0  0  -0.106387  -0.214488  0  1.350998  0
F  F78  1  0.95223511  0.07345178  0.96940728  1  0  -0.263193  0  1.171306  0  0  -0.221772  0  1.340152  0  0  -0.231938  0  1.324488  0  0  -0.106411  -0.214459  0  1.351148  0
F  F79  1  0.54773689  0.92653079  0.46942156  1  0  -0.263063  0  1.171024  0  0  -0.221836  0  1.33989  0  0  -0.231985  0  1.324222  0  0  -0.10637  -0.213291  0  1.349434  0
F  F80  1  0.20880684  0.30772284  0.09025532  1  0  -0.267589  0  1.202181  0  0  -0.226509  0  1.379453  0  0  -0.236797  0  1.363188  0  0  -0.106014  -0.218995  0  1.390634  0
F  F81  1  0.29117867  0.69225364  0.59024797  1  0  -0.267535  0  1.202178  0  0  -0.226432  0  1.379365  0  0  -0.236726  0  1.363251  0  0  -0.106001  -0.218948  0  1.390624  0
F  F82  1  0.70881214  0.19226801  0.90974595  1  0  -0.267496  0  1.202324  0  0  -0.226373  0  1.379613  0  0  -0.236666  0  1.363424  0  0  -0.105942  -0.218864  0  1.390791  0
F  F83  1  0.79117568  0.80775403  0.40975085  1  0  -0.267547  0  1.202202  0  0  -0.226487  0  1.379396  0  0  -0.236793  0  1.363263  0  0  -0.105997  -0.219105  0  1.3907  0
F  F84  1  0.40534406  0.16506156  0.01796874  1  0  -0.238409  0  1.209973  0  0  -0.199324  0  1.381213  0  0  -0.208412  0  1.364513  0  0  -0.099623  -0.192738  0  1.39272  0
F  F85  1  0.09466883  0.83495135  0.51796874  1  0  -0.238261  0  1.210195  0  0  -0.199187  0  1.38139  0  0  -0.208294  0  1.364858  0  0  -0.099575  -0.192634  0  1.392979  0
F  F86  1  0.90532755  0.33495455  0.98203084  1  0  -0.238339  0  1.21013  0  0  -0.199219  0  1.381387  0  0  -0.208331  0  1.364777  0  0  -0.099615  -0.192638  0  1.392891  0
F  F87  1  0.59468211  0.66502986  0.48202423  1  0  -0.238336  0  1.210134  0  0  -0.199286  0  1.381309  0  0  -0.208413  0  1.36476  0  0  -0.099605  -0.192839  0  1.392956  0
