# generated using pymatgen
data_CuH12C7N2O3
_symmetry_space_group_name_H-M   'P 1'
_cell_length_a   5.27030822
_cell_length_b   9.30760676
_cell_length_c   10.51889478
_cell_angle_alpha   116.24763415
_cell_angle_beta   91.67263966
_cell_angle_gamma   89.99250676
_symmetry_Int_Tables_number   1
_chemical_formula_structural   CuH12C7N2O3
_chemical_formula_sum   'Cu2 H24 C14 N4 O6'
_cell_volume   462.54566418
_cell_formula_units_Z   2
loop_
 _symmetry_equiv_pos_site_id
 _symmetry_equiv_pos_as_xyz
  1  'x, y, z'
loop_
 _atom_site_type_symbol
 _atom_site_label
 _atom_site_symmetry_multiplicity
 _atom_site_fract_x
 _atom_site_fract_y
 _atom_site_fract_z
 _atom_site_occupancy
 _atom_site_hle17_ddec_charge
 _atom_site_hle17_ddec_spin_density
 _atom_site_hle17_ddec_sum_bond_order
 _atom_site_hle17_magmom
 _atom_site_hse06_10hf_ddec_charge
 _atom_site_hse06_10hf_ddec_spin_density
 _atom_site_hse06_10hf_ddec_sum_bond_order
 _atom_site_hse06_10hf_magmom
 _atom_site_hse06_ddec_charge
 _atom_site_hse06_ddec_spin_density
 _atom_site_hse06_ddec_sum_bond_order
 _atom_site_hse06_magmom
 _atom_site_pbe_cm5_charge
 _atom_site_pbe_ddec_charge
 _atom_site_pbe_ddec_spin_density
 _atom_site_pbe_ddec_sum_bond_order
 _atom_site_pbe_magmom
Cu  Cu0  1  0.06982763  0.03488218  0.61168224  1  0.848992  0.680939  1.830703  0.481  0.828463  0.777337  2.23478  0.6  0.916612  0.854809  2.16492  0.683  0.736079  0.772594  0.719751  2.285914  0.544
Cu  Cu1  1  0.93015962  0.42341298  0.38840760  1  0.849811  -0.681077  1.830125  -0.481  0.828831  -0.777465  2.234443  -0.6  0.917315  -0.854952  2.164191  -0.683  0.736282  0.773126  -0.719879  2.285284  -0.544
H  H2  1  0.12584385  0.33410947  0.69158541  1  0.309797  0.000176  0.905805  -0.002  0.299789  0.001121  0.961699  0.0  0.306564  0.000614  0.958026  -0.001  0.298463  0.294812  0.001341  0.964837  0.0
H  H3  1  0.87378065  0.64276570  0.30830236  1  0.310339  -0.000183  0.90441  0.002  0.300554  -0.001126  0.960316  0.0  0.307291  -0.000617  0.956706  0.001  0.298604  0.295581  -0.001346  0.963469  0.0
H  H4  1  0.04875942  0.28366616  0.82174339  1  0.304472  -0.000651  0.886939  -0.002  0.299482  0.00066  0.935744  -0.001  0.30684  0.000158  0.931269  -0.001  0.30116  0.293943  0.001123  0.939678  0.0
H  H5  1  0.95099380  0.46210829  0.17823806  1  0.303619  0.00065  0.888232  0.002  0.299077  -0.000658  0.936536  0.001  0.306443  -0.000155  0.932065  0.001  0.300788  0.293508  -0.001121  0.940529  0.0
H  H6  1  0.47729513  0.35458687  0.89591264  1  0.067945  0.002292  0.947748  0.003  0.084654  0.00177  1.008467  0.002  0.086449  0.001238  1.005862  0.001  0.101004  0.083626  0.002141  1.008919  0.002
H  H7  1  0.52245049  0.45878543  0.10403915  1  0.067421  -0.002284  0.947202  -0.003  0.08429  -0.001769  1.007587  -0.002  0.085996  -0.001237  1.005058  -0.001  0.100812  0.083347  -0.002138  1.007973  -0.002
H  H8  1  0.55172264  0.31155439  0.72008576  1  0.088733  -0.000193  0.933696  0.0  0.107272  -0.000163  0.990343  0.0  0.107543  -0.000155  0.991424  0.0  0.114647  0.106869  -0.000119  0.989986  0.0
H  H9  1  0.44797588  0.59173783  0.27991938  1  0.089208  0.000198  0.932383  0.0  0.107197  0.000162  0.989416  0.0  0.107458  0.000154  0.990472  0.0  0.114373  0.106795  0.000118  0.989124  0.0
H  H10  1  0.60200256  0.78482782  0.58709022  1  0.08505  0.001637  0.911529  0.002  0.094808  0.001173  0.973133  0.001  0.095405  0.000922  0.972742  0.001  0.114606  0.093792  0.001335  0.97419  0.001
H  H11  1  0.39812623  0.19780937  0.41286889  1  0.084789  -0.001636  0.911382  -0.002  0.094216  -0.001172  0.973447  -0.001  0.094818  -0.00092  0.97308  -0.001  0.114446  0.093186  -0.001334  0.974525  -0.001
H  H12  1  0.60820610  0.87421046  0.84443460  1  0.059043  -0.000194  0.929551  0.0  0.077654  -5.2e-05  0.981192  0.0  0.078472  -1.6e-05  0.982009  0.0  0.100589  0.076848  1e-05  0.980934  0.0
H  H13  1  0.39189058  0.03001310  0.15556543  1  0.059435  0.000193  0.928294  0.0  0.077703  5.2e-05  0.980458  0.0  0.078627  1.5e-05  0.981119  0.0  0.100792  0.076826  -1e-05  0.9803  0.0
H  H14  1  0.14643972  0.93527865  0.89143508  1  0.11664  -7e-06  0.944882  0.0  0.136741  1.1e-05  1.006879  0.0  0.139002  -3e-06  1.006132  0.0  0.09141  0.135052  4.9e-05  1.007611  0.0
H  H15  1  0.85352842  0.04396186  0.10834903  1  0.116978  3e-06  0.944671  0.0  0.137045  -1.1e-05  1.006753  0.0  0.13936  3e-06  1.005931  0.0  0.091514  0.135313  -4.9e-05  1.007546  0.0
H  H16  1  0.25568382  0.80176116  0.95985490  1  0.089725  0.000107  0.973248  0.0  0.113548  0.000106  1.035275  0.0  0.114237  7.5e-05  1.036145  0.0  0.083254  0.112972  0.000111  1.034593  0.0
H  H17  1  0.74455311  0.84214560  0.04019092  1  0.089904  -0.000111  0.9732  0.0  0.114117  -0.000106  1.034824  0.0  0.114827  -7.5e-05  1.035672  0.0  0.083372  0.113509  -0.000111  1.034188  0.0
H  H18  1  0.07113741  0.72728165  0.79956792  1  0.088881  1.8e-05  0.974108  0.0  0.112575  6.4e-05  1.036749  0.0  0.112765  3.9e-05  1.038287  0.0  0.080721  0.112267  5.5e-05  1.035926  0.0
H  H19  1  0.92918616  0.92805412  0.20039444  1  0.089322  -2.1e-05  0.974913  0.0  0.112996  -6.3e-05  1.037337  0.0  0.113134  -3.8e-05  1.038952  0.0  0.081201  0.112744  -5.4e-05  1.03644  0.0
H  H20  1  0.62275365  0.60786534  0.83691031  1  0.080859  0.000339  0.966337  0.0  0.101208  0.000221  1.032313  0.0  0.102664  0.000136  1.032  0.0  0.07816  0.100993  0.000404  1.030951  0.0
H  H21  1  0.37736870  0.77124957  0.16300836  1  0.080852  -0.000339  0.966608  0.0  0.100987  -0.000223  1.03276  0.0  0.102469  -0.000136  1.032414  0.0  0.077706  0.100762  -0.000404  1.031409  0.0
H  H22  1  0.73436617  0.59364154  0.67389980  1  0.086516  0.000321  0.982724  0.0  0.096625  0.000407  1.068578  0.0  0.098275  0.000383  1.06636  0.0  0.078549  0.095  0.00044  1.070902  0.0
H  H23  1  0.26564723  0.92005044  0.32608007  1  0.086784  -0.000318  0.981379  0.0  0.096755  -0.000406  1.067378  0.0  0.0984  -0.000382  1.065163  0.0  0.078623  0.095141  -0.00044  1.069685  0.0
H  H24  1  0.42382715  0.52599649  0.67996789  1  0.100681  6.1e-05  0.973116  0.0  0.122846  0.000247  1.032221  0.0  0.124485  0.000187  1.03235  0.0  0.082856  0.121888  0.000186  1.032164  0.0
H  H25  1  0.57626121  0.84604672  0.32003804  1  0.100541  -5.9e-05  0.973593  0.0  0.122746  -0.000248  1.032526  0.0  0.124345  -0.000188  1.032699  0.0  0.082726  0.121783  -0.000188  1.032471  0.0
C  C26  1  0.43933500  0.27027581  0.78410789  1  -0.042131  -0.002807  3.664811  -0.006  -0.101425  0.000648  3.931795  -0.003  -0.098595  0.000303  3.940714  -0.003  -0.069757  -0.102604  0.001035  3.925439  -0.003
C  C27  1  0.56037966  0.48638814  0.21593200  1  -0.042077  0.002778  3.662668  0.006  -0.100156  -0.000646  3.928521  0.003  -0.097201  -0.000305  3.937356  0.003  -0.068911  -0.101474  -0.001033  3.922236  0.003
C  C28  1  0.53776075  0.10556331  0.75866722  1  0.531815  -0.004834  3.88709  -0.005  0.503575  0.000814  4.183555  0.001  0.534935  -0.000326  4.187744  -0.001  0.210528  0.481322  0.001544  4.18119  0.001
C  C29  1  0.46215735  0.34712304  0.24144856  1  0.531634  0.004846  3.886838  0.005  0.502505  -0.000811  4.184324  -0.001  0.533822  0.000329  4.188596  0.001  0.209723  0.480285  -0.001542  4.181962  -0.001
C  C30  1  0.42572178  0.82012788  0.64780103  1  0.00373  -0.002233  3.630618  -0.006  -0.007676  -0.000288  3.862954  -0.003  -0.006451  -0.00029  3.87933  -0.003  0.009193  -0.008408  -0.000538  3.852207  -0.003
C  C31  1  0.57438184  0.17242243  0.35216107  1  0.004305  0.002233  3.631961  0.006  -0.007274  0.000288  3.864301  0.003  -0.006111  0.000288  3.880806  0.003  0.009357  -0.007976  0.000537  3.853462  0.003
C  C32  1  0.20691035  0.72244084  0.54717482  1  0.645041  0.002109  3.781713  0.003  0.601855  0.002071  4.080304  0.003  0.639503  0.001565  4.073625  0.002  0.222322  0.576152  0.002291  4.083872  0.003
C  C33  1  0.79321283  0.17539005  0.45286217  1  0.643429  -0.002107  3.784209  -0.003  0.601232  -0.002085  4.081406  -0.003  0.638886  -0.001572  4.074751  -0.002  0.221988  0.575546  -0.002302  4.084933  -0.003
C  C34  1  0.46287944  0.78558062  0.77860680  1  0.076958  0.00173  3.624585  0.002  0.084991  0.000865  3.853233  0.001  0.084511  0.000714  3.871236  0.001  -0.088583  0.085875  0.000924  3.840422  0.001
C  C35  1  0.53727211  0.00714260  0.22137629  1  0.077035  -0.001743  3.624143  -0.002  0.085329  -0.000868  3.852668  -0.001  0.084826  -0.000714  3.870632  -0.001  -0.088621  0.086236  -0.000927  3.839863  -0.001
C  C36  1  0.22030473  0.81472836  0.86201367  1  -0.316483  -0.000132  3.668876  0.0  -0.396576  4.3e-05  3.906211  0.0  -0.399158  0.0  3.917669  0.0  -0.249388  -0.394522  5.1e-05  3.898434  0.0
C  C37  1  0.77985061  0.95297292  0.13795809  1  -0.317852  0.000151  3.669742  0.0  -0.39818  -4.4e-05  3.907268  0.0  -0.400674  -0.0  3.918523  0.0  -0.250296  -0.396185  -5e-05  3.899605  0.0
C  C38  1  0.56698828  0.61875857  0.73996026  1  -0.3219  0.001235  3.716418  0.001  -0.403354  0.001144  3.967447  0.001  -0.406018  0.000834  3.978397  0.001  -0.253478  -0.401571  0.001161  3.959583  0.001
C  C39  1  0.43318715  0.87895433  0.26003267  1  -0.322192  -0.00125  3.71574  -0.001  -0.403293  -0.001145  3.96636  -0.001  -0.405967  -0.000834  3.977284  -0.001  -0.253022  -0.40148  -0.001165  3.958481  -0.001
N  N40  1  0.17044511  0.26466370  0.74182343  1  -0.585727  0.102484  3.194691  0.123  -0.563487  0.07381  3.467075  0.092  -0.595132  0.060518  3.46773  0.08  -0.636914  -0.544305  0.079815  3.46865  0.096
N  N41  1  0.82938188  0.52306596  0.25822702  1  -0.585704  -0.102293  3.194398  -0.123  -0.564408  -0.073714  3.465797  -0.092  -0.596122  -0.060432  3.466482  -0.08  -0.6367  -0.545227  -0.079713  3.467354  -0.096
N  N42  1  0.37245021  0.98728884  0.68878782  1  -0.516682  0.126275  3.277994  0.155  -0.494  0.079283  3.609363  0.102  -0.539721  0.065387  3.630192  0.088  -0.43247  -0.465595  0.08529  3.597766  0.107
N  N43  1  0.62755500  0.29865929  0.31126736  1  -0.516121  -0.126272  3.277822  -0.155  -0.493097  -0.07927  3.609464  -0.102  -0.53888  -0.065366  3.630361  -0.088  -0.431981  -0.46474  -0.085282  3.597838  -0.107
O  O44  1  0.03644112  0.79552303  0.50908404  1  -0.605747  0.058467  2.064596  0.076  -0.567774  0.046773  2.344322  0.065  -0.603632  0.038853  2.330478  0.057  -0.320196  -0.543645  0.051468  2.354567  0.07
O  O45  1  0.96347503  0.28664301  0.49106879  1  -0.605193  -0.058395  2.065349  -0.076  -0.566972  -0.046702  2.344162  -0.065  -0.602934  -0.03879  2.330406  -0.057  -0.319915  -0.542883  -0.051394  2.354356  -0.07
O  O46  1  0.20354839  0.57171454  0.50462564  1  -0.587536  -0.030391  2.127082  -0.041  -0.543153  -0.023736  2.408181  -0.034  -0.581346  -0.021322  2.396842  -0.032  -0.316851  -0.516993  -0.024662  2.416052  -0.035
O  O47  1  0.79666083  0.06711479  0.49531196  1  -0.586664  0.0303  2.127498  0.041  -0.543199  0.023685  2.408557  0.034  -0.58132  0.02129  2.397241  0.032  -0.316751  -0.517002  0.024601  2.41643  0.034
O  O48  1  0.76149828  0.09526529  0.80044910  1  -0.609016  0.028032  1.927065  0.035  -0.588764  0.00981  2.170414  0.013  -0.618419  0.003782  2.161067  0.006  -0.335959  -0.566494  0.016059  2.176649  0.021
O  O49  1  0.23842277  0.29510136  0.19966103  1  -0.609264  -0.028046  1.926063  -0.035  -0.588878  -0.009795  2.170028  -0.013  -0.618599  -0.003771  2.160747  -0.006  -0.336054  -0.56659  -0.01604  2.17619  -0.021
