# generated using pymatgen
data_TbH8C8NO9
_symmetry_space_group_name_H-M   'P 1'
_cell_length_a   10.00551383
_cell_length_b   10.12741297
_cell_length_c   12.35910000
_cell_angle_alpha   90.00000000
_cell_angle_beta   90.00000000
_cell_angle_gamma   94.09128705
_symmetry_Int_Tables_number   1
_chemical_formula_structural   TbH8C8NO9
_chemical_formula_sum   'Tb4 H32 C32 N4 O36'
_cell_volume   1249.15581192
_cell_formula_units_Z   4
loop_
 _symmetry_equiv_pos_site_id
 _symmetry_equiv_pos_as_xyz
  1  'x, y, z'
loop_
 _atom_site_type_symbol
 _atom_site_label
 _atom_site_symmetry_multiplicity
 _atom_site_fract_x
 _atom_site_fract_y
 _atom_site_fract_z
 _atom_site_occupancy
 _atom_site_hle17_bader_spin_density
 _atom_site_hle17_ddec_charge
 _atom_site_hle17_ddec_spin_density
 _atom_site_hle17_ddec_sum_bond_order
 _atom_site_hle17_magmom
 _atom_site_hse06_10hf_bader_spin_density
 _atom_site_hse06_10hf_ddec_charge
 _atom_site_hse06_10hf_ddec_spin_density
 _atom_site_hse06_10hf_ddec_sum_bond_order
 _atom_site_hse06_10hf_magmom
 _atom_site_hse06_bader_spin_density
 _atom_site_hse06_ddec_charge
 _atom_site_hse06_ddec_spin_density
 _atom_site_hse06_ddec_sum_bond_order
 _atom_site_hse06_magmom
 _atom_site_pbe_bader_charge
 _atom_site_pbe_bader_spin_density
 _atom_site_pbe_cm5_charge
 _atom_site_pbe_ddec_charge
 _atom_site_pbe_ddec_spin_density
 _atom_site_pbe_ddec_sum_bond_order
 _atom_site_pbe_magmom
Tb  Tb0  1  0.98827533  0.12547610  0.35249816  1  0  2.261318  0  1.648233  0  0  2.110647  0  2.118371  0  0  2.231856  0  1.938993  0  2.184051  0  1.516672  2.072971  0  2.15242  0
Tb  Tb1  1  0.51172443  0.87452442  0.85249978  1  0  2.261299  0  1.648253  0  0  2.110649  0  2.118366  0  0  2.231838  0  1.939011  0  2.184055  0  1.516666  2.072971  0  2.152418  0
Tb  Tb2  1  0.01172705  0.87452343  0.64750265  1  0  2.26128  0  1.648259  0  0  2.110565  0  2.118498  0  0  2.231827  0  1.939022  0  2.184112  0  1.516664  2.072889  0  2.152544  0
Tb  Tb3  1  0.48827524  0.12547907  0.14750184  1  0  2.261339  0  1.648205  0  0  2.110669  0  2.118353  0  0  2.231883  0  1.93896  0  2.184029  0  1.516683  2.072993  0  2.152402  0
H  H4  1  0.78230257  0.92616572  0.43768316  1  0  0.441496  0  0.860637  0  0  0.409545  0  0.925274  0  0  0.42063  0  0.909288  0  0.661526  0  0.299844  0.401848  0  0.936528  0
H  H5  1  0.71769912  0.07383381  0.93768236  1  0  0.441523  0  0.860602  0  0  0.40957  0  0.925244  0  0  0.420655  0  0.909256  0  0.661513  0  0.299852  0.401871  0  0.9365  0
H  H6  1  0.21769967  0.07383183  0.56232007  1  0  0.441575  0  0.860538  0  0  0.409625  0  0.925173  0  0  0.420711  0  0.909184  0  0.661547  0  0.299882  0.401926  0  0.936429  0
H  H7  1  0.28230041  0.92616770  0.06231845  1  0  0.441567  0  0.860541  0  0  0.409614  0  0.925182  0  0  0.4207  0  0.909193  0  0.661524  0  0.299869  0.401915  0  0.93644  0
H  H8  1  0.73449443  0.95177650  0.31406332  1  0  0.450803  0  0.841304  0  0  0.421687  0  0.900903  0  0  0.432988  0  0.884441  0  0.654905  0  0.307541  0.413936  0  0.912326  0
H  H9  1  0.76550790  0.04821808  0.81406332  1  0  0.450835  0  0.841254  0  0  0.421725  0  0.900846  0  0  0.433026  0  0.884384  0  0.654905  0  0.307556  0.413972  0  0.912273  0
H  H10  1  0.26551073  0.04822006  0.68593830  1  0  0.450777  0  0.841335  0  0  0.421676  0  0.900913  0  0  0.432977  0  0.88445  0  0.65531  0  0.30754  0.413925  0  0.912336  0
H  H11  1  0.23449148  0.95178145  0.18593830  1  0  0.4508  0  0.841302  0  0  0.421672  0  0.900924  0  0  0.432977  0  0.884455  0  0.654891  0  0.307529  0.413919  0  0.91235  0
H  H12  1  0.83776752  0.10900941  0.13007339  1  0  0.444687  0  0.850722  0  0  0.411375  0  0.917835  0  0  0.422541  0  0.901758  0  0.650024  0  0.301675  0.403798  0  0.928862  0
H  H13  1  0.66223217  0.89099012  0.63007501  1  0  0.444614  0  0.850797  0  0  0.411284  0  0.917934  0  0  0.422446  0  0.901865  0  0.650025  0  0.301644  0.403708  0  0.92896  0
H  H14  1  0.16223579  0.89098913  0.86992985  1  0  0.444693  0  0.850728  0  0  0.41133  0  0.917916  0  0  0.422498  0  0.901836  0  0.649989  0  0.301645  0.403754  0  0.928943  0
H  H15  1  0.33776636  0.10901139  0.36992661  1  0  0.444668  0  0.850746  0  0  0.411356  0  0.91786  0  0  0.422521  0  0.901785  0  0.650017  0  0.301649  0.403779  0  0.928887  0
H  H16  1  0.99425332  0.10838773  0.13107022  1  0  0.427654  0  0.839953  0  0  0.408441  0  0.897073  0  0  0.41745  0  0.883962  0  0.624318  0  0.315588  0.402032  0  0.905335  0
H  H17  1  0.50574623  0.89160982  0.63107103  1  0  0.427626  0  0.839969  0  0  0.408414  0  0.897105  0  0  0.417423  0  0.883996  0  0.624305  0  0.315578  0.402005  0  0.905352  0
H  H18  1  0.00574978  0.89160784  0.86893220  1  0  0.427545  0  0.84015  0  0  0.408357  0  0.897186  0  0  0.417364  0  0.884081  0  0.624361  0  0.31556  0.401948  0  0.905459  0
H  H19  1  0.49425308  0.10838872  0.36893139  1  0  0.427647  0  0.839965  0  0  0.408434  0  0.897082  0  0  0.417443  0  0.883973  0  0.624356  0  0.315587  0.402024  0  0.905348  0
H  H20  1  0.43300873  0.22449007  0.54485035  1  0  0.091911  0  0.941014  0  0  0.104474  0  0.998698  0  0  0.108018  0  0.995395  0  0.061639  0  0.105514  0.101927  0  1.001002  0
H  H21  1  0.06698920  0.77550748  0.04484873  1  0  0.091923  0  0.940978  0  0  0.104473  0  0.998685  0  0  0.108016  0  0.995384  0  0.061662  0  0.105521  0.101929  0  1.000989  0
H  H22  1  0.56698723  0.77550352  0.45515288  1  0  0.091915  0  0.940996  0  0  0.104481  0  0.998673  0  0  0.108025  0  0.995372  0  0.061702  0  0.105533  0.101936  0  1.000976  0
H  H23  1  0.93301639  0.22449502  0.95514884  1  0  0.091957  0  0.940971  0  0  0.104508  0  0.99867  0  0  0.108051  0  0.995372  0  0.06174  0  0.105524  0.101966  0  1.000975  0
H  H24  1  0.14327797  0.52008964  0.55636252  1  0  0.132152  0  0.928137  0  0  0.138141  0  0.992083  0  0  0.14285  0  0.987253  0  0.142965  0  0.119881  0.13478  0  0.99539  0
H  H25  1  0.35671889  0.47990692  0.05636009  1  0  0.132146  0  0.928147  0  0  0.138133  0  0.992095  0  0  0.142839  0  0.987265  0  0.143082  0  0.119876  0.134772  0  0.995401  0
H  H26  1  0.85672241  0.47990989  0.44363910  1  0  0.132139  0  0.928149  0  0  0.138123  0  0.9921  0  0  0.142831  0  0.987272  0  0.14307  0  0.119861  0.134762  0  0.995408  0
H  H27  1  0.64328228  0.52008964  0.94363667  1  0  0.132119  0  0.92822  0  0  0.138099  0  0.992166  0  0  0.142806  0  0.987339  0  0.142984  0  0.119853  0.134739  0  0.995472  0
H  H28  1  0.58702449  0.36486381  0.66127792  1  0  0.105217  0  0.939808  0  0  0.115414  0  0.996054  0  0  0.118572  0  0.995337  0  0.094017  0  0.106799  0.113143  0  0.996806  0
H  H29  1  0.91297314  0.63513473  0.16127631  1  0  0.105208  0  0.939804  0  0  0.115394  0  0.99606  0  0  0.118552  0  0.99534  0  0.093967  0  0.106795  0.113123  0  0.996812  0
H  H30  1  0.41297561  0.63513176  0.33872288  1  0  0.105231  0  0.939824  0  0  0.115443  0  0.996053  0  0  0.118605  0  0.995328  0  0.094034  0  0.106812  0.113167  0  0.996811  0
H  H31  1  0.08703182  0.36487272  0.83872288  1  0  0.105237  0  0.939886  0  0  0.115423  0  0.996142  0  0  0.118581  0  0.995423  0  0.093843  0  0.106784  0.113152  0  0.996894  0
H  H32  1  0.51867916  0.58299450  0.72640969  1  0  0.105245  0  0.971841  0  0  0.110815  0  1.04023  0  0  0.114065  0  1.038463  0  0.127536  0  0.111202  0.108072  0  1.042483  0
H  H33  1  0.98131939  0.41700305  0.22640969  1  0  0.10536  0  0.971818  0  0  0.110935  0  1.040188  0  0  0.114181  0  1.038424  0  0.127499  0  0.111222  0.108192  0  1.042442  0
H  H34  1  0.48132322  0.41700503  0.27358626  1  0  0.105315  0  0.971828  0  0  0.110869  0  1.040232  0  0  0.114138  0  1.038445  0  0.127419  0  0.111199  0.108126  0  1.042486  0
H  H35  1  0.01868249  0.58300341  0.77359031  1  0  0.105426  0  0.971654  0  0  0.110928  0  1.040113  0  0  0.114198  0  1.038323  0  0.127472  0  0.111232  0.108184  0  1.042367  0
C  C36  1  0.18447452  0.28240662  0.47296243  1  0  0.653673  0  3.885546  0  0  0.605664  0  4.172071  0  0  0.638819  0  4.171389  0  1.501052  0  0.205944  0.582792  0  4.176188  0
C  C37  1  0.31552349  0.71759193  0.97296405  1  0  0.653702  0  3.885496  0  0  0.605659  0  4.172055  0  0  0.638816  0  4.171372  0  1.501266  0  0.205952  0.582788  0  4.17617  0
C  C38  1  0.81552287  0.71759292  0.52703999  1  0  0.653558  0  3.885696  0  0  0.605596  0  4.172164  0  0  0.638751  0  4.171488  0  1.501386  0  0.205942  0.582723  0  4.17628  0
C  C39  1  0.68447690  0.28240761  0.02703433  1  0  0.65375  0  3.885422  0  0  0.605733  0  4.171953  0  0  0.63889  0  4.17127  0  1.501282  0  0.205967  0.582861  0  4.17607  0
C  C40  1  0.27870054  0.36392337  0.54252575  1  0  -0.085602  0  3.77114  0  0  -0.059421  0  4.006899  0  0  -0.070366  0  4.030778  0  -0.028805  0  -0.020477  -0.052213  0  3.990229  0
C  C41  1  0.22129747  0.63607518  0.04252575  1  0  -0.085668  0  3.771218  0  0  -0.05948  0  4.006982  0  0  -0.070426  0  4.030859  0  -0.028772  0  -0.020532  -0.052273  0  3.990313  0
C  C42  1  0.72129577  0.63607518  0.45747344  1  0  -0.085642  0  3.771223  0  0  -0.059486  0  4.006992  0  0  -0.070431  0  4.030872  0  -0.028775  0  -0.020542  -0.052279  0  3.990322  0
C  C43  1  0.77870206  0.36392634  0.95746940  1  0  -0.08576  0  3.771034  0  0  -0.059586  0  4.006815  0  0  -0.07053  0  4.03069  0  -0.028721  0  -0.02057  -0.052378  0  3.990147  0
C  C44  1  0.40359145  0.32040751  0.57264283  1  0  -0.036631  0  3.70399  0  0  -0.067959  0  3.960639  0  0  -0.064233  0  3.97899  0  0.006146  0  -0.073048  -0.069678  0  3.947429  0
C  C45  1  0.09640749  0.67959004  0.07264364  1  0  -0.03661  0  3.703921  0  0  -0.067948  0  3.960583  0  0  -0.064222  0  3.978934  0  0.006108  0  -0.073031  -0.06967  0  3.947375  0
C  C46  1  0.59640580  0.67959004  0.42735555  1  0  -0.036584  0  3.703997  0  0  -0.067918  0  3.960663  0  0  -0.064193  0  3.979011  0  0.00579  0  -0.073044  -0.069639  0  3.947451  0
C  C47  1  0.90359504  0.32041147  0.92735232  1  0  -0.036617  0  3.703933  0  0  -0.067961  0  3.960609  0  0  -0.064234  0  3.978953  0  0.00619  0  -0.073045  -0.069687  0  3.947405  0
C  C48  1  0.24027567  0.48629501  0.57946291  1  0  -0.034733  0  3.645072  0  0  -0.070453  0  3.885739  0  0  -0.065906  0  3.902813  0  -0.06902  0  -0.059627  -0.072936  0  3.873403  0
C  C49  1  0.25972341  0.51370452  0.07946129  1  0  -0.034687  0  3.645089  0  0  -0.070427  0  3.885716  0  0  -0.065867  0  3.902795  0  -0.069126  0  -0.059606  -0.072907  0  3.87338  0
C  C50  1  0.75972472  0.51370452  0.42053629  1  0  -0.034691  0  3.644906  0  0  -0.070416  0  3.885548  0  0  -0.065869  0  3.902623  0  -0.069109  0  -0.059609  -0.072896  0  3.873212  0
C  C51  1  0.74027519  0.48629798  0.92053467  1  0  -0.034664  0  3.644934  0  0  -0.070354  0  3.885564  0  0  -0.065806  0  3.902637  0  -0.069072  0  -0.059579  -0.072835  0  3.87323  0
C  C52  1  0.49005431  0.39901185  0.63838548  1  0  -0.074464  0  3.745432  0  0  -0.085905  0  4.002241  0  0  -0.092172  0  4.024658  0  -0.009253  0  -0.083467  -0.081839  0  3.98671  0
C  C53  1  0.00994369  0.60098669  0.13838629  1  0  -0.074382  0  3.745336  0  0  -0.0858  0  4.002127  0  0  -0.092063  0  4.024536  0  -0.009297  0  -0.083433  -0.081733  0  3.986595  0
C  C54  1  0.50994507  0.60098768  0.36161290  1  0  -0.074494  0  3.745414  0  0  -0.085946  0  4.002221  0  0  -0.092208  0  4.024634  0  -0.009153  0  -0.083476  -0.081872  0  3.986689  0
C  C55  1  0.99006012  0.39901878  0.86161290  1  0  -0.074574  0  3.745392  0  0  -0.08599  0  4.002168  0  0  -0.092255  0  4.02459  0  -0.009349  0  -0.083449  -0.08192  0  3.986635  0
C  C56  1  0.32707865  0.56509734  0.64516025  1  0  -0.095889  0  3.750477  0  0  -0.070245  0  3.983118  0  0  -0.081801  0  4.006371  0  0.061584  0  -0.015242  -0.062522  0  3.966228  0
C  C57  1  0.17291957  0.43490417  0.14516106  1  0  -0.095935  0  3.750395  0  0  -0.070203  0  3.982909  0  0  -0.081786  0  4.006195  0  0.061615  0  -0.015235  -0.062481  0  3.966019  0
C  C58  1  0.67292173  0.43490219  0.35483733  1  0  -0.095941  0  3.750397  0  0  -0.070243  0  3.982973  0  0  -0.081798  0  4.006229  0  0.061629  0  -0.01522  -0.062522  0  3.966085  0
C  C59  1  0.82707817  0.56510031  0.85483975  1  0  -0.095857  0  3.750375  0  0  -0.070216  0  3.982984  0  0  -0.081772  0  4.006239  0  0.061761  0  -0.015215  -0.062495  0  3.966096  0
C  C60  1  0.45219820  0.52137063  0.67437273  1  0  -0.028151  0  3.681359  0  0  -0.057991  0  3.931937  0  0  -0.054449  0  3.950827  0  -0.11668  0  -0.065544  -0.059618  0  3.918568  0
C  C61  1  0.04779788  0.47862890  0.17437354  1  0  -0.028346  0  3.681397  0  0  -0.058231  0  3.931973  0  0  -0.054681  0  3.950873  0  -0.116653  0  -0.065617  -0.059858  0  3.918604  0
C  C62  1  0.54780233  0.47863088  0.32562322  1  0  -0.028202  0  3.681374  0  0  -0.058062  0  3.931966  0  0  -0.054539  0  3.950852  0  -0.116495  0  -0.065547  -0.059689  0  3.918595  0
C  C63  1  0.95220008  0.52137855  0.82562727  1  0  -0.028239  0  3.681081  0  0  -0.058029  0  3.931667  0  0  -0.054504  0  3.950549  0  -0.116759  0  -0.06557  -0.059656  0  3.918298  0
C  C64  1  0.28643258  0.69681899  0.68201406  1  0  0.752325  0  3.824841  0  0  0.704407  0  4.111412  0  0  0.741797  0  4.101962  0  1.579007  0  0.248811  0.679521  0  4.119035  0
C  C65  1  0.21356735  0.30317856  0.18201487  1  0  0.75236  0  3.824832  0  0  0.704433  0  4.111384  0  0  0.741829  0  4.101934  0  1.579058  0  0.248816  0.679547  0  4.119008  0
C  C66  1  0.71356859  0.30317757  0.31798594  1  0  0.752405  0  3.824693  0  0  0.704476  0  4.111268  0  0  0.741865  0  4.101815  0  1.579052  0  0.248805  0.67959  0  4.118894  0
C  C67  1  0.78643511  0.69682196  0.81798756  1  0  0.752284  0  3.825013  0  0  0.704362  0  4.111601  0  0  0.741751  0  4.102151  0  1.578984  0  0.248731  0.679476  0  4.119225  0
N  N68  1  0.12487421  0.86644847  0.37104644  1  0  0.726931  0  4.103112  0  0  0.778483  0  4.365479  0  0  0.790116  0  4.400702  0  0.866459  0  0.11405  0.75828  0  4.363547  0
N  N69  1  0.37512144  0.13354512  0.87104724  1  0  0.727117  0  4.102963  0  0  0.778753  0  4.365244  0  0  0.790292  0  4.400611  0  0.866453  0  0.114183  0.75855  0  4.363317  0
N  N70  1  0.87512353  0.13354215  0.62895276  1  0  0.726817  0  4.103322  0  0  0.778819  0  4.36511  0  0  0.790114  0  4.400825  0  0.866315  0  0.114179  0.758614  0  4.363191  0
N  N71  1  0.62487402  0.86645540  0.12895195  1  0  0.726814  0  4.103344  0  0  0.778573  0  4.365481  0  0  0.79003  0  4.400949  0  0.86634  0  0.114052  0.75837  0  4.363555  0
O  O72  1  0.79667651  0.98308737  0.37244298  1  0  -0.942929  0  1.873351  0  0  -0.895879  0  2.071238  0  0  -0.924909  0  2.03199  0  -1.298201  0  -0.669202  -0.882077  0  2.094337  0
O  O73  1  0.70332311  0.01691117  0.87244298  1  0  -0.942992  0  1.873327  0  0  -0.895927  0  2.071165  0  0  -0.924956  0  2.031915  0  -1.298184  0  -0.66922  -0.882124  0  2.094267  0
O  O74  1  0.20332587  0.01691216  0.62756107  1  0  -0.942963  0  1.873326  0  0  -0.895925  0  2.071219  0  0  -0.924964  0  2.031967  0  -1.298625  0  -0.669229  -0.882123  0  2.09432  0
O  O75  1  0.29667834  0.98308935  0.12755945  1  0  -0.942981  0  1.873306  0  0  -0.895924  0  2.071189  0  0  -0.924955  0  2.031931  0  -1.298185  0  -0.669201  -0.882121  0  2.094289  0
O  O76  1  0.91382080  0.06843368  0.16643202  1  0  -0.876543  0  1.818952  0  0  -0.834262  0  2.00537  0  0  -0.859973  0  1.969566  0  -1.252862  0  -0.626687  -0.82143  0  2.025423  0
O  O77  1  0.58617790  0.93156585  0.66643283  1  0  -0.876454  0  1.818999  0  0  -0.834149  0  2.005446  0  0  -0.859861  0  1.969659  0  -1.252831  0  -0.62665  -0.821317  0  2.025486  0
O  O78  1  0.08618251  0.93156486  0.83357041  1  0  -0.876467  0  1.819131  0  0  -0.834144  0  2.005591  0  0  -0.859863  0  1.969788  0  -1.252867  0  -0.626637  -0.821312  0  2.025656  0
O  O79  1  0.41382063  0.06843566  0.33356798  1  0  -0.876526  0  1.818992  0  0  -0.834239  0  2.005401  0  0  -0.859952  0  1.969606  0  -1.252876  0  -0.626661  -0.821406  0  2.025457  0
O  O80  1  0.83478814  0.27723318  0.33027081  1  0  -0.737686  0  2.081151  0  0  -0.686811  0  2.346219  0  0  -0.723389  0  2.328496  0  -1.198946  0  -0.410828  -0.668822  0  2.35513  0
O  O81  1  0.66521676  0.72276932  0.83026919  1  0  -0.737608  0  2.081219  0  0  -0.686735  0  2.346285  0  0  -0.72331  0  2.328567  0  -1.198864  0  -0.410781  -0.668745  0  2.355194  0
O  O82  1  0.16521317  0.72276536  0.66973000  1  0  -0.737636  0  2.081238  0  0  -0.686742  0  2.346301  0  0  -0.723332  0  2.328579  0  -1.19892  0  -0.410824  -0.668753  0  2.355209  0
O  O83  1  0.33478705  0.27723615  0.16973081  1  0  -0.737658  0  2.081208  0  0  -0.686793  0  2.346291  0  0  -0.723372  0  2.328569  0  -1.198913  0  -0.410823  -0.668804  0  2.355201  0
O  O84  1  0.05614944  0.90891400  0.45072133  1  0  -0.626145  0  1.968352  0  0  -0.616646  0  2.215273  0  0  -0.644982  0  2.216318  0  -0.625802  0  -0.263464  -0.602407  0  2.21897  0
O  O85  1  0.44384321  0.09107959  0.95072295  1  0  -0.626186  0  1.968384  0  0  -0.616731  0  2.215285  0  0  -0.645038  0  2.216372  0  -0.625888  0  -0.263498  -0.602492  0  2.218985  0
O  O86  1  0.94385230  0.09107662  0.54927867  1  0  -0.62607  0  1.968409  0  0  -0.616742  0  2.215225  0  0  -0.644979  0  2.216405  0  -0.625829  0  -0.263484  -0.602504  0  2.218926  0
O  O87  1  0.55614732  0.90892192  0.04927786  1  0  -0.626086  0  1.968361  0  0  -0.616694  0  2.21526  0  0  -0.644976  0  2.216375  0  -0.625818  0  -0.26347  -0.602456  0  2.218961  0
O  O88  1  0.11598979  0.93647398  0.28436456  1  0  -0.537514  0  1.845142  0  0  -0.521955  0  2.059371  0  0  -0.541677  0  2.056803  0  -0.59773  0  -0.214282  -0.508882  0  2.064949  0
O  O89  1  0.38400908  0.06352258  0.78436375  1  0  -0.537499  0  1.845071  0  0  -0.522041  0  2.059338  0  0  -0.541707  0  2.056788  0  -0.597812  0  -0.214317  -0.50897  0  2.064918  0
O  O90  1  0.88401131  0.06352159  0.71563625  1  0  -0.537442  0  1.845238  0  0  -0.522082  0  2.059374  0  0  -0.541669  0  2.056899  0  -0.597833  0  -0.21435  -0.509012  0  2.064957  0
O  O91  1  0.61599138  0.93647794  0.21563544  1  0  -0.537442  0  1.845201  0  0  -0.522003  0  2.059408  0  0  -0.541648  0  2.056893  0  -0.597797  0  -0.214326  -0.508936  0  2.064989  0
O  O92  1  0.21081898  0.16141792  0.44749132  1  0  -0.764193  0  2.091774  0  0  -0.693522  0  2.316578  0  0  -0.726648  0  2.305872  0  -1.213906  0  -0.368331  -0.674657  0  2.32297  0
O  O93  1  0.28917996  0.83857964  0.94749132  1  0  -0.76421  0  2.091828  0  0  -0.693494  0  2.316628  0  0  -0.726624  0  2.305921  0  -1.21409  0  -0.368324  -0.674631  0  2.32302  0
O  O94  1  0.78917648  0.83858261  0.55250949  1  0  -0.764106  0  2.091785  0  0  -0.693448  0  2.31658  0  0  -0.726581  0  2.305877  0  -1.21418  0  -0.368331  -0.674586  0  2.322971  0
O  O95  1  0.71082435  0.16141891  0.05250868  1  0  -0.764209  0  2.091733  0  0  -0.693527  0  2.316526  0  0  -0.726658  0  2.305821  0  -1.214052  0  -0.368349  -0.674663  0  2.322918  0
O  O96  1  0.07686698  0.32633627  0.44012833  1  0  -0.640359  0  1.984483  0  0  -0.596968  0  2.219783  0  0  -0.628503  0  2.211193  0  -1.157208  0  -0.356046  -0.580436  0  2.22495  0
O  O97  1  0.42313217  0.67366425  0.94012994  1  0  -0.640357  0  1.984398  0  0  -0.59696  0  2.219723  0  0  -0.628488  0  2.211121  0  -1.157181  0  -0.356042  -0.580429  0  2.22489  0
O  O98  1  0.92313026  0.67366128  0.55987653  1  0  -0.640312  0  1.984572  0  0  -0.596929  0  2.219862  0  0  -0.62847  0  2.211269  0  -1.15725  0  -0.35602  -0.580397  0  2.225028  0
O  O99  1  0.57687036  0.32633726  0.05986925  1  0  -0.640357  0  1.984457  0  0  -0.596954  0  2.219753  0  0  -0.628493  0  2.211164  0  -1.157152  0  -0.35601  -0.580423  0  2.22492  0
O  O100  1  0.12445901  0.22168260  0.22294180  1  0  -0.785982  0  2.12535  0  0  -0.727635  0  2.385118  0  0  -0.764729  0  2.368892  0  -1.220124  0  -0.421652  -0.708615  0  2.392927  0
O  O101  1  0.37553807  0.77831693  0.72294180  1  0  -0.78601  0  2.12527  0  0  -0.727651  0  2.385022  0  0  -0.764743  0  2.368803  0  -1.22008  0  -0.421656  -0.70863  0  2.392831  0
O  O102  1  0.87554073  0.77832188  0.77706063  1  0  -0.785974  0  2.12538  0  0  -0.727622  0  2.385144  0  0  -0.764728  0  2.368925  0  -1.220145  0  -0.421624  -0.708601  0  2.392955  0
O  O103  1  0.62446117  0.22168062  0.27705901  1  0  -0.786035  0  2.125285  0  0  -0.727673  0  2.385039  0  0  -0.764771  0  2.368822  0  -1.220112  0  -0.421657  -0.708652  0  2.392851  0
O  O104  1  0.19154871  0.77032018  0.37722326  1  0  -0.32666  0  1.714858  0  0  -0.333467  0  1.885862  0  0  -0.336016  0  1.888953  0  -0.426764  0  -0.105625  -0.326998  0  1.889644  0
O  O105  1  0.30844279  0.22967143  0.87722407  1  0  -0.326778  0  1.714812  0  0  -0.333605  0  1.885777  0  0  -0.336109  0  1.888891  0  -0.42664  0  -0.105707  -0.327128  0  1.889554  0
O  O106  1  0.80844253  0.22966351  0.62277108  1  0  -0.326643  0  1.714952  0  0  -0.333618  0  1.885792  0  0  -0.336021  0  1.888985  0  -0.426559  0  -0.105665  -0.327133  0  1.889563  0
O  O107  1  0.69154959  0.77032810  0.12277269  1  0  -0.326609  0  1.714979  0  0  -0.333479  0  1.885914  0  0  -0.335948  0  1.889054  0  -0.426602  0  -0.105571  -0.326998  0  1.889687  0
