# generated using pymatgen
data_UCuH6(C5O6)2
_symmetry_space_group_name_H-M   'P 1'
_cell_length_a   7.15386262
_cell_length_b   7.06514787
_cell_length_c   9.32298789
_cell_angle_alpha   95.89692302
_cell_angle_beta   91.63477579
_cell_angle_gamma   114.28218671
_symmetry_Int_Tables_number   1
_chemical_formula_structural   UCuH6(C5O6)2
_chemical_formula_sum   'U1 Cu1 H6 C10 O12'
_cell_volume   425.94844801
_cell_formula_units_Z   1
loop_
 _symmetry_equiv_pos_site_id
 _symmetry_equiv_pos_as_xyz
  1  'x, y, z'
loop_
 _atom_site_type_symbol
 _atom_site_label
 _atom_site_symmetry_multiplicity
 _atom_site_fract_x
 _atom_site_fract_y
 _atom_site_fract_z
 _atom_site_occupancy
 _atom_site_hle17_ddec_charge
 _atom_site_hle17_ddec_spin_density
 _atom_site_hle17_ddec_sum_bond_order
 _atom_site_hle17_magmom
 _atom_site_hse06_10hf_ddec_charge
 _atom_site_hse06_10hf_ddec_spin_density
 _atom_site_hse06_10hf_ddec_sum_bond_order
 _atom_site_hse06_10hf_magmom
 _atom_site_hse06_ddec_charge
 _atom_site_hse06_ddec_spin_density
 _atom_site_hse06_ddec_sum_bond_order
 _atom_site_hse06_magmom
 _atom_site_pbe_cm5_charge
 _atom_site_pbe_ddec_charge
 _atom_site_pbe_ddec_spin_density
 _atom_site_pbe_ddec_sum_bond_order
 _atom_site_pbe_magmom
U  U0  1  0.49999866  0.00000552  0.49999685  1  2.454761  0.026475  4.081555  0.009  2.513841  0.009287  4.737503  0.003  2.622263  0.006874  4.702258  0.002  2.146697  2.437329  0.010957  4.763529  0.003
Cu  Cu1  1  0.99999364  0.49999249  0.50000213  1  1.066949  -0.719248  1.625919  -0.545  1.07803  -0.81139  2.007965  -0.673  1.156315  -0.86884  1.950685  -0.756  0.747404  1.025422  -0.766881  2.051917  -0.614
H  H2  1  0.17850663  0.41607263  0.70047612  1  0.43626  0.000626  0.791539  0.001  0.427681  -0.000195  0.833551  0.0  0.436168  2e-05  0.825522  0.0  0.343303  0.421427  -0.000409  0.839667  0.0
H  H3  1  0.82149414  0.58393770  0.29953093  1  0.436143  0.000626  0.791399  0.001  0.42757  -0.000195  0.833424  0.0  0.436057  2.1e-05  0.825395  0.0  0.343253  0.421316  -0.000408  0.839542  0.0
H  H4  1  0.02594821  0.19880884  0.61354617  1  0.43717  0.000263  0.861753  0.001  0.407795  -0.000224  0.924252  0.0  0.42034  -4.4e-05  0.906345  0.0  0.308526  0.398771  -0.00038  0.937144  0.0
H  H5  1  0.97405204  0.80119361  0.38645813  1  0.437142  0.000263  0.861837  0.001  0.407774  -0.000225  0.924291  0.0  0.420319  -4.4e-05  0.906385  0.0  0.308549  0.398751  -0.000381  0.937178  0.0
H  H6  1  0.31915277  0.94333160  0.97544673  1  0.123764  8.2e-05  0.935188  0.0  0.130541  -4.2e-05  0.999128  0.0  0.134845  -2.3e-05  0.995703  0.0  0.115534  0.127486  -6.6e-05  1.001611  0.0
H  H7  1  0.68084875  0.05667394  0.02455247  1  0.123744  8.2e-05  0.935192  0.0  0.130505  -4.2e-05  0.999148  0.0  0.134808  -2.3e-05  0.995723  0.0  0.115518  0.127452  -6.6e-05  1.00163  0.0
C  C8  1  0.26879500  0.04996811  0.25186659  1  0.644434  0.000322  3.889276  0.0  0.601762  7.4e-05  4.190387  0.0  0.637825  9.6e-05  4.182974  0.0  0.215827  0.577223  5.9e-05  4.194261  0.0
C  C9  1  0.73121492  0.95003416  0.74813038  1  0.644574  0.000318  3.889877  0.0  0.601882  7.5e-05  4.190974  0.0  0.637945  9.6e-05  4.183555  0.0  0.215822  0.577345  6e-05  4.194857  0.0
C  C10  1  0.13282194  0.03175549  0.12232610  1  -0.054117  -0.00147  3.720626  -0.001  -0.04331  -0.001282  3.958624  -0.001  -0.048527  -0.000738  3.978828  -0.001  -0.002798  -0.03998  -0.001929  3.945065  -0.002
C  C11  1  0.86716788  0.96824227  0.87766263  1  -0.054392  -0.001472  3.720413  -0.001  -0.043558  -0.001286  3.958408  -0.001  -0.048778  -0.000739  3.978608  -0.001  -0.00286  -0.04023  -0.001931  3.944857  -0.002
C  C12  1  0.18011466  0.96994204  0.98585579  1  -0.069692  -0.002925  3.666399  -0.003  -0.104806  -0.001435  3.918374  -0.001  -0.105345  -0.000764  3.936827  -0.001  -0.067035  -0.10426  -0.002194  3.905789  -0.002
C  C13  1  0.81988567  0.03005726  0.01414827  1  -0.069653  -0.002922  3.666191  -0.003  -0.104753  -0.001434  3.918135  -0.001  -0.10529  -0.000765  3.93659  -0.001  -0.067049  -0.104208  -0.002193  3.905553  -0.002
C  C14  1  0.95168293  0.06272607  0.13627715  1  -0.031313  -0.013489  3.683286  -0.014  -0.023417  -0.005908  3.921245  -0.007  -0.027411  -0.003528  3.939345  -0.004  0.005845  -0.020669  -0.008354  3.909091  -0.009
C  C15  1  0.04832377  0.93726521  0.86371678  1  -0.031189  -0.013488  3.682983  -0.014  -0.023357  -0.005906  3.920927  -0.007  -0.027345  -0.003529  3.939022  -0.004  0.005888  -0.020608  -0.008353  3.908769  -0.009
C  C16  1  0.89803241  0.14163285  0.27827665  1  0.705446  0.006188  3.835553  0.007  0.668161  0.000623  4.138636  0.001  0.710577  0.001135  4.123729  0.001  0.240604  0.638598  -1e-05  4.148224  0.002
C  C17  1  0.10196058  0.85835235  0.72172084  1  0.705186  0.006187  3.835829  0.007  0.668063  0.000625  4.138667  0.001  0.710471  0.001135  4.123776  0.001  0.240533  0.638503  -1e-05  4.148252  0.002
O  O18  1  0.36337948  0.72110118  0.44556615  1  -0.722376  0.000605  1.610224  -0.001  -0.741248  0.001449  1.909957  0.0  -0.75937  0.001728  1.889999  0.0  -0.759382  -0.730861  0.001139  1.924984  0.0
O  O19  1  0.63662617  0.27893099  0.55442442  1  -0.722448  0.000605  1.609881  -0.001  -0.741334  0.001449  1.909601  0.0  -0.759465  0.001729  1.889651  0.0  -0.759362  -0.730944  0.001139  1.924627  0.0
O  O20  1  0.76182235  0.01019407  0.34422190  1  -0.633774  -0.001337  2.103171  -0.003  -0.62283  -0.000813  2.376258  -0.002  -0.657542  0.000109  2.369025  0.0  -0.355159  -0.597577  -0.001829  2.38006  -0.003
O  O21  1  0.23816943  0.98978166  0.65576950  1  -0.63363  -0.001336  2.103139  -0.003  -0.622689  -0.000814  2.376061  -0.002  -0.657393  0.000107  2.368822  0.0  -0.35511  -0.597429  -0.001829  2.379849  -0.003
O  O22  1  0.18996674  0.01680137  0.37438457  1  -0.644425  -0.000737  2.065213  -0.001  -0.606596  -0.000234  2.306025  -0.001  -0.639579  6e-06  2.302204  0.0  -0.327174  -0.582983  -0.000582  2.307527  -0.001
O  O23  1  0.81003397  0.98320890  0.62561497  1  -0.644463  -0.000736  2.065319  -0.001  -0.606639  -0.000234  2.306125  -0.001  -0.639622  6e-06  2.302301  0.0  -0.32719  -0.583025  -0.000582  2.307633  -0.001
O  O24  1  0.45678305  0.08708168  0.24312102  1  -0.607165  -0.000112  1.949075  0.0  -0.584406  1.7e-05  2.186101  0.0  -0.614636  3.1e-05  2.181654  0.0  -0.322473  -0.562952  -6.3e-05  2.188169  0.0
O  O25  1  0.54323123  0.91291426  0.75687769  1  -0.607191  -0.00011  1.949329  0.0  -0.584411  1.6e-05  2.186337  0.0  -0.614643  3.1e-05  2.181889  0.0  -0.322419  -0.562955  -6.3e-05  2.188409  0.0
O  O26  1  0.12795651  0.34436863  0.60302557  1  -0.763107  -0.059049  1.939793  -0.081  -0.736436  -0.043306  2.142416  -0.064  -0.765569  -0.032927  2.110376  -0.053  -0.542637  -0.716686  -0.050089  2.165313  -0.07
O  O27  1  0.87204515  0.65563382  0.39698198  1  -0.762959  -0.059043  1.939664  -0.081  -0.7363  -0.043302  2.142274  -0.064  -0.765431  -0.032925  2.110238  -0.053  -0.542625  -0.716548  -0.050086  2.165163  -0.07
O  O28  1  0.99131983  0.33840101  0.31403916  1  -0.581874  -0.082588  2.04149  -0.115  -0.568756  -0.047675  2.312402  -0.074  -0.610995  -0.034117  2.300097  -0.057  -0.30002  -0.538851  -0.057334  2.320144  -0.083
O  O29  1  0.00867241  0.66158899  0.68596834  1  -0.581806  -0.082582  2.041742  -0.115  -0.56876  -0.047674  2.312591  -0.074  -0.610992  -0.034117  2.300284  -0.057  -0.30001  -0.538856  -0.057332  2.320331  -0.083
