# generated using pymatgen
data_CuSiH20C24(N2F3)2
_symmetry_space_group_name_H-M   'P 1'
_cell_length_a   8.14071274
_cell_length_b   13.47672492
_cell_length_c   13.47671677
_cell_angle_alpha   89.71338921
_cell_angle_beta   85.82197073
_cell_angle_gamma   85.82111934
_symmetry_Int_Tables_number   1
_chemical_formula_structural   CuSiH20C24(N2F3)2
_chemical_formula_sum   'Cu1 Si1 H20 C24 N4 F6'
_cell_volume   1470.68290683
_cell_formula_units_Z   1
loop_
 _symmetry_equiv_pos_site_id
 _symmetry_equiv_pos_as_xyz
  1  'x, y, z'
loop_
 _atom_site_type_symbol
 _atom_site_label
 _atom_site_symmetry_multiplicity
 _atom_site_fract_x
 _atom_site_fract_y
 _atom_site_fract_z
 _atom_site_occupancy
 _atom_site_pbe_bader_charge
 _atom_site_pbe_bader_spin_density
 _atom_site_pbe_cm5_charge
 _atom_site_pbe_ddec_charge
 _atom_site_pbe_ddec_spin_density
 _atom_site_pbe_ddec_sum_bond_order
 _atom_site_pbe_magmom
Cu  Cu0  1  0.50000426  0.49999876  0.49999582  1  1.095954  0.564149  0.781824  0.683982  0.728957  2.281921  0.562
Si  Si1  1  0.99999551  0.49999914  0.50000481  1  3.167338  -0.000172  0.243393  1.728531  -0.000299  3.933948  0.0
H  H2  1  0.26398053  0.49995082  0.34151615  1  0.20175  0.002196  0.12077  0.11003  0.00104  1.041976  0.002
H  H3  1  0.27368739  0.49996127  0.15871064  1  0.067491  0.00124  0.111542  0.116452  0.000644  0.994595  0.001
H  H4  1  0.80644202  0.50020392  0.15642015  1  0.11665  0.001317  0.111254  0.116869  0.000704  0.986104  0.001
H  H5  1  0.77524527  0.50007666  0.34084427  1  0.207333  0.002286  0.121611  0.111226  0.001089  1.039086  0.002
H  H6  1  0.19353993  0.49977947  0.84356152  1  0.11712  0.001316  0.111219  0.116863  0.000704  0.986112  0.001
H  H7  1  0.72629201  0.50004221  0.84129329  1  0.067618  0.00124  0.111566  0.116452  0.000644  0.994637  0.001
H  H8  1  0.73601715  0.50005414  0.65848925  1  0.202192  0.002196  0.120759  0.109968  0.00104  1.041993  0.002
H  H9  1  0.22475937  0.49991267  0.65913791  1  0.206472  0.002287  0.121526  0.11111  0.001089  1.039152  0.002
H  H10  1  0.68926065  0.49998126  0.99933314  1  0.063338  0.000157  0.104621  0.098949  0.000124  1.0039  0.0
H  H11  1  0.31071427  0.50000883  0.00065917  1  0.063097  0.000157  0.104696  0.099032  0.000124  1.003814  0.0
H  H12  1  0.26397113  0.34151783  0.49994994  1  0.202707  0.002195  0.12073  0.110016  0.00104  1.0421  0.002
H  H13  1  0.27368315  0.15871079  0.49996140  1  0.067437  0.001241  0.111553  0.116445  0.000644  0.994469  0.001
H  H14  1  0.80643904  0.15642275  0.50021029  1  0.116679  0.001317  0.111269  0.116904  0.000704  0.986111  0.001
H  H15  1  0.77523496  0.34084846  0.50007810  1  0.207343  0.002286  0.121606  0.111255  0.001089  1.03905  0.002
H  H16  1  0.19353985  0.84356511  0.49978187  1  0.117119  0.001316  0.111217  0.116843  0.000704  0.986161  0.001
H  H17  1  0.72629382  0.84129269  0.50003819  1  0.067805  0.00124  0.111569  0.116438  0.000644  0.994636  0.001
H  H18  1  0.73602273  0.65848862  0.50004968  1  0.202272  0.002195  0.120802  0.110055  0.00104  1.041946  0.002
H  H19  1  0.22476723  0.65914013  0.49991458  1  0.206455  0.002288  0.121528  0.111119  0.001089  1.039068  0.002
H  H20  1  0.68925923  0.99933669  0.49998693  1  0.0629  0.000157  0.10466  0.098974  0.000124  1.003904  0.0
H  H21  1  0.31071466  0.00066159  0.50001430  1  0.063091  0.000157  0.104709  0.099039  0.000124  1.00385  0.0
C  C22  1  0.38175598  0.49996361  0.29762375  1  0.483631  -0.000717  0.051124  0.094977  -0.001046  3.909473  0.0
C  C23  1  0.38926125  0.49997417  0.19459125  1  -0.071656  0.006275  -0.078874  -0.16347  0.004147  3.921993  0.005
C  C24  1  0.54262782  0.50005279  0.13928164  1  0.038288  -0.0035  0.005445  0.138036  -0.003904  4.054237  -0.002
C  C25  1  0.68320243  0.50015636  0.19402459  1  0.022835  0.006064  -0.079427  -0.171384  0.004154  3.926438  0.005
C  C26  1  0.66753780  0.50007143  0.29737956  1  0.351731  -0.000767  0.052673  0.098886  -0.001403  3.904676  -0.001
C  C27  1  0.56170121  0.50000150  0.03093933  1  -0.158093  -0.001019  -0.0779  -0.115547  -0.00116  3.969956  0.0
C  C28  1  0.43827429  0.49999380  0.96905739  1  -0.054927  -0.001  -0.078136  -0.116021  -0.001159  3.970185  0.0
C  C29  1  0.31678324  0.49983671  0.80596504  1  0.020616  0.006067  -0.079358  -0.171295  0.004155  3.926401  0.005
C  C30  1  0.45735155  0.49994102  0.86071492  1  0.040197  -0.003501  0.00541  0.137994  -0.003905  4.054448  -0.002
C  C31  1  0.61072003  0.50002410  0.80540893  1  0.075093  0.006007  -0.078771  -0.163293  0.004148  3.922026  0.005
C  C32  1  0.61823770  0.50003391  0.70237665  1  0.336119  -0.000447  0.051066  0.094999  -0.001047  3.909523  0.0
C  C33  1  0.33245826  0.49992758  0.70260887  1  0.353009  -0.000773  0.052696  0.098953  -0.001405  3.904456  -0.001
C  C34  1  0.38174834  0.29762589  0.49996377  1  0.482583  -0.000716  0.051132  0.094766  -0.001046  3.909815  0.0
C  C35  1  0.38925585  0.19459300  0.49997543  1  -0.071679  0.006277  -0.078777  -0.163153  0.004148  3.921893  0.005
C  C36  1  0.54262536  0.13928356  0.50005706  1  0.03993  -0.003502  0.00531  0.137826  -0.003906  4.054508  -0.002
C  C37  1  0.68319953  0.19402684  0.50015799  1  0.02125  0.006066  -0.079423  -0.171381  0.004155  3.926448  0.005
C  C38  1  0.66753004  0.29738260  0.50007223  1  0.351515  -0.000769  0.052626  0.098827  -0.001405  3.90447  -0.001
C  C39  1  0.56169971  0.03094221  0.50000791  1  -0.157442  -0.001017  -0.077909  -0.115531  -0.001158  3.970066  0.0
C  C40  1  0.43827388  0.96905830  0.49999702  1  -0.055097  -0.001002  -0.078172  -0.116078  -0.001161  3.970214  0.0
C  C41  1  0.31678468  0.80596772  0.49983838  1  0.021639  0.006066  -0.079327  -0.171296  0.004155  3.926382  0.005
C  C42  1  0.45735198  0.86071695  0.49994104  1  0.039165  -0.0035  0.005413  0.137964  -0.003905  4.054495  -0.002
C  C43  1  0.61072132  0.80540900  0.50002119  1  0.074872  0.006006  -0.078759  -0.163202  0.004148  3.922014  0.005
C  C44  1  0.61824228  0.70237684  0.50003303  1  0.335968  -0.000446  0.050961  0.094786  -0.001046  3.909607  0.0
C  C45  1  0.33246401  0.70261195  0.49992521  1  0.352687  -0.000771  0.052681  0.098987  -0.001404  3.904257  -0.001
N  N46  1  0.51888891  0.49998911  0.34840314  1  -1.190834  0.096103  -0.33613  -0.217382  0.064166  3.573413  0.085
N  N47  1  0.48111185  0.50001138  0.65159029  1  -1.19118  0.096114  -0.336092  -0.217449  0.064171  3.573332  0.085
N  N48  1  0.51887863  0.34840580  0.49998723  1  -1.190576  0.096105  -0.33606  -0.217254  0.064167  3.57325  0.085
N  N49  1  0.48111745  0.65159247  0.50000937  1  -1.190745  0.096109  -0.336048  -0.217332  0.06417  3.573204  0.085
F  F50  1  0.21373011  0.49968583  0.49967814  1  -0.836603  -0.001617  -0.204818  -0.534364  -0.001771  1.318414  -0.001
F  F51  1  0.78626452  0.50030351  0.50032524  1  -0.836472  -0.001617  -0.204877  -0.534451  -0.001771  1.318371  -0.001
F  F52  1  0.99997607  0.59005142  0.40995326  1  -0.830963  0.000165  -0.260695  -0.553528  0.000163  1.051844  0.0
F  F53  1  0.00001421  0.40994313  0.59005547  1  -0.83074  0.000165  -0.260798  -0.553564  0.000163  1.051733  0.0
F  F54  1  0.02096077  0.40994098  0.40994366  1  -0.83214  0.000165  -0.260346  -0.553298  0.000163  1.052222  0.0
F  F55  1  0.97903356  0.59006101  0.59006412  1  -0.832135  0.000165  -0.260265  -0.553277  0.000163  1.052198  0.0
