# generated using pymatgen
data_NaH4C4SNO4
_symmetry_space_group_name_H-M   'P 1'
_cell_length_a   7.14610526
_cell_length_b   8.99623591
_cell_length_c   10.45616351
_cell_angle_alpha   90.00036575
_cell_angle_beta   98.13391284
_cell_angle_gamma   90.00003987
_symmetry_Int_Tables_number   1
_chemical_formula_structural   NaH4C4SNO4
_chemical_formula_sum   'Na4 H16 C16 S4 N4 O16'
_cell_volume   665.44401168
_cell_formula_units_Z   4
loop_
 _symmetry_equiv_pos_site_id
 _symmetry_equiv_pos_as_xyz
  1  'x, y, z'
loop_
 _atom_site_type_symbol
 _atom_site_label
 _atom_site_symmetry_multiplicity
 _atom_site_fract_x
 _atom_site_fract_y
 _atom_site_fract_z
 _atom_site_occupancy
 _atom_site_hle17_bader_spin_density
 _atom_site_hle17_ddec_charge
 _atom_site_hle17_ddec_spin_density
 _atom_site_hle17_ddec_sum_bond_order
 _atom_site_hle17_magmom
 _atom_site_hse06_10hf_bader_spin_density
 _atom_site_hse06_10hf_ddec_charge
 _atom_site_hse06_10hf_ddec_spin_density
 _atom_site_hse06_10hf_ddec_sum_bond_order
 _atom_site_hse06_10hf_magmom
 _atom_site_hse06_bader_spin_density
 _atom_site_hse06_ddec_charge
 _atom_site_hse06_ddec_spin_density
 _atom_site_hse06_ddec_sum_bond_order
 _atom_site_hse06_magmom
 _atom_site_pbe_bader_spin_density
 _atom_site_pbe_cm5_charge
 _atom_site_pbe_ddec_charge
 _atom_site_pbe_ddec_spin_density
 _atom_site_pbe_ddec_sum_bond_order
 _atom_site_pbe_magmom
Na  Na0  1  0.17504798  0.11455712  0.07428560  1  0  0.917915  0  0.342119  0  0  0.881491  0  0.478316  0  0  0.890883  0  0.458587  0  0  0.696585  0.872479  0  0.495538  0
Na  Na1  1  0.32495204  0.61455943  0.92571493  1  0  0.917919  0  0.342131  0  0  0.881494  0  0.478337  0  0  0.890873  0  0.458598  0  0  0.696593  0.872476  0  0.495557  0
Na  Na2  1  0.82495264  0.88544396  0.92571391  1  0  0.917903  0  0.34213  0  0  0.881486  0  0.478331  0  0  0.890872  0  0.458595  0  0  0.696578  0.87247  0  0.49555  0
Na  Na3  1  0.67504572  0.38543943  0.07428523  1  0  0.91792  0  0.342121  0  0  0.881486  0  0.478335  0  0  0.890867  0  0.4586  0  0  0.696576  0.87247  0  0.495557  0
H  H4  1  0.34573723  0.38619514  0.65205527  1  0  0.148762  0  0.954418  0  0  0.157099  0  1.01621  0  0  0.161221  0  1.015061  0  0  0.112887  0.153887  0  1.01779  0
H  H5  1  0.15426195  0.88619530  0.34794666  1  0  0.148773  0  0.954399  0  0  0.157099  0  1.016193  0  0  0.161222  0  1.015048  0  0  0.112893  0.153883  0  1.017773  0
H  H6  1  0.65425347  0.61380373  0.34794413  1  0  0.148757  0  0.954403  0  0  0.157088  0  1.01622  0  0  0.161205  0  1.015073  0  0  0.112887  0.153871  0  1.017803  0
H  H7  1  0.84574429  0.11380468  0.65205441  1  0  0.148774  0  0.95439  0  0  0.157103  0  1.016185  0  0  0.161226  0  1.015041  0  0  0.112897  0.153891  0  1.017765  0
H  H8  1  0.19588089  0.29235396  0.44223606  1  0  0.138144  0  0.959825  0  0  0.154329  0  1.022261  0  0  0.157069  0  1.020959  0  0  0.100594  0.152288  0  1.023312  0
H  H9  1  0.30411955  0.79235131  0.55776358  1  0  0.138144  0  0.959864  0  0  0.154329  0  1.022295  0  0  0.15707  0  1.020993  0  0  0.100584  0.152288  0  1.023346  0
H  H10  1  0.80411264  0.70764712  0.55776365  1  0  0.138109  0  0.959779  0  0  0.154312  0  1.022215  0  0  0.157053  0  1.020908  0  0  0.10058  0.152271  0  1.023268  0
H  H11  1  0.69588815  0.20764644  0.44223574  1  0  0.138164  0  0.959787  0  0  0.154363  0  1.022215  0  0  0.157104  0  1.020908  0  0  0.100606  0.152323  0  1.023268  0
H  H12  1  0.05783910  0.12775399  0.44782590  1  0  0.137483  0  0.937218  0  0  0.155427  0  1.000974  0  0  0.158192  0  0.999407  0  0  0.103264  0.153286  0  1.002555  0
H  H13  1  0.44215956  0.62775248  0.55217360  1  0  0.137465  0  0.937187  0  0  0.155395  0  1.000973  0  0  0.158153  0  0.999413  0  0  0.10326  0.153254  0  1.002562  0
H  H14  1  0.94215584  0.87224376  0.55217396  1  0  0.137463  0  0.937189  0  0  0.155385  0  1.000994  0  0  0.158136  0  0.999439  0  0  0.103265  0.153243  0  1.002577  0
H  H15  1  0.55784395  0.37224304  0.44782335  1  0  0.137479  0  0.937211  0  0  0.155399  0  1.001012  0  0  0.158161  0  0.999447  0  0  0.103283  0.15326  0  1.002597  0
H  H16  1  0.29589585  0.11513978  0.41786611  1  0  0.145312  0  0.936251  0  0  0.167818  0  0.990869  0  0  0.170739  0  0.989202  0  0  0.10637  0.16561  0  0.992375  0
H  H17  1  0.20410417  0.61514059  0.58213443  1  0  0.145264  0  0.936289  0  0  0.167774  0  0.990905  0  0  0.170695  0  0.98924  0  0  0.106353  0.165565  0  0.992416  0
H  H18  1  0.70410050  0.88486131  0.58213390  1  0  0.145264  0  0.936296  0  0  0.167769  0  0.990926  0  0  0.17069  0  0.989259  0  0  0.106358  0.165558  0  0.992439  0
H  H19  1  0.79590073  0.38485938  0.41786363  1  0  0.14527  0  0.936332  0  0  0.167782  0  0.990942  0  0  0.170704  0  0.989275  0  0  0.106372  0.165575  0  0.992446  0
C  C20  1  0.38371946  0.26016421  0.83171641  1  0  0.673098  0  3.866975  0  0  0.639009  0  4.15215  0  0  0.671916  0  4.145999  0  0  0.228568  0.616374  0  4.155611  0
C  C21  1  0.11627380  0.76016080  0.16828419  1  0  0.673067  0  3.867003  0  0  0.638979  0  4.15217  0  0  0.671904  0  4.145996  0  0  0.228544  0.616336  0  4.155634  0
C  C22  1  0.61627689  0.73983687  0.16828360  1  0  0.673179  0  3.866861  0  0  0.639063  0  4.152078  0  0  0.671978  0  4.145914  0  0  0.22862  0.616436  0  4.155519  0
C  C23  1  0.88372398  0.23984029  0.83171502  1  0  0.673078  0  3.866847  0  0  0.638988  0  4.152028  0  0  0.671896  0  4.145876  0  0  0.22856  0.616349  0  4.155492  0
C  C24  1  0.33517505  0.27580245  0.69242056  1  0  -0.42286  0  3.701618  0  0  -0.451057  0  3.967  0  0  -0.46793  0  3.983102  0  0  -0.131556  -0.439596  0  3.956276  0
C  C25  1  0.16481683  0.77579898  0.30757998  1  0  -0.42293  0  3.701512  0  0  -0.451071  0  3.966917  0  0  -0.467951  0  3.983012  0  0  -0.131566  -0.439605  0  3.956184  0
C  C26  1  0.66481419  0.72419864  0.30758059  1  0  -0.422927  0  3.701535  0  0  -0.451091  0  3.966965  0  0  -0.467957  0  3.983051  0  0  -0.131575  -0.439632  0  3.956245  0
C  C27  1  0.83518522  0.22420099  0.69241873  1  0  -0.422935  0  3.701513  0  0  -0.451063  0  3.966956  0  0  -0.467934  0  3.983054  0  0  -0.131557  -0.4396  0  3.956237  0
C  C28  1  0.26484884  0.16405429  0.61337239  1  0  0.416453  0  3.731137  0  0  0.402595  0  4.005494  0  0  0.42026  0  4.018873  0  0  0.098465  0.390576  0  3.995846  0
C  C29  1  0.23514845  0.66405033  0.38662812  1  0  0.416498  0  3.731137  0  0  0.402559  0  4.005608  0  0  0.420225  0  4.018988  0  0  0.098445  0.390539  0  3.995954  0
C  C30  1  0.73514607  0.83594791  0.38662842  1  0  0.416478  0  3.731188  0  0  0.402571  0  4.005648  0  0  0.42024  0  4.019022  0  0  0.098488  0.390542  0  3.996005  0
C  C31  1  0.76485642  0.33594853  0.61337089  1  0  0.416476  0  3.731144  0  0  0.402455  0  4.005722  0  0  0.420118  0  4.019104  0  0  0.098435  0.390435  0  3.996076  0
C  C32  1  0.19969707  0.17601097  0.47270739  1  0  -0.392935  0  3.671566  0  0  -0.471103  0  3.906328  0  0  -0.476111  0  3.910789  0  0  -0.236503  -0.467112  0  3.903425  0
C  C33  1  0.30030023  0.67601254  0.52729414  1  0  -0.392876  0  3.67162  0  0  -0.471017  0  3.906411  0  0  -0.47602  0  3.910881  0  0  -0.236473  -0.467023  0  3.903501  0
C  C34  1  0.80029641  0.82398789  0.52729422  1  0  -0.392834  0  3.671504  0  0  -0.470984  0  3.906272  0  0  -0.47598  0  3.910747  0  0  -0.236503  -0.466995  0  3.903372  0
C  C35  1  0.69970605  0.32398632  0.47270503  1  0  -0.392923  0  3.671573  0  0  -0.471054  0  3.906363  0  0  -0.476058  0  3.910832  0  0  -0.236541  -0.467062  0  3.903457  0
S  S36  1  0.37086684  0.97975617  0.80243468  1  0  1.425497  0  5.60038  0  0  1.32133  0  6.13768  0  0  1.374094  0  6.11327  0  0  0.643304  1.284634  0  6.153291  0
S  S37  1  0.12913687  0.47975141  0.19756442  1  0  1.425472  0  5.600499  0  0  1.321317  0  6.1378  0  0  1.374086  0  6.113382  0  0  0.643222  1.284619  0  6.153412  0
S  S38  1  0.62914086  0.02024603  0.19756464  1  0  1.425503  0  5.60056  0  0  1.321363  0  6.137843  0  0  1.374128  0  6.113429  0  0  0.643257  1.284672  0  6.153454  0
S  S39  1  0.87086942  0.52024745  0.80243474  1  0  1.425477  0  5.600465  0  0  1.321303  0  6.137771  0  0  1.374066  0  6.113362  0  0  0.643266  1.284596  0  6.153389  0
N  N40  1  0.37118834  0.12286033  0.88783876  1  0  -0.748542  0  2.95689  0  0  -0.708032  0  3.259407  0  0  -0.733892  0  3.256552  0  0  -0.425663  -0.689388  0  3.260472  0
N  N41  1  0.12880607  0.62285873  0.11216025  1  0  -0.748564  0  2.956885  0  0  -0.708077  0  3.259424  0  0  -0.73394  0  3.256549  0  0  -0.425655  -0.689424  0  3.260476  0
N  N42  1  0.62881369  0.87713965  0.11216090  1  0  -0.748586  0  2.956893  0  0  -0.708073  0  3.259427  0  0  -0.733934  0  3.256565  0  0  -0.425695  -0.689435  0  3.260486  0
N  N43  1  0.87118748  0.37714347  0.88783850  1  0  -0.748516  0  2.956898  0  0  -0.708022  0  3.259441  0  0  -0.733883  0  3.256585  0  0  -0.42566  -0.689369  0  3.2605  0
O  O44  1  0.26342731  0.86062093  0.84876592  1  0  -0.652406  0  1.958549  0  0  -0.619812  0  2.216957  0  0  -0.636584  0  2.199228  0  0  -0.344613  -0.607778  0  2.230214  0
O  O45  1  0.23656903  0.36062033  0.15123365  1  0  -0.652302  0  1.958771  0  0  -0.619711  0  2.217177  0  0  -0.636485  0  2.199445  0  0  -0.344515  -0.607687  0  2.230446  0
O  O46  1  0.73657897  0.13937571  0.15123324  1  0  -0.652363  0  1.958764  0  0  -0.619781  0  2.217189  0  0  -0.636545  0  2.199438  0  0  -0.344532  -0.607752  0  2.23045  0
O  O47  1  0.76342588  0.63938186  0.84876716  1  0  -0.652404  0  1.958517  0  0  -0.619816  0  2.216952  0  0  -0.636575  0  2.199191  0  0  -0.344571  -0.607791  0  2.23023  0
O  O48  1  0.55500115  0.94052858  0.76919327  1  0  -0.672849  0  1.962473  0  0  -0.631415  0  2.215359  0  0  -0.653026  0  2.202686  0  0  -0.354888  -0.61607  0  2.224438  0
O  O49  1  0.94499728  0.44052756  0.23080809  1  0  -0.672942  0  1.962432  0  0  -0.631467  0  2.215286  0  0  -0.65307  0  2.202597  0  0  -0.354928  -0.616122  0  2.224362  0
O  O50  1  0.44500234  0.05947473  0.23080463  1  0  -0.672939  0  1.962498  0  0  -0.631471  0  2.215359  0  0  -0.653085  0  2.202683  0  0  -0.354925  -0.616134  0  2.224444  0
O  O51  1  0.05500313  0.55947574  0.76920001  1  0  -0.672891  0  1.962562  0  0  -0.631429  0  2.215435  0  0  -0.65304  0  2.202768  0  0  -0.354928  -0.616081  0  2.224512  0
O  O52  1  0.24393526  0.02178050  0.65833191  1  0  -0.432433  0  2.182692  0  0  -0.351285  0  2.409781  0  0  -0.372721  0  2.4061  0  0  -0.167021  -0.336402  0  2.412535  0
O  O53  1  0.25606604  0.52178178  0.34166538  1  0  -0.432434  0  2.18281  0  0  -0.351301  0  2.409979  0  0  -0.372742  0  2.406305  0  0  -0.16701  -0.336422  0  2.412737  0
O  O54  1  0.75606392  0.97821725  0.34166840  1  0  -0.432368  0  2.182774  0  0  -0.35129  0  2.409957  0  0  -0.372731  0  2.406283  0  0  -0.167024  -0.336405  0  2.412707  0
O  O55  1  0.74394027  0.47822042  0.65833283  1  0  -0.432389  0  2.182732  0  0  -0.351199  0  2.409891  0  0  -0.372636  0  2.406213  0  0  -0.167002  -0.336315  0  2.41265  0
O  O56  1  0.42745139  0.37172003  0.90216744  1  0  -0.680632  0  1.917139  0  0  -0.646368  0  2.16209  0  0  -0.664083  0  2.147902  0  0  -0.429779  -0.632744  0  2.172288  0
O  O57  1  0.07254778  0.87171718  0.09783345  1  0  -0.680564  0  1.917129  0  0  -0.646309  0  2.162099  0  0  -0.664027  0  2.14789  0  0  -0.429742  -0.632691  0  2.172297  0
O  O58  1  0.57254498  0.62827994  0.09783161  1  0  -0.680653  0  1.917117  0  0  -0.646363  0  2.162064  0  0  -0.664089  0  2.147886  0  0  -0.429799  -0.632745  0  2.172255  0
O  O59  1  0.92745281  0.12828390  0.90216702  1  0  -0.680563  0  1.917063  0  0  -0.646301  0  2.162023  0  0  -0.664016  0  2.147829  0  0  -0.429733  -0.632675  0  2.172217  0
