# generated using pymatgen
data_CuH20C26N2Cl2O5
_symmetry_space_group_name_H-M   'P 1'
_cell_length_a   9.99838461
_cell_length_b   10.43061630
_cell_length_c   13.33927665
_cell_angle_alpha   112.94805039
_cell_angle_beta   102.51075374
_cell_angle_gamma   90.04543951
_symmetry_Int_Tables_number   1
_chemical_formula_structural   CuH20C26N2Cl2O5
_chemical_formula_sum   'Cu2 H40 C52 N4 Cl4 O10'
_cell_volume   1244.99288343
_cell_formula_units_Z   2
loop_
 _symmetry_equiv_pos_site_id
 _symmetry_equiv_pos_as_xyz
  1  'x, y, z'
loop_
 _atom_site_type_symbol
 _atom_site_label
 _atom_site_symmetry_multiplicity
 _atom_site_fract_x
 _atom_site_fract_y
 _atom_site_fract_z
 _atom_site_occupancy
 _atom_site_hle17_ddec_charge
 _atom_site_hle17_ddec_spin_density
 _atom_site_hle17_ddec_sum_bond_order
 _atom_site_hle17_magmom
 _atom_site_hse06_10hf_ddec_charge
 _atom_site_hse06_10hf_ddec_spin_density
 _atom_site_hse06_10hf_ddec_sum_bond_order
 _atom_site_hse06_10hf_magmom
 _atom_site_hse06_ddec_charge
 _atom_site_hse06_ddec_spin_density
 _atom_site_hse06_ddec_sum_bond_order
 _atom_site_hse06_magmom
 _atom_site_pbe_cm5_charge
 _atom_site_pbe_ddec_charge
 _atom_site_pbe_ddec_spin_density
 _atom_site_pbe_ddec_sum_bond_order
 _atom_site_pbe_magmom
Cu  Cu0  1  0.99999955  0.99999698  0.99999887  1  0.86169  -0.69927  1.812796  -0.516  0.844442  -0.780363  2.188617  -0.627  0.930374  -0.845908  2.123676  -0.711  0.744561  0.792282  -0.733005  2.234628  -0.571
Cu  Cu1  1  0.49999788  0.00000360  0.00000157  1  0.861783  -0.699534  1.808564  -0.516  0.844857  -0.781036  2.183981  -0.627  0.931215  -0.846385  2.118713  -0.712  0.740287  0.790094  -0.73771  2.22877  -0.575
H  H2  1  0.70244868  0.07889093  0.93831452  1  0.396805  0.00014  0.925124  0.0  0.368072  0.000148  0.989007  0.0  0.379743  0.000174  0.972016  0.0  0.273228  0.360057  0.000109  1.00074  0.0
H  H3  1  0.79764521  0.14046108  0.06163615  1  0.397258  0.000141  0.924562  0.0  0.368444  0.00015  0.988538  0.0  0.38013  0.000176  0.971522  0.0  0.273332  0.360349  0.00011  1.000378  0.0
H  H4  1  0.29754808  0.92110921  0.06168188  1  0.396764  0.000139  0.925167  0.0  0.368013  0.000148  0.989078  0.0  0.379685  0.000174  0.972086  0.0  0.27319  0.359996  0.000109  1.000812  0.0
H  H5  1  0.20235572  0.85952858  0.93836143  1  0.397199  0.00014  0.924631  0.0  0.3684  0.00015  0.988579  0.0  0.380087  0.000176  0.971562  0.0  0.273273  0.360305  0.00011  1.000415  0.0
H  H6  1  0.79266401  0.26958740  0.57509184  1  0.100381  -0.000123  0.955266  0.0  0.110442  -9.6e-05  1.016732  0.0  0.113463  -6e-05  1.015501  0.0  0.097775  0.10833  -0.000141  1.017544  0.0
H  H7  1  0.70773966  0.69453263  0.42499216  1  0.100589  -0.000121  0.954601  0.0  0.110428  -9.6e-05  1.01649  0.0  0.113445  -6e-05  1.015263  0.0  0.097577  0.108311  -0.000137  1.017292  0.0
H  H8  1  0.20732716  0.73040745  0.42490803  1  0.100394  -0.000121  0.955188  0.0  0.110419  -9.6e-05  1.016695  0.0  0.113441  -6e-05  1.015462  0.0  0.097772  0.108311  -0.000141  1.017507  0.0
H  H9  1  0.29226866  0.30547064  0.57501081  1  0.100608  -0.000123  0.954593  0.0  0.110453  -9.6e-05  1.016489  0.0  0.113469  -6e-05  1.015264  0.0  0.097595  0.108339  -0.000137  1.017289  0.0
H  H10  1  0.71127589  0.19122841  0.70864482  1  0.092833  8e-05  0.979409  0.0  0.095927  1.7e-05  1.05313  0.0  0.098975  1e-05  1.051439  0.0  0.092791  0.09387  1e-05  1.054134  0.0
H  H11  1  0.78904412  0.48298770  0.29160433  1  0.092688  8.6e-05  0.979801  0.0  0.095657  1.7e-05  1.053827  0.0  0.098774  1e-05  1.052053  0.0  0.092875  0.093516  9e-06  1.054931  0.0
H  H12  1  0.28871380  0.80877272  0.29135600  1  0.092822  9.1e-05  0.979439  0.0  0.095946  1.7e-05  1.05312  0.0  0.098994  1e-05  1.051436  0.0  0.092794  0.093879  1e-05  1.054136  0.0
H  H13  1  0.21096858  0.51701874  0.70839657  1  0.092668  9.7e-05  0.979883  0.0  0.095641  1.8e-05  1.053889  0.0  0.098756  1.1e-05  1.052114  0.0  0.092875  0.093506  9e-06  1.054981  0.0
H  H14  1  0.75993433  0.34376147  0.90895264  1  0.100935  -1.6e-05  0.956813  0.0  0.110195  2.2e-05  1.017115  0.0  0.113118  1.3e-05  1.015876  0.0  0.101804  0.108009  2e-05  1.018252  0.0
H  H15  1  0.74019505  0.43548213  0.09119369  1  0.100599  -1.4e-05  0.957208  0.0  0.109867  2.2e-05  1.017675  0.0  0.112819  1.4e-05  1.016361  0.0  0.101478  0.107653  2.3e-05  1.018847  0.0
H  H16  1  0.24005844  0.65623966  0.09104867  1  0.100962  -1.5e-05  0.956792  0.0  0.110223  2.2e-05  1.017091  0.0  0.113145  1.3e-05  1.015851  0.0  0.101807  0.108031  2e-05  1.018234  0.0
H  H17  1  0.25981328  0.56453267  0.90880834  1  0.10061  -1.2e-05  0.957132  0.0  0.109849  2.2e-05  1.017643  0.0  0.112797  1.4e-05  1.016337  0.0  0.101478  0.107638  2.3e-05  1.018809  0.0
H  H18  1  0.88561813  0.58229460  0.97909126  1  0.099957  3.8e-05  0.945581  0.0  0.109753  -4.4e-05  1.006281  0.0  0.112527  -1.9e-05  1.005495  0.0  0.104841  0.107773  -5.8e-05  1.007  0.0
H  H19  1  0.61444335  0.60365945  0.02076762  1  0.100483  3.6e-05  0.944839  0.0  0.110423  -4.4e-05  1.005099  0.0  0.113226  -1.9e-05  1.004303  0.0  0.105159  0.108382  -6.3e-05  1.005907  0.0
H  H20  1  0.11438254  0.41770343  0.02090737  1  0.099999  3.8e-05  0.945573  0.0  0.109774  -4.5e-05  1.006297  0.0  0.112548  -1.9e-05  1.005512  0.0  0.104833  0.107791  -5.8e-05  1.007015  0.0
H  H21  1  0.38556417  0.39635740  0.97924092  1  0.100359  3.8e-05  0.944928  0.0  0.11038  -4.4e-05  1.005087  0.0  0.113183  -1.9e-05  1.004291  0.0  0.105152  0.108342  -6.3e-05  1.005894  0.0
H  H22  1  0.78242503  0.90564786  0.79165959  1  0.086865  -0.000878  0.951787  -0.002  0.093845  -0.000762  1.017042  -0.001  0.095112  -0.000543  1.016007  -0.001  0.119897  0.092648  -0.000949  1.018124  -0.001
H  H23  1  0.71743488  0.11457488  0.20875365  1  0.086053  -0.000885  0.95128  -0.002  0.093531  -0.000766  1.016076  -0.001  0.094815  -0.000543  1.015007  -0.001  0.119748  0.092241  -0.000927  1.017186  -0.001
H  H24  1  0.21757601  0.09435438  0.20833740  1  0.0868  -0.000875  0.951793  -0.002  0.093793  -0.000762  1.017045  -0.001  0.095059  -0.000543  1.016012  -0.001  0.1199  0.092598  -0.00095  1.018124  -0.001
H  H25  1  0.28256287  0.88541375  0.79124011  1  0.085937  -0.000885  0.951464  -0.002  0.093501  -0.000766  1.016162  -0.001  0.094781  -0.000543  1.015096  -0.001  0.119697  0.092212  -0.000927  1.01727  -0.001
H  H26  1  0.75610903  0.89564773  0.59886262  1  0.101291  -0.00046  0.960904  0.0  0.108585  -0.000443  1.026869  0.0  0.111979  -0.000321  1.025587  0.0  0.101925  0.10607  -0.000552  1.027991  -0.001
H  H27  1  0.74405834  0.29741549  0.40156380  1  0.101152  -0.000466  0.961092  0.0  0.108551  -0.000443  1.026972  0.0  0.111949  -0.000321  1.025691  0.0  0.101979  0.106016  -0.00056  1.028127  -0.001
H  H28  1  0.24388987  0.10435344  0.40113520  1  0.101321  -0.000461  0.960909  0.0  0.108623  -0.000443  1.026861  0.0  0.112019  -0.000321  1.025579  0.0  0.101942  0.106108  -0.000552  1.027987  -0.001
H  H29  1  0.25593653  0.70257522  0.59843089  1  0.101175  -0.000468  0.960989  0.0  0.108523  -0.000443  1.026928  0.0  0.111918  -0.000321  1.025648  0.0  0.101968  0.10599  -0.00056  1.028088  -0.001
H  H30  1  0.16588727  0.11024703  0.70936999  1  0.100585  -0.000421  0.989051  0.0  0.108439  -0.000384  1.053769  0.0  0.110374  -0.000277  1.055519  0.0  0.101562  0.107068  -0.00048  1.05259  -0.001
H  H31  1  0.33464791  0.40165932  0.29068576  1  0.100985  -0.000417  0.988529  0.0  0.109247  -0.000386  1.052634  0.0  0.111098  -0.000278  1.054476  0.0  0.10167  0.107858  -0.000475  1.051524  -0.001
H  H32  1  0.83412381  0.88974162  0.29062741  1  0.100543  -0.000422  0.989033  0.0  0.108391  -0.000384  1.053775  0.0  0.110317  -0.000277  1.055544  0.0  0.101561  0.107022  -0.00048  1.052591  -0.001
H  H33  1  0.66535520  0.59835444  0.70931361  1  0.101  -0.000421  0.988471  0.0  0.10927  -0.000386  1.052561  0.0  0.111124  -0.000279  1.054405  0.0  0.101694  0.107881  -0.000475  1.051445  -0.001
H  H34  1  0.17397723  0.11252894  0.89637809  1  0.106602  -0.000921  0.942973  -0.002  0.112567  -0.000765  1.008934  -0.001  0.11546  -0.000528  1.005464  -0.001  0.123189  0.110196  -0.00097  1.011687  -0.002
H  H35  1  0.32615542  0.21631968  0.10388181  1  0.106076  -0.000939  0.942495  -0.002  0.111887  -0.00077  1.008782  -0.001  0.114746  -0.000529  1.005347  -0.001  0.122904  0.109535  -0.000999  1.011451  -0.002
H  H36  1  0.82602418  0.88746596  0.10361969  1  0.106636  -0.00093  0.942977  -0.002  0.112566  -0.000765  1.008972  -0.001  0.115454  -0.000529  1.005514  -0.001  0.123194  0.110194  -0.00097  1.011727  -0.002
H  H37  1  0.67384144  0.78369303  0.89611324  1  0.106012  -0.000929  0.942647  -0.002  0.111901  -0.00077  1.008843  -0.001  0.114761  -0.000529  1.005409  -0.001  0.122904  0.109547  -0.000998  1.011514  -0.002
H  H38  1  0.84552245  0.94919815  0.46569447  1  0.081391  -9.9e-05  0.997152  0.0  0.088763  -5.3e-05  1.069408  0.0  0.091395  -4e-05  1.068358  0.0  0.092458  0.08667  -6.3e-05  1.070457  0.0
H  H39  1  0.65482313  0.48492663  0.53435250  1  0.081706  -9.5e-05  0.996261  0.0  0.089017  -5.3e-05  1.068593  0.0  0.091712  -4e-05  1.067516  0.0  0.092374  0.086827  -6.4e-05  1.069707  0.0
H  H40  1  0.15448148  0.05080199  0.53430383  1  0.0814  -9.5e-05  0.997223  0.0  0.088768  -5.3e-05  1.069473  0.0  0.091399  -4e-05  1.068428  0.0  0.092459  0.086675  -6.3e-05  1.070521  0.0
H  H41  1  0.34517224  0.51506928  0.46564836  1  0.08168  -0.0001  0.996248  0.0  0.088987  -5.3e-05  1.068597  0.0  0.091686  -4e-05  1.067514  0.0  0.092358  0.086798  -6.4e-05  1.069713  0.0
C  C42  1  0.91369366  0.55788223  0.81784618  1  -0.111424  -0.00912  3.738234  -0.01  -0.094205  -0.005093  3.970196  -0.006  -0.101381  -0.003384  3.990439  -0.004  -0.020516  -0.089198  -0.006626  3.956436  -0.007
C  C43  1  0.58656121  0.74019782  0.18202851  1  -0.111406  -0.009118  3.740516  -0.01  -0.094579  -0.005055  3.972287  -0.006  -0.101763  -0.003359  3.992522  -0.004  -0.020045  -0.089598  -0.006477  3.95862  -0.007
C  C44  1  0.08630487  0.44211474  0.18215477  1  -0.111452  -0.009144  3.738135  -0.01  -0.094244  -0.005095  3.970148  -0.006  -0.101419  -0.003388  3.99039  -0.004  -0.020553  -0.089233  -0.006628  3.956382  -0.007
C  C45  1  0.41343156  0.25980330  0.81797505  1  -0.111556  -0.00911  3.740856  -0.01  -0.094688  -0.005057  3.97261  -0.006  -0.10189  -0.003357  3.992875  -0.004  -0.020054  -0.089707  -0.006478  3.958938  -0.007
C  C46  1  0.88665272  0.46798419  0.70411777  1  0.110361  -0.001813  3.78314  -0.002  0.114905  -0.001355  4.048019  -0.001  0.118642  -0.00087  4.069224  -0.001  0.010898  0.112359  -0.001747  4.033627  -0.002
C  C47  1  0.61370515  0.76386598  0.29579270  1  0.111315  -0.001779  3.783537  -0.002  0.11659  -0.001353  4.047258  -0.001  0.120326  -0.000867  4.068459  -0.001  0.011613  0.113984  -0.001747  4.03295  -0.002
C  C48  1  0.11335252  0.53200752  0.29588789  1  0.11038  -0.001778  3.783025  -0.002  0.114866  -0.001356  4.047986  -0.001  0.118604  -0.000867  4.069191  -0.001  0.010866  0.11232  -0.001747  4.033599  -0.002
C  C49  1  0.38629815  0.23613831  0.70421129  1  0.111275  -0.00179  3.783632  -0.002  0.116517  -0.001352  4.047383  -0.001  0.120256  -0.000869  4.06859  -0.001  0.011595  0.113911  -0.001746  4.033069  -0.002
C  C50  1  0.81435232  0.33636520  0.66418152  1  -0.146759  8.5e-05  3.777283  0.0  -0.167504  -9.4e-05  4.029939  0.0  -0.1717  5.5e-05  4.051515  0.0  -0.103223  -0.164443  -0.000339  4.014784  0.0
C  C51  1  0.68608967  0.67235964  0.33588522  1  -0.14813  4.2e-05  3.77796  0.0  -0.168882  -9e-05  4.030413  0.0  -0.173081  5.2e-05  4.05198  0.0  -0.103255  -0.165812  -0.000309  4.015323  0.0
C  C52  1  0.18564211  0.66363175  0.33582027  1  -0.146826  4.2e-05  3.777187  0.0  -0.167516  -9.3e-05  4.02988  0.0  -0.171713  5.1e-05  4.051458  0.0  -0.103232  -0.164456  -0.000339  4.014728  0.0
C  C53  1  0.31391484  0.32764676  0.66411736  1  -0.14811  6.9e-05  3.777836  0.0  -0.168884  -9e-05  4.030297  0.0  -0.173083  5.2e-05  4.051862  0.0  -0.10326  -0.165818  -0.000309  4.01521  0.0
C  C54  1  0.76926771  0.29262238  0.73859157  1  -0.036288  -0.002101  3.751099  -0.002  -0.054076  -0.00087  4.007577  -0.001  -0.054308  -0.000526  4.028489  -0.001  -0.089199  -0.053838  -0.00111  3.993341  -0.001
C  C55  1  0.73116266  0.55441028  0.26155600  1  -0.034959  -0.00208  3.750125  -0.002  -0.052574  -0.000868  4.00641  -0.001  -0.052819  -0.000522  4.027241  -0.001  -0.088966  -0.052427  -0.001106  3.99235  -0.001
C  C56  1  0.23073268  0.70737248  0.26141129  1  -0.036371  -0.002087  3.751182  -0.002  -0.054199  -0.000871  4.007663  -0.001  -0.054435  -0.000523  4.028577  -0.001  -0.089255  -0.053949  -0.00111  3.993434  -0.001
C  C57  1  0.26884716  0.44559823  0.73844808  1  -0.034909  -0.002109  3.750321  -0.002  -0.052485  -0.000868  4.006552  -0.001  -0.05273  -0.000522  4.02738  -0.001  -0.088932  -0.05234  -0.001105  3.992495  -0.001
C  C58  1  0.79605200  0.38000713  0.85228134  1  -0.066767  0.001596  3.743477  0.001  -0.08325  0.000504  3.997604  0.0  -0.08545  0.000486  4.017988  0.0  -0.092397  -0.081638  0.000383  3.984039  0.0
C  C59  1  0.70418180  0.52825899  0.14782915  1  -0.067897  0.001552  3.743608  0.001  -0.084646  0.000504  3.998119  0.0  -0.086861  0.000481  4.018525  0.0  -0.093128  -0.083045  0.00036  3.984639  0.0
C  C60  1  0.20395640  0.61998566  0.14772141  1  -0.066597  0.00155  3.743264  0.001  -0.08305  0.000504  3.997331  0.0  -0.08525  0.00048  4.017717  0.0  -0.092289  -0.081434  0.000383  3.983759  0.0
C  C61  1  0.29583409  0.47176000  0.85217540  1  -0.067923  0.001562  3.743799  0.001  -0.084667  0.000503  3.99832  0.0  -0.08688  0.000483  4.018726  0.0  -0.093165  -0.083069  0.00036  3.984838  0.0
C  C62  1  0.86629659  0.51176675  0.89092624  1  -0.069536  -0.001122  3.739515  -0.001  -0.089457  -0.00055  3.985447  0.0  -0.089604  -0.000309  4.005268  0.0  -0.08381  -0.089482  -0.000806  3.972174  -0.001
C  C63  1  0.63391704  0.62120851  0.10898348  1  -0.069201  -0.001088  3.738245  -0.001  -0.089018  -0.000544  3.983967  0.0  -0.089185  -0.000305  4.003793  0.0  -0.08373  -0.089028  -0.000801  3.970757  -0.001
C  C64  1  0.13370072  0.48822812  0.10907388  1  -0.069651  -0.001097  3.73947  -0.001  -0.089562  -0.000549  3.985412  0.0  -0.089711  -0.000305  4.005235  0.0  -0.083814  -0.089583  -0.000806  3.972133  -0.001
C  C65  1  0.36609102  0.37880313  0.89102128  1  -0.069051  -0.001097  3.738263  -0.001  -0.088932  -0.000542  3.983975  0.0  -0.089093  -0.000306  4.003804  0.0  -0.083717  -0.088947  -0.0008  3.970766  -0.001
C  C66  1  0.98924825  0.70149412  0.86499645  1  0.649721  0.006842  3.903008  0.007  0.602368  0.00148  4.208898  0.002  0.640157  0.001909  4.20032  0.002  0.207148  0.576681  0.001023  4.213734  0.002
C  C67  1  0.51082673  0.83652451  0.13489090  1  0.649846  0.006812  3.905687  0.007  0.602661  0.001469  4.211117  0.002  0.640484  0.001889  4.202483  0.002  0.206953  0.576836  0.001027  4.216237  0.002
C  C68  1  0.01074292  0.29850074  0.13500267  1  0.6497  0.006833  3.903146  0.007  0.602385  0.001479  4.208995  0.002  0.640174  0.001908  4.200415  0.002  0.207153  0.576694  0.001022  4.213836  0.002
C  C69  1  0.48916360  0.16347244  0.86510798  1  0.649952  0.006809  3.905738  0.007  0.602731  0.001469  4.211177  0.002  0.640559  0.001889  4.202536  0.002  0.206958  0.576904  0.001028  4.216301  0.002
C  C70  1  0.86489877  0.94845489  0.76900355  1  0.146716  0.011261  3.682946  0.007  0.117919  0.002789  3.936081  0.002  0.128916  0.004341  3.95314  0.003  0.051481  0.110646  0.001663  3.925402  0.001
C  C71  1  0.63511281  0.17998202  0.23143738  1  0.147823  0.011179  3.682195  0.007  0.118619  0.002769  3.935734  0.002  0.12955  0.004322  3.9529  0.003  0.052001  0.112004  0.001554  3.924193  0.001
C  C72  1  0.13510394  0.05154315  0.23099541  1  0.146838  0.011225  3.682839  0.007  0.118028  0.002792  3.935985  0.002  0.129025  0.004342  3.953049  0.003  0.051515  0.110756  0.001663  3.925303  0.001
C  C73  1  0.36488823  0.82002021  0.76856036  1  0.147853  0.011171  3.682296  0.007  0.118596  0.00277  3.935809  0.002  0.12953  0.004321  3.952977  0.003  0.052017  0.111983  0.001555  3.924263  0.001
C  C74  1  0.85189961  0.94230231  0.66154366  1  -0.162965  -0.008611  3.692772  -0.009  -0.178601  -0.003397  3.936478  -0.004  -0.187215  -0.003148  3.955292  -0.004  -0.081222  -0.172942  -0.00356  3.923696  -0.004
C  C75  1  0.64832673  0.28140376  0.33879820  1  -0.164076  -0.008591  3.692764  -0.009  -0.179462  -0.00341  3.936899  -0.004  -0.188105  -0.003155  3.955778  -0.004  -0.081223  -0.174003  -0.003514  3.923573  -0.004
C  C76  1  0.14810198  0.05769468  0.33845479  1  -0.163004  -0.008585  3.692676  -0.009  -0.178669  -0.003399  3.936412  -0.004  -0.187284  -0.003149  3.955225  -0.004  -0.081219  -0.173009  -0.003561  3.923631  -0.004
C  C77  1  0.35166984  0.71859427  0.66119977  1  -0.163974  -0.008576  3.692652  -0.009  -0.17929  -0.003409  3.936826  -0.004  -0.18793  -0.003152  3.955703  -0.004  -0.081156  -0.173838  -0.003514  3.923505  -0.004
C  C78  1  0.96129586  0.99681696  0.63446536  1  0.137336  0.010617  3.802102  0.007  0.154118  0.004092  4.025691  0.002  0.160595  0.004562  4.046996  0.003  0.008195  0.149691  0.003792  4.011374  0.002
C  C79  1  0.53905531  0.36295515  0.36556006  1  0.139476  0.010548  3.799776  0.007  0.155192  0.00408  4.024751  0.002  0.161617  0.004549  4.046146  0.003  0.007661  0.151335  0.003633  4.009438  0.002
C  C80  1  0.03870304  0.00318422  0.36553245  1  0.137313  0.010581  3.802106  0.007  0.154111  0.004095  4.025679  0.002  0.160592  0.004566  4.046979  0.003  0.008219  0.149685  0.003792  4.011363  0.002
C  C81  1  0.46094369  0.63704707  0.63443809  1  0.139428  0.010537  3.799855  0.007  0.155095  0.004081  4.024901  0.002  0.161518  0.004544  4.046301  0.003  0.00767  0.151239  0.003633  4.009586  0.002
C  C82  1  0.07852144  0.06117903  0.72204986  1  -0.153872  -0.008931  3.674013  -0.01  -0.165993  -0.00353  3.907895  -0.004  -0.174657  -0.003268  3.928986  -0.004  -0.080341  -0.160504  -0.003693  3.894164  -0.004
C  C83  1  0.42181240  0.33975867  0.27806183  1  -0.156498  -0.008946  3.674072  -0.01  -0.16851  -0.003543  3.90823  -0.004  -0.177125  -0.003273  3.929372  -0.004  -0.080077  -0.163162  -0.003759  3.894104  -0.004
C  C84  1  0.92148592  0.93881381  0.27794524  1  -0.15373  -0.008911  3.674035  -0.01  -0.165843  -0.00353  3.907904  -0.004  -0.174505  -0.003269  3.928986  -0.004  -0.08032  -0.160353  -0.003693  3.894177  -0.004
C  C85  1  0.57818288  0.66024772  0.72193702  1  -0.156586  -0.008917  3.674314  -0.01  -0.168612  -0.003544  3.908525  -0.004  -0.177233  -0.003271  3.92967  -0.004  -0.080168  -0.163263  -0.003758  3.894392  -0.004
C  C86  1  0.08362103  0.06499076  0.82779450  1  0.132342  0.010335  3.665167  0.007  0.104837  0.002304  3.917419  0.001  0.114752  0.003902  3.93395  0.003  0.048357  0.098182  0.001125  3.907472  0.0
C  C87  1  0.41655710  0.23755310  0.17244581  1  0.134015  0.010334  3.665638  0.007  0.106824  0.002302  3.91775  0.001  0.116733  0.003897  3.934281  0.003  0.0492  0.100613  0.001068  3.907141  0.0
C  C88  1  0.91638456  0.93500521  0.17220203  1  0.132211  0.01034  3.665329  0.007  0.104742  0.002307  3.917546  0.001  0.11466  0.003905  3.934064  0.003  0.048341  0.098087  0.001126  3.907606  0.0
C  C89  1  0.58344254  0.76244493  0.82755191  1  0.134093  0.010277  3.665704  0.007  0.106866  0.0023  3.917794  0.001  0.116777  0.003894  3.934317  0.003  0.049204  0.100654  0.001066  3.907184  0.0
C  C90  1  0.94841001  0.98532614  0.52047795  1  -0.096315  0.002305  3.712383  0.001  -0.114089  0.001162  3.956237  0.0  -0.116507  0.001192  3.975088  0.0  -0.08143  -0.112641  0.001196  3.943975  0.0
C  C91  1  0.55179573  0.46548201  0.47955813  1  -0.097402  0.002266  3.710495  0.001  -0.114742  0.001137  3.954284  0.0  -0.117256  0.001163  3.973187  0.0  -0.081128  -0.112989  0.001083  3.94118  0.0
C  C92  1  0.05159373  0.01467191  0.47952042  1  -0.096227  0.002363  3.712418  0.001  -0.113989  0.001163  3.956246  0.0  -0.116407  0.001185  3.97509  0.0  -0.081372  -0.112544  0.001195  3.94399  0.0
C  C93  1  0.44819953  0.53451286  0.52044091  1  -0.097299  0.002307  3.710412  0.001  -0.11462  0.001139  3.954204  0.0  -0.117134  0.001172  3.973105  0.0  -0.081078  -0.112867  0.001083  3.941101  0.0
N  N94  1  0.97917006  0.00755508  0.85075350  1  -0.28851  -0.073614  3.317327  -0.095  -0.238152  -0.05048  3.602219  -0.069  -0.268521  -0.041325  3.623381  -0.061  -0.348761  -0.220407  -0.055639  3.591057  -0.072
N  N95  1  0.52085842  0.15722976  0.14972749  1  -0.288634  -0.073797  3.316438  -0.095  -0.238855  -0.050769  3.601543  -0.069  -0.269287  -0.041508  3.622819  -0.061  -0.34732  -0.220852  -0.055653  3.589203  -0.072
N  N96  1  0.02083294  0.99244610  0.14924497  1  -0.288567  -0.073594  3.317452  -0.095  -0.238201  -0.050482  3.602326  -0.069  -0.268568  -0.041326  3.623485  -0.061  -0.348844  -0.220457  -0.055639  3.591166  -0.072
N  N97  1  0.47914393  0.84277562  0.85027068  1  -0.288646  -0.073783  3.316139  -0.095  -0.238906  -0.050765  3.601321  -0.069  -0.269341  -0.041505  3.6226  -0.061  -0.347315  -0.220903  -0.055651  3.588975  -0.072
Cl  Cl98  1  0.93265157  0.52218931  0.60704685  1  -0.106349  -0.000107  1.396795  0.0  -0.088406  -0.000206  1.635838  0.0  -0.091556  -0.000111  1.629332  0.0  0.000493  -0.085875  -0.000332  1.639845  0.0
Cl  Cl99  1  0.56752556  0.91470585  0.39278744  1  -0.106311  -0.000109  1.395831  0.0  -0.08866  -0.000206  1.634141  0.0  -0.091796  -0.000111  1.627626  0.0  0.000197  -0.086258  -0.000338  1.638215  0.0
Cl  Cl100  1  0.06734370  0.47780554  0.39295518  1  -0.106291  -0.000109  1.396789  0.0  -0.088312  -0.000206  1.635839  0.0  -0.091465  -0.00011  1.629334  0.0  0.000549  -0.085778  -0.000332  1.639848  0.0
Cl  Cl101  1  0.43247123  0.08529418  0.60722392  1  -0.106246  -0.000113  1.395873  0.0  -0.088601  -0.000207  1.634224  0.0  -0.091736  -0.00011  1.627708  0.0  0.000213  -0.086202  -0.000338  1.6383  0.0
O  O102  1  0.10275121  0.71677634  0.84319464  1  -0.602568  0.001647  1.988774  0.0  -0.554262  0.000869  2.211593  0.0  -0.581023  0.001626  2.204281  0.001  -0.307371  -0.535346  0.000209  2.216135  -0.001
O  O103  1  0.39736872  0.87336160  0.15678603  1  -0.602349  0.001656  1.989361  0.0  -0.554076  0.000884  2.212094  0.0  -0.580806  0.001633  2.204779  0.001  -0.307066  -0.535305  0.000257  2.216767  -0.001
O  O104  1  0.89723912  0.28322063  0.15680125  1  -0.602562  0.001647  1.988887  0.0  -0.554264  0.00087  2.211665  0.0  -0.581027  0.001625  2.204368  0.001  -0.307374  -0.53535  0.00021  2.216211  -0.001
O  O105  1  0.60262292  0.12663848  0.84321478  1  -0.602404  0.00166  1.989519  0.0  -0.554109  0.000884  2.212228  0.0  -0.580835  0.001633  2.20491  0.001  -0.307115  -0.535343  0.000257  2.216903  -0.001
O  O106  1  0.92712489  0.79759480  0.92747291  1  -0.598566  -0.088541  2.084072  -0.122  -0.573971  -0.056571  2.368697  -0.085  -0.617466  -0.042412  2.362838  -0.069  -0.316902  -0.544062  -0.066545  2.372398  -0.095
O  O107  1  0.57276489  0.87037020  0.07229557  1  -0.598432  -0.088216  2.087575  -0.121  -0.573782  -0.056275  2.372689  -0.085  -0.617332  -0.042218  2.366758  -0.069  -0.317498  -0.543941  -0.065425  2.376333  -0.093
O  O108  1  0.07286515  0.20239902  0.07252421  1  -0.598605  -0.088542  2.084297  -0.122  -0.573949  -0.056578  2.368849  -0.085  -0.617446  -0.042417  2.362988  -0.069  -0.31688  -0.544036  -0.066553  2.372549  -0.095
O  O109  1  0.42722807  0.12963301  0.92770867  1  -0.598406  -0.088232  2.087382  -0.121  -0.573757  -0.056281  2.372502  -0.085  -0.617313  -0.042223  2.36657  -0.069  -0.317433  -0.543915  -0.065433  2.376147  -0.093
O  O110  1  0.75011627  0.05135599  0.99994702  1  -0.870748  0.003332  1.893898  0.001  -0.842665  0.003343  2.101884  0.001  -0.862721  0.003946  2.062769  0.001  -0.606637  -0.828179  0.002674  2.129491  0.0
O  O111  1  0.24987805  0.94863996  0.00004770  1  -0.870634  0.003334  1.89385  0.001  -0.842565  0.003341  2.101913  0.001  -0.862588  0.003946  2.062719  0.001  -0.606563  -0.828113  0.002674  2.129583  0.0
