# generated using pymatgen
data_ZnH24C26(NO3)2
_symmetry_space_group_name_H-M   'P 1'
_cell_length_a   10.53393104
_cell_length_b   10.50489361
_cell_length_c   13.05430000
_cell_angle_alpha   93.91108472
_cell_angle_beta   113.57092411
_cell_angle_gamma   114.91739463
_symmetry_Int_Tables_number   1
_chemical_formula_structural   ZnH24C26(NO3)2
_chemical_formula_sum   'Zn2 H48 C52 N4 O12'
_cell_volume   1151.08399519
_cell_formula_units_Z   2
loop_
 _symmetry_equiv_pos_site_id
 _symmetry_equiv_pos_as_xyz
  1  'x, y, z'
loop_
 _atom_site_type_symbol
 _atom_site_label
 _atom_site_symmetry_multiplicity
 _atom_site_fract_x
 _atom_site_fract_y
 _atom_site_fract_z
 _atom_site_occupancy
 _atom_site_hle17_bader_spin_density
 _atom_site_hle17_ddec_charge
 _atom_site_hle17_ddec_spin_density
 _atom_site_hle17_ddec_sum_bond_order
 _atom_site_hle17_magmom
 _atom_site_hse06_10hf_bader_spin_density
 _atom_site_hse06_10hf_ddec_charge
 _atom_site_hse06_10hf_ddec_spin_density
 _atom_site_hse06_10hf_ddec_sum_bond_order
 _atom_site_hse06_10hf_magmom
 _atom_site_hse06_bader_spin_density
 _atom_site_hse06_ddec_charge
 _atom_site_hse06_ddec_spin_density
 _atom_site_hse06_ddec_sum_bond_order
 _atom_site_hse06_magmom
 _atom_site_pbe_bader_charge
 _atom_site_pbe_bader_spin_density
 _atom_site_pbe_cm5_charge
 _atom_site_pbe_ddec_charge
 _atom_site_pbe_ddec_spin_density
 _atom_site_pbe_ddec_sum_bond_order
 _atom_site_pbe_magmom
Zn  Zn0  1  0.25256206  0.50262558  0.74999667  1  0  1.013019  0  1.864477  0  0  0.832395  0  2.306312  0  0  0.880357  0  2.255083  0  1.315481  0  0.68055  0.798839  0  2.341412  0
Zn  Zn1  1  0.74743626  0.49737413  0.25000361  1  0  1.013031  0  1.864483  0  0  0.832395  0  2.306331  0  0  0.880356  0  2.255104  0  1.315477  0  0.680553  0.79884  0  2.341431  0
H  H2  1  0.94986101  0.76765885  0.08268162  1  0  0.050188  0  0.920855  0  0  0.070436  0  0.979765  0  0  0.069513  0  0.979815  0  0.042183  0  0.103183  0.071059  0  0.979873  0
H  H3  1  0.81510622  0.13246681  0.58266992  1  0  0.050623  0  0.922426  0  0  0.071198  0  0.980639  0  0  0.070271  0  0.980753  0  0.023928  0  0.103697  0.071757  0  0.980803  0
H  H4  1  0.05013938  0.23234086  0.91731856  1  0  0.050197  0  0.92084  0  0  0.070439  0  0.979756  0  0  0.069515  0  0.979807  0  0.042121  0  0.103199  0.071064  0  0.979863  0
H  H5  1  0.18489417  0.86753290  0.41733027  1  0  0.050606  0  0.922425  0  0  0.071184  0  0.98064  0  0  0.070258  0  0.980754  0  0.023925  0  0.103702  0.071745  0  0.980804  0
H  H6  1  0.56264840  0.54220423  0.93690912  1  0  0.092824  0  0.975386  0  0  0.095  0  1.050353  0  0  0.09842  0  1.046716  0  0.140884  0  0.116664  0.09244  0  1.05309  0
H  H7  1  0.89432986  0.37417292  0.43712441  1  0  0.093037  0  0.974972  0  0  0.095827  0  1.049142  0  0  0.099229  0  1.045587  0  0.143264  0  0.117105  0.093231  0  1.051928  0
H  H8  1  0.43735153  0.45779658  0.06309098  1  0  0.092834  0  0.975405  0  0  0.095001  0  1.05037  0  0  0.098425  0  1.046725  0  0.140864  0  0.116662  0.092442  0  1.053106  0
H  H9  1  0.10566949  0.62582679  0.56287545  1  0  0.09305  0  0.974958  0  0  0.095826  0  1.049157  0  0  0.099227  0  1.045604  0  0.143099  0  0.117109  0.093231  0  1.051942  0
H  H10  1  0.92638501  0.80516253  0.20665327  1  0  0.04857  0  0.955636  0  0  0.060073  0  1.029732  0  0  0.060104  0  1.029778  0  0.045311  0  0.098443  0.059707  0  1.030462  0
H  H11  1  0.90218631  0.28050514  0.70675504  1  0  0.049483  0  0.955306  0  0  0.060751  0  1.029576  0  0  0.060813  0  1.029606  0  0.06598  0  0.098794  0.060376  0  1.030277  0
H  H12  1  0.07361596  0.19483827  0.79334793  1  0  0.048572  0  0.955649  0  0  0.060072  0  1.029753  0  0  0.060102  0  1.029799  0  0.045322  0  0.098448  0.059705  0  1.030484  0
H  H13  1  0.09781408  0.71949457  0.29324515  1  0  0.049501  0  0.955273  0  0  0.060749  0  1.029574  0  0  0.060811  0  1.029603  0  0.065963  0  0.098804  0.060375  0  1.030274  0
H  H14  1  0.75557487  0.93461600  0.68257569  1  0  0.075157  0  0.97273  0  0  0.087105  0  1.035757  0  0  0.089548  0  1.034726  0  0.042181  0  0.094687  0.085311  0  1.03673  0
H  H15  1  0.24830394  0.92723045  0.18277144  1  0  0.075446  0  0.971571  0  0  0.087301  0  1.034677  0  0  0.089708  0  1.033685  0  0.046262  0  0.094998  0.085531  0  1.035624  0
H  H16  1  0.24442448  0.06538371  0.31742263  1  0  0.075179  0  0.972744  0  0  0.087129  0  1.035764  0  0  0.089574  0  1.034731  0  0.042178  0  0.094692  0.085336  0  1.036736  0
H  H17  1  0.75169599  0.07277035  0.81722866  1  0  0.07545  0  0.971571  0  0  0.087306  0  1.034671  0  0  0.089714  0  1.033679  0  0.046284  0  0.094999  0.085537  0  1.035618  0
H  H18  1  0.89351853  0.89859052  0.57479388  1  0  0.107584  0  0.955507  0  0  0.114946  0  1.018257  0  0  0.1187  0  1.015879  0  0.115939  0  0.100904  0.11217  0  1.020212  0
H  H19  1  0.17636694  0.68092877  0.07478142  1  0  0.108133  0  0.957622  0  0  0.115629  0  1.019961  0  0  0.119391  0  1.017599  0  0.095519  0  0.101217  0.112923  0  1.021824  0
H  H20  1  0.10648186  0.10140919  0.42520631  1  0  0.10757  0  0.955527  0  0  0.114943  0  1.018268  0  0  0.118688  0  1.015901  0  0.115962  0  0.100902  0.112168  0  1.020222  0
H  H21  1  0.82363300  0.31907203  0.92521869  1  0  0.108139  0  0.957626  0  0  0.115641  0  1.019955  0  0  0.119404  0  1.017592  0  0.095513  0  0.101217  0.112935  0  1.021818  0
H  H22  1  0.53211435  0.63510115  0.49137642  1  0  0.102048  0  0.958918  0  0  0.113364  0  1.015665  0  0  0.115597  0  1.016523  0  0.083822  0  0.106804  0.111667  0  1.015424  0
H  H23  1  0.35593947  0.95832858  0.99123539  1  0  0.100577  0  0.959077  0  0  0.112449  0  1.015652  0  0  0.114697  0  1.016438  0  0.088294  0  0.106249  0.110752  0  1.015449  0
H  H24  1  0.46788559  0.36489965  0.50862521  1  0  0.102069  0  0.958932  0  0  0.113382  0  1.015667  0  0  0.115617  0  1.016526  0  0.083814  0  0.10682  0.111686  0  1.015426  0
H  H25  1  0.64405989  0.04167113  0.00876446  1  0  0.100609  0  0.95909  0  0  0.112479  0  1.015659  0  0  0.114723  0  1.016452  0  0.088299  0  0.106253  0.110782  0  1.015454  0
H  H26  1  0.48055488  0.54248892  0.65090967  1  0  0.083506  0  0.944482  0  0  0.090625  0  1.010342  0  0  0.093256  0  1.008556  0  0.105219  0  0.115099  0.08866  0  1.011837  0
H  H27  1  0.60824545  0.17014022  0.15088988  1  0  0.083812  0  0.944493  0  0  0.091289  0  1.009854  0  0  0.09392  0  1.008052  0  0.099041  0  0.115477  0.089331  0  1.01136  0
H  H28  1  0.51944447  0.45751079  0.34909019  1  0  0.083499  0  0.944468  0  0  0.090617  0  1.010331  0  0  0.093247  0  1.008546  0  0.105217  0  0.115105  0.088652  0  1.011826  0
H  H29  1  0.39175390  0.82985949  0.84910997  1  0  0.083839  0  0.944472  0  0  0.091319  0  1.009831  0  0  0.093951  0  1.008029  0  0.099041  0  0.115479  0.089359  0  1.011339  0
H  H30  1  0.02304267  0.74639023  0.62717710  1  0  0.099124  0  0.965335  0  0  0.107169  0  1.031427  0  0  0.110751  0  1.028434  0  0.074419  0  0.102456  0.104556  0  1.033671  0
H  H31  1  0.38053423  0.60355628  0.12693857  1  0  0.098764  0  0.965624  0  0  0.107132  0  1.03134  0  0  0.110711  0  1.028367  0  0.102732  0  0.102402  0.104489  0  1.033641  0
H  H32  1  0.97695771  0.25360948  0.37282308  1  0  0.099105  0  0.965362  0  0  0.107153  0  1.031451  0  0  0.110735  0  1.028457  0  0.074424  0  0.102458  0.104544  0  1.033692  0
H  H33  1  0.61946467  0.39644453  0.87306120  1  0  0.098755  0  0.96561  0  0  0.107142  0  1.031311  0  0  0.110719  0  1.02834  0  0.102724  0  0.102418  0.104498  0  1.033614  0
H  H34  1  0.87581713  0.65937984  0.88936655  1  0  0.098506  0  0.956207  0  0  0.108818  0  1.01779  0  0  0.112215  0  1.015503  0  0.092173  0  0.102329  0.106325  0  1.019575  0
H  H35  1  0.73013291  0.01419733  0.38952438  1  0  0.098846  0  0.955367  0  0  0.108106  0  1.018247  0  0  0.111566  0  1.015847  0  0.068326  0  0.102039  0.105599  0  1.02006  0
H  H36  1  0.12418060  0.34061878  0.11063195  1  0  0.098572  0  0.956115  0  0  0.108863  0  1.01772  0  0  0.112261  0  1.015431  0  0.092159  0  0.102344  0.106355  0  1.01952  0
H  H37  1  0.26986910  0.98580347  0.61047716  1  0  0.098867  0  0.955358  0  0  0.108126  0  1.018236  0  0  0.111587  0  1.015836  0  0.068357  0  0.102053  0.105619  0  1.02005  0
H  H38  1  0.35931338  0.72611474  0.36343735  1  0  0.095346  0  0.985296  0  0  0.10513  0  1.049289  0  0  0.106174  0  1.051211  0  0.115321  0  0.103029  0.104259  0  1.04818  0
H  H39  1  0.13703490  0.00330023  0.86334646  1  0  0.095055  0  0.985663  0  0  0.104673  0  1.050048  0  0  0.105781  0  1.051897  0  0.078807  0  0.102513  0.103788  0  1.0489  0
H  H40  1  0.64068701  0.27388497  0.63656284  1  0  0.095351  0  0.985319  0  0  0.105136  0  1.049306  0  0  0.106181  0  1.051227  0  0.115314  0  0.103035  0.104266  0  1.048197  0
H  H41  1  0.86296504  0.99670058  0.13665288  1  0  0.095068  0  0.985644  0  0  0.104684  0  1.050028  0  0  0.105794  0  1.051878  0  0.078815  0  0.102521  0.103799  0  1.048884  0
H  H42  1  0.74853670  0.81740206  0.84109560  1  0  0.080076  0  0.983421  0  0  0.088665  0  1.048457  0  0  0.090482  0  1.050011  0  0.058823  0  0.092444  0.087346  0  1.047433  0
H  H43  1  0.52409104  0.09327578  0.34146365  1  0  0.079964  0  0.985923  0  0  0.088537  0  1.050869  0  0  0.090313  0  1.052536  0  0.059523  0  0.092356  0.087223  0  1.049815  0
H  H44  1  0.25146266  0.18259765  0.15890349  1  0  0.080126  0  0.983415  0  0  0.088705  0  1.048458  0  0  0.090523  0  1.050011  0  0.058809  0  0.092463  0.087388  0  1.047435  0
H  H45  1  0.47590773  0.90672283  0.65853595  1  0  0.079951  0  0.985917  0  0  0.088526  0  1.050861  0  0  0.090303  0  1.052527  0  0.05952  0  0.092355  0.087212  0  1.049807  0
H  H46  1  0.88101876  0.54729801  0.11586526  1  0  0.36767  0  0.934557  0  0  0.339903  0  1.00881  0  0  0.352351  0  0.99539  0  0.629145  0  0.287226  0.330965  0  1.01855  0
H  H47  1  0.06825658  0.23454503  0.61586888  1  0  0.367811  0  0.933728  0  0  0.339996  0  1.008013  0  0  0.352437  0  0.994599  0  0.629733  0  0.287311  0.331043  0  1.017807  0
H  H48  1  0.11898059  0.45270170  0.88413459  1  0  0.367657  0  0.934571  0  0  0.339888  0  1.008821  0  0  0.352337  0  0.9954  0  0.629135  0  0.287223  0.33095  0  1.018561  0
H  H49  1  0.93174335  0.76545578  0.38413122  1  0  0.367796  0  0.933749  0  0  0.339976  0  1.008045  0  0  0.352418  0  0.99463  0  0.629728  0  0.287306  0.331023  0  1.017839  0
C  C50  1  0.03916823  0.60396032  0.79316934  1  0  0.645952  0  3.895506  0  0  0.593796  0  4.191752  0  0  0.628224  0  4.184725  0  1.558464  0  0.210456  0.570198  0  4.196163  0
C  C51  1  0.68925373  0.75415573  0.29310927  1  0  0.645347  0  3.896924  0  0  0.593312  0  4.192999  0  0  0.627748  0  4.185934  0  1.563012  0  0.21004  0.569724  0  4.197409  0
C  C52  1  0.96083113  0.39603939  0.20683051  1  0  0.645955  0  3.895487  0  0  0.593797  0  4.191741  0  0  0.628225  0  4.184714  0  1.558471  0  0.210451  0.570197  0  4.196149  0
C  C53  1  0.31074724  0.24584508  0.70689193  1  0  0.645234  0  3.89693  0  0  0.593196  0  4.19301  0  0  0.627632  0  4.185947  0  1.563027  0  0.210016  0.569603  0  4.197418  0
C  C54  1  0.95868979  0.69506697  0.76235853  1  0  -0.076732  0  3.770061  0  0  -0.050489  0  3.998462  0  0  -0.058994  0  4.02276  0  -0.039246  0  -0.023472  -0.044942  0  3.982131  0
C  C55  1  0.56736837  0.80374455  0.26234375  1  0  -0.078403  0  3.769883  0  0  -0.052222  0  3.998392  0  0  -0.060749  0  4.022711  0  -0.057089  0  -0.023303  -0.046718  0  3.982113  0
C  C56  1  0.04131060  0.30493273  0.23764089  1  0  -0.076833  0  3.770094  0  0  -0.050589  0  3.998501  0  0  -0.059095  0  4.022798  0  -0.039251  0  -0.023516  -0.04504  0  3.982164  0
C  C57  1  0.43263260  0.19625625  0.73765745  1  0  -0.078336  0  3.769929  0  0  -0.052148  0  3.998421  0  0  -0.060672  0  4.022739  0  -0.057096  0  -0.023278  -0.046625  0  3.982117  0
C  C58  1  0.96256711  0.76222015  0.67355326  1  0  -0.060005  0  3.713282  0  0  -0.08449  0  3.959128  0  0  -0.083663  0  3.978344  0  -0.024932  0  -0.083855  -0.084937  0  3.946192  0
C  C59  1  0.41136446  0.71075784  0.17346805  1  0  -0.058996  0  3.710612  0  0  -0.083521  0  3.956323  0  0  -0.082714  0  3.975539  0  -0.066493  0  -0.08361  -0.083954  0  3.943458  0
C  C60  1  0.03743270  0.23777846  0.32644668  1  0  -0.059989  0  3.713349  0  0  -0.084483  0  3.959202  0  0  -0.083656  0  3.978416  0  -0.025056  0  -0.083876  -0.084932  0  3.946266  0
C  C61  1  0.58863593  0.28924187  0.82653290  1  0  -0.058981  0  3.710607  0  0  -0.083528  0  3.95633  0  0  -0.08272  0  3.975543  0  -0.066335  0  -0.083636  -0.083967  0  3.94346  0
C  C62  1  0.88936637  0.84782351  0.64432990  1  0  -0.076269  0  3.753096  0  0  -0.088872  0  4.006076  0  0  -0.091339  0  4.025255  0  -0.08021  0  -0.092367  -0.087182  0  3.993297  0
C  C63  1  0.29669086  0.75477219  0.14436974  1  0  -0.07694  0  3.755351  0  0  -0.089677  0  4.008307  0  0  -0.092144  0  4.027476  0  -0.065632  0  -0.092866  -0.088005  0  3.995437  0
C  C64  1  0.11063505  0.15217620  0.35566986  1  0  -0.076181  0  3.753166  0  0  -0.088792  0  4.006139  0  0  -0.091251  0  4.02532  0  -0.080064  0  -0.092319  -0.087102  0  3.993358  0
C  C65  1  0.70330953  0.24522752  0.85563122  1  0  -0.076959  0  3.755375  0  0  -0.089696  0  4.008331  0  0  -0.092164  0  4.0275  0  -0.065808  0  -0.092853  -0.088025  0  3.995464  0
C  C66  1  0.81313872  0.86794460  0.70525462  1  0  -0.078679  0  3.796851  0  0  -0.094007  0  4.047122  0  0  -0.094525  0  4.067596  0  -0.068621  0  -0.094905  -0.093375  0  4.033299  0
C  C67  1  0.33756119  0.89228461  0.20545618  1  0  -0.07873  0  3.794415  0  0  -0.094016  0  4.044958  0  0  -0.094503  0  4.065347  0  -0.074865  0  -0.095042  -0.093379  0  4.031127  0
C  C68  1  0.18686167  0.13205510  0.29474480  1  0  -0.078734  0  3.796919  0  0  -0.094067  0  4.047202  0  0  -0.094584  0  4.06767  0  -0.068632  0  -0.094912  -0.093434  0  4.033379  0
C  C69  1  0.66243978  0.10771620  0.79454426  1  0  -0.078742  0  3.794419  0  0  -0.09403  0  4.044965  0  0  -0.094517  0  4.065354  0  -0.074896  0  -0.095048  -0.093393  0  4.031135  0
C  C70  1  0.80865163  0.80171777  0.79411698  1  0  -0.092903  0  3.798145  0  0  -0.101156  0  4.045434  0  0  -0.104519  0  4.067829  0  -0.068408  0  -0.10047  -0.098895  0  4.030022  0
C  C71  1  0.49266952  0.98587684  0.29438790  1  0  -0.093292  0  3.800376  0  0  -0.101551  0  4.047206  0  0  -0.104929  0  4.069631  0  -0.075633  0  -0.100658  -0.099237  0  4.031732  0
C  C72  1  0.19134876  0.19828194  0.20588244  1  0  -0.092963  0  3.798182  0  0  -0.101211  0  4.045475  0  0  -0.104575  0  4.067873  0  -0.068372  0  -0.100498  -0.098952  0  4.030064  0
C  C73  1  0.50733145  0.01412397  0.70561177  1  0  -0.093279  0  3.80034  0  0  -0.101539  0  4.047174  0  0  -0.104915  0  4.069598  0  -0.075619  0  -0.10067  -0.099226  0  4.031702  0
C  C74  1  0.88002580  0.71433947  0.82193805  1  0  -0.082902  0  3.74693  0  0  -0.105972  0  3.989639  0  0  -0.105984  0  4.010225  0  -0.035749  0  -0.088614  -0.105571  0  3.975577  0
C  C75  1  0.60772699  0.94231689  0.32211215  1  0  -0.082703  0  3.746847  0  0  -0.104848  0  3.989517  0  0  -0.104895  0  4.01006  0  0.032784  0  -0.088935  -0.104388  0  3.975405  0
C  C76  1  0.11997355  0.28566024  0.17806027  1  0  -0.082886  0  3.746838  0  0  -0.105928  0  3.98952  0  0  -0.105939  0  4.010105  0  -0.035792  0  -0.088588  -0.105514  0  3.975464  0
C  C77  1  0.39227398  0.05768391  0.67788905  1  0  -0.082771  0  3.746918  0  0  -0.104922  0  3.98959  0  0  -0.10497  0  4.010134  0  0.032791  0  -0.088969  -0.104467  0  3.975474  0
C  C78  1  0.19896847  0.63072348  0.54403924  1  0  0.089973  0  3.63913  0  0  0.050117  0  3.892034  0  0  0.056282  0  3.908468  0  0.449142  0  0.046033  0.046227  0  3.881263  0
C  C79  1  0.41338550  0.34528005  0.04420419  1  0  0.091546  0  3.640011  0  0  0.051339  0  3.892839  0  0  0.057559  0  3.909257  0  0.473866  0  0.046494  0.047388  0  3.882141  0
C  C80  1  0.80103030  0.36927513  0.45595960  1  0  0.089889  0  3.639239  0  0  0.050055  0  3.892098  0  0  0.056223  0  3.908523  0  0.449085  0  0.046018  0.046165  0  3.881326  0
C  C81  1  0.58661547  0.65472076  0.95579624  1  0  0.091575  0  3.639959  0  0  0.051328  0  3.892849  0  0  0.057551  0  3.909261  0  0.473859  0  0.046492  0.047377  0  3.88215  0
C  C82  1  0.21986046  0.68614957  0.45449161  1  0  0.020179  0  3.711605  0  0  0.044006  0  3.951952  0  0  0.038598  0  3.975751  0  0.034716  0  -0.005932  0.047311  0  3.935827  0
C  C83  1  0.26830434  0.23450013  0.95462997  1  0  0.017593  0  3.716142  0  0  0.042437  0  3.95553  0  0  0.036978  0  3.979363  0  0.019531  0  -0.00618  0.045743  0  3.939365  0
C  C84  1  0.78014213  0.31385233  0.54550864  1  0  0.02026  0  3.711574  0  0  0.04407  0  3.951924  0  0  0.038663  0  3.975724  0  0.034655  0  -0.005939  0.047374  0  3.935801  0
C  C85  1  0.73169605  0.76549957  0.04537021  1  0  0.017553  0  3.716155  0  0  0.04239  0  3.955576  0  0  0.03693  0  3.97941  0  0.019503  0  -0.006201  0.045696  0  3.939411  0
C  C86  1  0.34043623  0.68619118  0.43387136  1  0  -0.059346  0  3.699507  0  0  -0.08441  0  3.941602  0  0  -0.082281  0  3.961964  0  -0.113017  0  -0.068225  -0.085532  0  3.927913  0
C  C87  1  0.24751085  0.09287065  0.93386287  1  0  -0.059194  0  3.700102  0  0  -0.084533  0  3.941902  0  0  -0.082469  0  3.962303  0  -0.104775  0  -0.068167  -0.08553  0  3.928048  0
C  C88  1  0.65956474  0.31380963  0.56612984  1  0  -0.059269  0  3.699409  0  0  -0.084337  0  3.941514  0  0  -0.082209  0  3.961878  0  -0.113213  0  -0.068191  -0.08546  0  3.927827  0
C  C89  1  0.75248895  0.90712797  0.06613706  1  0  -0.059148  0  3.700033  0  0  -0.08448  0  3.941831  0  0  -0.082417  0  3.962232  0  -0.104776  0  -0.068137  -0.085479  0  3.927978  0
C  C90  1  0.43588261  0.63447264  0.50412914  1  0  -0.118765  0  3.76186  0  0  -0.128203  0  4.01168  0  0  -0.135049  0  4.03403  0  -0.019718  0  -0.085347  -0.123794  0  3.996779  0
C  C91  1  0.36943931  0.06765029  0.00404468  1  0  -0.115472  0  3.762845  0  0  -0.125446  0  4.012683  0  0  -0.132297  0  4.035115  0  0.059636  0  -0.084173  -0.12103  0  3.997724  0
C  C92  1  0.56411454  0.36552488  0.49586911  1  0  -0.118884  0  3.761949  0  0  -0.12832  0  4.01177  0  0  -0.135168  0  4.034123  0  -0.019569  0  -0.085376  -0.12391  0  3.996869  0
C  C93  1  0.63056167  0.93235051  0.99595575  1  0  -0.115503  0  3.762787  0  0  -0.125467  0  4.012612  0  0  -0.132318  0  4.035043  0  0.059838  0  -0.084156  -0.12105  0  3.997653  0
C  C94  1  0.40835694  0.58303223  0.59287646  1  0  0.11342  0  3.708743  0  0  0.078909  0  3.965303  0  0  0.085281  0  3.98341  0  0.484345  0  0.042176  0.074921  0  3.952873  0
C  C95  1  0.50973152  0.18426966  0.09284225  1  0  0.111977  0  3.711685  0  0  0.076842  0  3.968527  0  0  0.083203  0  3.986674  0  0.425409  0  0.041097  0.072838  0  3.956109  0
C  C96  1  0.59164241  0.41696748  0.40712416  1  0  0.113526  0  3.70877  0  0  0.079017  0  3.965318  0  0  0.085391  0  3.983429  0  0.484346  0  0.042207  0.075029  0  3.952888  0
C  C97  1  0.49026946  0.81573115  0.90715818  1  0  0.11188  0  3.711686  0  0  0.076743  0  3.968533  0  0  0.083104  0  3.986679  0  0.425209  0  0.041062  0.072738  0  3.956117  0
C  C98  1  0.11839000  0.74680303  0.38355945  1  0  0.110885  0  3.682253  0  0  0.044476  0  3.948149  0  0  0.053608  0  3.95381  0  0.472177  0  -0.068775  0.038287  0  3.944393  0
C  C99  1  0.13682202  0.26502012  0.88364560  1  0  0.113263  0  3.683445  0  0  0.046576  0  3.949122  0  0  0.055765  0  3.954764  0  0.472912  0  -0.068078  0.040347  0  3.94535  0
C  C100  1  0.88161038  0.25319668  0.61643997  1  0  0.110778  0  3.682385  0  0  0.044377  0  3.948254  0  0  0.053507  0  3.953916  0  0.472367  0  -0.068799  0.038187  0  3.944501  0
C  C101  1  0.86317675  0.73497849  0.11635401  1  0  0.113279  0  3.68344  0  0  0.046604  0  3.949109  0  0  0.055791  0  3.954754  0  0.472886  0  -0.06805  0.040377  0  3.945336  0
N  N102  1  0.29128877  0.58082697  0.61205235  1  0  -0.312972  0  3.288637  0  0  -0.236554  0  3.561168  0  0  -0.254326  0  3.578287  0  -1.240187  0  -0.322406  -0.224353  0  3.549165  0
N  N103  1  0.53123271  0.32091267  0.11212771  1  0  -0.31335  0  3.290831  0  0  -0.235849  0  3.562456  0  0  -0.253674  0  3.579592  0  -1.234634  0  -0.32292  -0.22361  0  3.550484  0
N  N104  1  0.70871116  0.41917384  0.38794852  1  0  -0.312984  0  3.28871  0  0  -0.236587  0  3.561247  0  0  -0.254361  0  3.578368  0  -1.240181  0  -0.322426  -0.224385  0  3.549245  0
N  N105  1  0.46876723  0.67908813  0.88787239  1  0  -0.313316  0  3.290808  0  0  -0.235798  0  3.562443  0  0  -0.253624  0  3.579579  0  -1.234609  0  -0.322924  -0.22356  0  3.550472  0
O  O106  1  0.02036063  0.53157649  0.86492664  1  0  -0.60224  0  1.962815  0  0  -0.551227  0  2.184245  0  0  -0.57571  0  2.175328  0  -1.168172  0  -0.312401  -0.534133  0  2.190349  0
O  O107  1  0.83335025  0.84500944  0.36497475  1  0  -0.601601  0  1.961688  0  0  -0.55043  0  2.182651  0  0  -0.574877  0  2.173756  0  -1.171978  0  -0.31236  -0.533346  0  2.188738  0
O  O108  1  0.97963976  0.46842322  0.13507355  1  0  -0.60225  0  1.962804  0  0  -0.551246  0  2.18424  0  0  -0.575729  0  2.175325  0  -1.168166  0  -0.312416  -0.534147  0  2.190343  0
O  O109  1  0.16665014  0.15499026  0.63502543  1  0  -0.601572  0  1.961697  0  0  -0.550403  0  2.182659  0  0  -0.574848  0  2.173763  0  -1.171955  0  -0.31235  -0.533319  0  2.188747  0
O  O110  1  0.12284109  0.60709083  0.74320975  1  0  -0.653072  0  2.107397  0  0  -0.581654  0  2.375009  0  0  -0.610221  0  2.36354  0  -1.192128  0  -0.32162  -0.561559  0  2.382198  0
O  O111  1  0.63604433  0.62013187  0.24291451  1  0  -0.652968  0  2.11016  0  0  -0.58168  0  2.377898  0  0  -0.610344  0  2.366606  0  -1.192699  0  -0.321449  -0.561544  0  2.385076  0
O  O112  1  0.87715884  0.39290998  0.25679035  1  0  -0.653081  0  2.107394  0  0  -0.581643  0  2.374975  0  0  -0.610209  0  2.363505  0  -1.192128  0  -0.321617  -0.561567  0  2.38221  0
O  O113  1  0.36395561  0.37986893  0.75708559  1  0  -0.652894  0  2.110086  0  0  -0.581611  0  2.377832  0  0  -0.610278  0  2.366545  0  -1.192724  0  -0.321438  -0.561477  0  2.385013  0
O  O114  1  0.97260725  0.69130795  0.38816243  1  0  -0.574607  0  2.196768  0  0  -0.503497  0  2.444843  0  0  -0.524428  0  2.432309  0  -1.156547  0  -0.393971  -0.48839  0  2.453402  0
O  O115  1  0.19701183  0.41578601  0.88820865  1  0  -0.575166  0  2.197197  0  0  -0.503972  0  2.444925  0  0  -0.52487  0  2.432328  0  -1.157421  0  -0.394195  -0.488873  0  2.453533  0
O  O116  1  0.02739210  0.30869175  0.61183742  1  0  -0.574574  0  2.196787  0  0  -0.503488  0  2.444871  0  0  -0.524417  0  2.432336  0  -1.156562  0  -0.393956  -0.488382  0  2.453429  0
O  O117  1  0.80298532  0.58421151  0.11179037  1  0  -0.575189  0  2.197186  0  0  -0.503999  0  2.444895  0  0  -0.524897  0  2.4323  0  -1.157447  0  -0.394203  -0.488897  0  2.4535  0
