# generated using pymatgen
data_Zr6H41C60Br5O32
_symmetry_space_group_name_H-M   'P 1'
_cell_length_a   14.90991045
_cell_length_b   14.84857460
_cell_length_c   14.84697281
_cell_angle_alpha   59.16393396
_cell_angle_beta   59.75791323
_cell_angle_gamma   59.78976608
_symmetry_Int_Tables_number   1
_chemical_formula_structural   Zr6H41C60Br5O32
_chemical_formula_sum   'Zr6 H41 C60 Br5 O32'
_cell_volume   2301.38205662
_cell_formula_units_Z   1
loop_
 _symmetry_equiv_pos_site_id
 _symmetry_equiv_pos_as_xyz
  1  'x, y, z'
loop_
 _atom_site_type_symbol
 _atom_site_label
 _atom_site_symmetry_multiplicity
 _atom_site_fract_x
 _atom_site_fract_y
 _atom_site_fract_z
 _atom_site_occupancy
 _atom_site_pbe_bader_charge
 _atom_site_pbe_bader_spin_density
 _atom_site_pbe_cm5_charge
 _atom_site_pbe_ddec_charge
 _atom_site_pbe_ddec_spin_density
 _atom_site_pbe_ddec_sum_bond_order
 _atom_site_pbe_magmom
Zr  Zr0  1  0.88479028  0.37872241  0.62602430  1  2.636798  0  1.629124  2.371803  0  2.76204  0
Zr  Zr1  1  0.12000709  0.62317552  0.38093958  1  2.636718  0  1.616085  2.373809  0  2.718147  0
Zr  Zr2  1  0.12318184  0.38172844  0.62359851  1  2.640227  0  1.622103  2.379113  0  2.741125  0
Zr  Zr3  1  0.88413306  0.61931353  0.38451211  1  2.633863  0  1.627651  2.368604  0  2.763729  0
Zr  Zr4  1  0.88431771  0.61730000  0.62432950  1  2.637124  0  1.628766  2.374534  0  2.763159  0
Zr  Zr5  1  0.12235447  0.37919692  0.38806557  1  2.639117  0  1.626605  2.372227  0  2.761049  0
H  H6  1  0.91004378  0.40393200  0.78778040  1  0.622698  0  0.33126  0.423374  0  0.858339  0
H  H7  1  0.90763995  0.78273978  0.40689845  1  0.627153  0  0.330212  0.420051  0  0.860741  0
H  H8  1  0.28410636  0.40842768  0.40823465  1  0.624756  0  0.330772  0.424176  0  0.857973  0
H  H9  1  0.91004813  0.40505036  0.41301302  1  0.607799  0  0.331077  0.419644  0  0.863259  0
H  H10  1  0.57323260  0.37497264  0.89486643  1  0.132977  0  0.106506  0.123151  0  1.014109  0
H  H11  1  0.51985093  0.77223901  0.86604531  1  0.044804  0  0.093012  0.103449  0  1.008937  0
H  H12  1  0.60368281  0.68532340  0.95276310  1  0.050989  0  0.094369  0.103133  0  1.008686  0
H  H13  1  0.43413634  0.67350199  0.12246860  1  0.076864  0  0.082013  0.093875  0  1.057802  0
H  H14  1  0.35008526  0.76300977  0.03622984  1  0.068501  0  0.096882  0.110567  0  0.99935  0
H  H15  1  0.84960470  0.09716844  0.64149961  1  0.094333  0  0.107087  0.124074  0  1.011524  0
H  H16  1  0.24414502  0.04857287  0.31887879  1  0.045742  0  0.094402  0.103294  0  1.015998  0
H  H17  1  0.15392575  0.13605060  0.23887915  1  0.062545  0  0.093249  0.103425  0  1.003764  0
H  H18  1  0.14629227  0.96575244  0.24689876  1  0.058939  0  0.095588  0.10715  0  0.99058  0
H  H19  1  0.23290285  0.87930579  0.33046744  1  0.073716  0  0.082156  0.096142  0  1.06068  0
H  H20  1  0.58011942  0.88933749  0.66463413  1  0.139285  0  0.101448  0.115536  0  1.036929  0
H  H21  1  0.53463486  0.88294435  0.33267542  1  0.048634  0  0.097488  0.108421  0  0.989396  0
H  H22  1  0.62023454  0.96739974  0.25491375  1  0.067728  0  0.097572  0.108581  0  0.985721  0
H  H23  1  0.45093233  0.13868322  0.26396113  1  0.082355  0  0.089024  0.10053  0  1.022669  0
H  H24  1  0.36611994  0.05401150  0.34134046  1  0.044474  0  0.095476  0.105599  0  1.013397  0
H  H25  1  0.13714358  0.34524564  0.10651838  1  0.10327  0  0.099518  0.114007  0  1.040295  0
H  H26  1  0.84190049  0.75632078  0.03443791  1  0.053348  0  0.098978  0.112067  0  0.989742  0
H  H27  1  0.75344794  0.67443989  0.11968279  1  0.063902  0  0.096957  0.1067  0  0.989949  0
H  H28  1  0.76112480  0.66931499  0.94863111  1  0.031207  0  0.094706  0.104108  0  1.006701  0
H  H29  1  0.85104956  0.74911642  0.86318821  1  0.076162  0  0.087169  0.101298  0  1.032421  0
H  H30  1  0.88075462  0.01981664  0.18021337  1  0.002419  0  0.089853  0.084001  0  0.980304  0
H  H31  1  0.01833006  0.99551934  0.15758897  1  0.013206  0  0.090942  0.088315  0  0.995938  0
H  H32  1  0.01870678  0.15481410  0.99819344  1  0.04876  0  0.083927  0.081166  0  1.022704  0
H  H33  1  0.88137889  0.17743617  0.02138577  1  0.017975  0  0.089402  0.085238  0  0.978436  0
H  H34  1  0.17713686  0.03788021  0.88130946  1  0.049233  0  0.080204  0.079211  0  1.04222  0
H  H35  1  0.15132996  0.97832327  0.82407632  1  0.015685  0  0.089911  0.088381  0  0.974157  0
H  H36  1  0.17494538  0.88005793  0.04289052  1  0.021666  0  0.090063  0.087007  0  1.007824  0
H  H37  1  0.15176505  0.82002428  0.98361824  1  0.027103  0  0.091887  0.088964  0  0.971861  0
H  H38  1  0.84257392  0.93625679  0.09653417  1  0.029292  0  0.08902  0.084462  0  0.998673  0
H  H39  1  0.95153403  0.85420188  0.01639832  1  0.01686  0  0.09027  0.086387  0  0.989853  0
H  H40  1  0.95353851  0.01287912  0.85605937  1  0.009117  0  0.09107  0.091262  0  0.976676  0
H  H41  1  0.84393977  0.09452789  0.93626710  1  0.038204  0  0.090596  0.090098  0  0.987411  0
H  H42  1  0.59401777  0.64801892  0.36130642  1  0.117211  0  0.104727  0.119174  0  1.02401  0
H  H43  1  0.53236906  0.32857625  0.76207133  1  0.044542  0  0.095467  0.106973  0  0.99652  0
H  H44  1  0.61723544  0.24620158  0.67493953  1  0.059608  0  0.095438  0.106796  0  0.992812  0
H  H45  1  0.44814753  0.25886842  0.66310957  1  0.059299  0  0.085286  0.097128  0  1.035469  0
H  H46  1  0.36343972  0.34105271  0.74978701  1  0.070249  0  0.08627  0.100373  0  1.030472  0
C  C47  1  0.69366867  0.50683416  0.80033092  1  1.552155  0  0.237033  0.645713  0  4.107803  0
C  C48  1  0.99391662  0.80681703  0.50500575  1  1.589642  0  0.233115  0.651387  0  4.110076  0
C  C49  1  0.29411762  0.50567891  0.19060687  1  1.575196  0  0.23492  0.654079  0  4.102261  0
C  C50  1  0.00458984  0.19539730  0.50619785  1  1.547559  0  0.234647  0.641149  0  4.11595  0
C  C51  1  0.00553699  0.19077233  0.80728709  1  1.542689  0  0.243771  0.641086  0  4.016674  0
C  C52  1  0.69888986  0.49991411  0.50929144  1  1.577466  0  0.236533  0.646268  0  4.106082  0
C  C53  1  0.00336096  0.80469218  0.19375550  1  1.53692  0  0.243551  0.637151  0  4.02435  0
C  C54  1  0.30305147  0.51259571  0.49733945  1  1.574834  0  0.234517  0.651114  0  4.097003  0
C  C55  1  0.00748067  0.49613034  0.80752870  1  1.592959  0  0.234422  0.652065  0  4.109205  0
C  C56  1  0.30042048  0.19085404  0.51714395  1  1.569607  0  0.235171  0.652849  0  4.107874  0
C  C57  1  0.00425686  0.50164892  0.20154957  1  1.55126  0  0.234742  0.64272  0  4.109497  0
C  C58  1  0.69569070  0.79510837  0.50859691  1  1.554349  0  0.236076  0.645911  0  4.107861  0
C  C59  1  0.58535826  0.51519304  0.89090706  1  0.040161  0  -0.010421  -0.061278  0  3.96906  0
C  C60  1  0.38616129  0.51055638  0.08254324  1  0.064222  0  -0.016044  -0.132504  0  3.927685  0
C  C61  1  0.53029523  0.59570130  0.94011846  1  -0.051426  0  -0.002984  0.061911  0  3.8721  0
C  C62  1  0.43786005  0.43476728  0.02543458  1  -0.11791  0  -0.006819  0.097586  0  3.918605  0
C  C63  1  0.43486579  0.59177935  0.03280672  1  -0.065608  0  -5.9e-05  0.080259  0  3.876542  0
C  C64  1  0.53446177  0.43659859  0.93409612  1  0.015601  0  -0.093578  -0.165604  0  3.98274  0
C  C65  1  0.53181793  0.69743157  0.93934024  1  -0.017694  0  -0.151564  -0.192939  0  3.866512  0
C  C66  1  0.42509427  0.69162781  0.04536961  1  -0.026136  0  -0.156159  -0.198944  0  3.86889  0
C  C67  1  0.99697104  0.10304669  0.49944475  1  0.035386  0  -0.010557  -0.061863  0  3.972266  0
C  C68  1  0.98404225  0.91320602  0.50216370  1  -0.001976  0  -0.015855  -0.130935  0  3.929373  0
C  C69  1  0.07002052  0.05611386  0.41690601  1  0.006455  0  -0.003651  0.060924  0  3.875159  0
C  C70  1  0.90322811  0.96920824  0.57906236  1  -0.079139  0  -0.006981  0.097077  0  3.919515  0
C  C71  1  0.06337679  0.96392013  0.42020247  1  -0.013828  0  -0.000152  0.08018  0  3.87967  0
C  C72  1  0.91129866  0.05895577  0.57890079  1  -0.007436  0  -0.094001  -0.166875  0  3.984789  0
C  C73  1  0.16883612  0.06115449  0.31126048  1  -0.035651  0  -0.151291  -0.192846  0  3.8674  0
C  C74  1  0.16267760  0.95536960  0.31659143  1  -0.02867  0  -0.155761  -0.197939  0  3.875196  0
C  C75  1  0.59202821  0.89136913  0.51344610  1  0.072858  0  -0.009745  -0.059722  0  3.973422  0
C  C76  1  0.39669398  0.08632890  0.52341889  1  -0.043624  0  -0.01563  -0.132045  0  3.925006  0
C  C77  1  0.54097036  0.94799614  0.43358081  1  -0.026967  0  -0.004221  0.059995  0  3.886899  0
C  C78  1  0.44800182  0.02560085  0.60617092  1  -0.062283  0  -0.00604  0.098563  0  3.914476  0
C  C79  1  0.44721555  0.04202566  0.43913953  1  -0.024271  0  0.000343  0.07988  0  3.868041  0
C  C80  1  0.54223453  0.93209318  0.60070937  1  -0.042718  0  -0.094432  -0.168516  0  3.996711  0
C  C81  1  0.54631201  0.95369379  0.32624620  1  -0.028563  0  -0.149701  -0.195115  0  3.871512  0
C  C82  1  0.44066509  0.06072960  0.33182903  1  -0.006158  0  -0.152016  -0.196  0  3.868676  0
C  C83  1  0.00219765  0.49862614  0.10415487  1  -0.08011  0  -0.010648  -0.060208  0  3.974217  0
C  C84  1  0.00663955  0.48940108  0.91159086  1  0.033523  0  -0.015304  -0.13033  0  3.926174  0
C  C85  1  0.92639147  0.57864569  0.04935143  1  0.013254  0  -0.0039  0.06073  0  3.885939  0
C  C86  1  0.07934571  0.40469923  0.97252528  1  -0.116002  0  -0.006977  0.097884  0  3.914084  0
C  C87  1  0.93008832  0.57388602  0.95601603  1  0.010012  0  0.000948  0.081599  0  3.865934  0
C  C88  1  0.07822784  0.41048286  0.06396253  1  0.066275  0  -0.095386  -0.169611  0  4.001481  0
C  C89  1  0.82785734  0.68412009  0.04729049  1  -0.029691  0  -0.150128  -0.195349  0  3.868723  0
C  C90  1  0.83291325  0.67994502  0.94052826  1  -0.00798  0  -0.153512  -0.197763  0  3.869734  0
C  C91  1  0.96405229  0.00999967  0.11848042  1  -0.002546  0  -0.154973  -0.164836  0  3.83913  0
C  C92  1  0.96460051  0.11572625  0.01232115  1  -0.03611  0  -0.157398  -0.168528  0  3.837541  0
C  C93  1  0.00463890  0.08521744  0.90966512  1  0.048295  0  -0.016268  0.019736  0  3.801824  0
C  C94  1  0.12152357  0.99956515  0.89757013  1  -0.010024  0  -0.163696  -0.178129  0  3.870913  0
C  C95  1  0.12095070  0.89452313  0.00361118  1  -0.029228  0  -0.158662  -0.167473  0  3.854478  0
C  C96  1  0.00335065  0.90728505  0.08844240  1  0.042292  0  -0.015993  0.01789  0  3.802301  0
C  C97  1  0.92586623  0.92788886  0.03536694  1  -0.008799  0  -0.16379  -0.177476  0  3.887886  0
C  C98  1  0.92680978  0.03296301  0.92936429  1  -0.025243  0  -0.164393  -0.176363  0  3.88023  0
C  C99  1  0.59856380  0.50206900  0.50804016  1  -0.01016  0  -0.0102  -0.059466  0  3.969069  0
C  C100  1  0.40377125  0.51403589  0.49550610  1  0.02752  0  -0.014886  -0.13127  0  3.91211  0
C  C101  1  0.54476051  0.42433069  0.58488639  1  -0.018791  0  -0.002705  0.062856  0  3.874472  0
C  C102  1  0.46083771  0.59173359  0.41689794  1  -0.159467  0  -0.008752  0.094473  0  3.92858  0
C  C103  1  0.45112368  0.43128158  0.57805045  1  0.023856  0  0.002242  0.08683  0  3.853643  0
C  C104  1  0.55368844  0.58616895  0.42351095  1  0.029705  0  -0.09653  -0.173142  0  4.000154  0
C  C105  1  0.54507164  0.31983604  0.68696868  1  -0.026146  0  -0.15157  -0.194656  0  3.86637  0
C  C106  1  0.43922706  0.32767885  0.67945877  1  -0.013723  0  -0.157789  -0.19907  0  3.86808  0
Br  Br107  1  0.38175423  0.32426057  0.06373322  1  -0.050323  0  0.040705  -0.051531  0  1.477232  0
Br  Br108  1  0.77223584  0.93409320  0.68586378  1  -0.051812  0  0.043182  -0.051299  0  1.483521  0
Br  Br109  1  0.39647729  0.06289579  0.73361356  1  -0.050921  0  0.054258  -0.038447  0  1.518036  0
Br  Br110  1  0.18214320  0.27092183  0.94165828  1  -0.054769  0  0.045523  -0.047561  0  1.495497  0
Br  Br111  1  0.42052146  0.71165170  0.29136464  1  -0.060363  0  0.057446  -0.04282  0  1.549958  0
O  O112  1  0.73637202  0.42690870  0.76494071  1  -1.183569  0  -0.3548  -0.616105  0  2.282402  0
O  O113  1  0.07235223  0.77073541  0.42721280  1  -1.176078  0  -0.337714  -0.597733  0  2.246688  0
O  O114  1  0.25837524  0.58304557  0.22723142  1  -1.17542  0  -0.339862  -0.600936  0  2.244771  0
O  O115  1  0.93118961  0.23151430  0.58547202  1  -1.181777  0  -0.351477  -0.611909  0  2.280941  0
O  O116  1  0.08064534  0.23116499  0.76936631  1  -1.185541  0  -0.349061  -0.619338  0  2.289435  0
O  O117  1  0.73901461  0.57684820  0.43164247  1  -1.182529  0  -0.356791  -0.618738  0  2.292155  0
O  O118  1  0.92785535  0.76330066  0.23593669  1  -1.190747  0  -0.353661  -0.619934  0  2.298258  0
O  O119  1  0.26630390  0.43406028  0.57625543  1  -1.168482  0  -0.336244  -0.591033  0  2.247193  0
O  O120  1  0.92928662  0.57372482  0.77066304  1  -1.179953  0  -0.340225  -0.598339  0  2.249649  0
O  O121  1  0.26340734  0.22875017  0.43893697  1  -1.17635  0  -0.343005  -0.601937  0  2.254399  0
O  O122  1  0.08039628  0.42514838  0.24175392  1  -1.177724  0  -0.35214  -0.610967  0  2.309651  0
O  O123  1  0.73701044  0.75636959  0.58353977  1  -1.179318  0  -0.354428  -0.613343  0  2.314614  0
O  O124  1  0.26335304  0.23652174  0.58758938  1  -1.176154  0  -0.362593  -0.624109  0  2.371245  0
O  O125  1  0.92821538  0.58019007  0.23797698  1  -1.181314  0  -0.35185  -0.60865  0  2.260301  0
O  O126  1  0.73602262  0.76069178  0.42837676  1  -1.175313  0  -0.350976  -0.608496  0  2.259788  0
O  O127  1  0.08589329  0.42505235  0.76213473  1  -1.185898  0  -0.364616  -0.625729  0  2.370995  0
O  O128  1  0.92819984  0.23361139  0.76768523  1  -1.18574  0  -0.364617  -0.625831  0  2.306118  0
O  O129  1  0.26134005  0.58783898  0.42078022  1  -1.186846  0  -0.364062  -0.632955  0  2.340648  0
O  O130  1  0.07819470  0.76773013  0.23464079  1  -1.184106  0  -0.359202  -0.628825  0  2.289565  0
O  O131  1  0.73785857  0.42095223  0.58639306  1  -1.179014  0  -0.347616  -0.606687  0  2.250385  0
O  O132  1  0.08385734  0.23206059  0.43099894  1  -1.177107  0  -0.35128  -0.607749  0  2.260913  0
O  O133  1  0.73656335  0.57907646  0.76698493  1  -1.175533  0  -0.350583  -0.607171  0  2.264615  0
O  O134  1  0.92469780  0.75860416  0.58535351  1  -1.185032  0  -0.366467  -0.626263  0  2.376296  0
O  O135  1  0.26067548  0.42257486  0.24085678  1  -1.183305  0  -0.366488  -0.626308  0  2.375392  0
O  O136  1  0.93679142  0.43149599  0.43938238  1  -1.237985  0  -0.697151  -1.07181  0  2.378582  0
O  O137  1  0.20436854  0.43485906  0.43558500  1  -1.255349  0  -0.691865  -1.069534  0  2.356009  0
O  O138  1  0.93449591  0.70222239  0.43564891  1  -1.25484  0  -0.695368  -1.068644  0  2.374321  0
O  O139  1  0.93663943  0.43181285  0.70722295  1  -1.252188  0  -0.696606  -1.073476  0  2.371309  0
O  O140  1  0.05255491  0.55088188  0.55147570  1  -1.201649  0  -0.789777  -1.149335  0  2.12646  0
O  O141  1  0.85495611  0.54837127  0.55455785  1  -1.199991  0  -0.791824  -1.149686  0  2.129045  0
O  O142  1  0.05212534  0.55016404  0.35501397  1  -1.20173  0  -0.789323  -1.146684  0  2.125405  0
O  O143  1  0.05313087  0.35064428  0.55647003  1  -1.201659  0  -0.791937  -1.15054  0  2.131944  0
