# generated using pymatgen
data_Cd3H56C76(N3O7)2
_symmetry_space_group_name_H-M   'P 1'
_cell_length_a   12.79231901
_cell_length_b   12.79234091
_cell_length_c   24.52828883
_cell_angle_alpha   75.11086617
_cell_angle_beta   75.11070998
_cell_angle_gamma   76.77857666
_symmetry_Int_Tables_number   1
_chemical_formula_structural   Cd3H56C76(N3O7)2
_chemical_formula_sum   'Cd6 H112 C152 N12 O28'
_cell_volume   3691.57336783
_cell_formula_units_Z   2
loop_
 _symmetry_equiv_pos_site_id
 _symmetry_equiv_pos_as_xyz
  1  'x, y, z'
loop_
 _atom_site_type_symbol
 _atom_site_label
 _atom_site_symmetry_multiplicity
 _atom_site_fract_x
 _atom_site_fract_y
 _atom_site_fract_z
 _atom_site_occupancy
 _atom_site_pbe_bader_charge
 _atom_site_pbe_bader_spin_density
 _atom_site_pbe_cm5_charge
 _atom_site_pbe_ddec_charge
 _atom_site_pbe_ddec_spin_density
 _atom_site_pbe_ddec_sum_bond_order
 _atom_site_pbe_magmom
Cd  Cd0  1  0.25609153  0.74390995  0.74999965  1  1.415567  0  0.809996  1.147724  0  2.112604  0
Cd  Cd1  1  0.74390834  0.25609065  0.24999976  1  1.415571  0  0.810014  1.147774  0  2.112512  0
Cd  Cd2  1  0.87572514  0.49620068  0.19795089  1  1.300066  0  0.773537  0.943729  0  2.183326  0
Cd  Cd3  1  0.50380103  0.12427376  0.30204916  1  1.299975  0  0.77351  0.943743  0  2.183454  0
Cd  Cd4  1  0.12427473  0.50380154  0.80204830  1  1.300084  0  0.773542  0.943755  0  2.183287  0
Cd  Cd5  1  0.49620049  0.87572576  0.69795018  1  1.299966  0  0.773505  0.943751  0  2.183415  0
H  H6  1  0.28465517  0.18598643  0.45684686  1  0.087312  0  0.098309  0.102747  0  1.046597  0
H  H7  1  0.81401436  0.71534751  0.04315216  1  0.086931  0  0.098319  0.102764  0  1.046541  0
H  H8  1  0.71534470  0.81401417  0.54315296  1  0.087335  0  0.098323  0.102782  0  1.046556  0
H  H9  1  0.18598387  0.28465338  0.95684743  1  0.08737  0  0.098358  0.102834  0  1.046545  0
H  H10  1  0.37258344  0.08853834  0.53926792  1  0.065683  0  0.100336  0.10166  0  1.017295  0
H  H11  1  0.91146411  0.62741832  0.96073118  1  0.06561  0  0.10034  0.101723  0  1.017245  0
H  H12  1  0.62741807  0.91146360  0.46073109  1  0.065592  0  0.100337  0.101689  0  1.017287  0
H  H13  1  0.08853413  0.37258096  0.03926822  1  0.065626  0  0.100327  0.101696  0  1.017258  0
H  H14  1  0.82672621  0.26553789  0.40989066  1  0.081435  0  0.100798  0.10344  0  1.020091  0
H  H15  1  0.73445926  0.17327556  0.09010829  1  0.081391  0  0.100802  0.10346  0  1.020094  0
H  H16  1  0.17327448  0.73446257  0.59010866  1  0.081431  0  0.100783  0.103409  0  1.020081  0
H  H17  1  0.26554307  0.82672543  0.90989074  1  0.081412  0  0.100787  0.103435  0  1.020078  0
H  H18  1  0.61082754  0.34201798  0.14452612  1  0.15037  0  0.103264  0.118129  0  1.041876  0
H  H19  1  0.65798164  0.38917124  0.35547306  1  0.150369  0  0.103255  0.118113  0  1.041859  0
H  H20  1  0.38917150  0.65798195  0.85547471  1  0.15038  0  0.103275  0.118129  0  1.041872  0
H  H21  1  0.34202070  0.61082733  0.64452466  1  0.150413  0  0.103226  0.118074  0  1.041867  0
H  H22  1  0.91293155  0.18348789  0.49430091  1  0.052109  0  0.094157  0.091742  0  1.050243  0
H  H23  1  0.81650996  0.08707117  0.00569732  1  0.052084  0  0.094149  0.091725  0  1.050235  0
H  H24  1  0.08706833  0.81651191  0.50569820  1  0.052087  0  0.094156  0.09173  0  1.050222  0
H  H25  1  0.18349156  0.91292996  0.99430140  1  0.051792  0  0.094163  0.091732  0  1.05026  0
H  H26  1  0.63865516  0.67898416  0.06603697  1  0.095173  0  0.107163  0.111492  0  1.004874  0
H  H27  1  0.32101604  0.36133999  0.43396483  1  0.095279  0  0.107153  0.111469  0  1.00487  0
H  H28  1  0.36134471  0.32101483  0.93396265  1  0.09516  0  0.107157  0.111468  0  1.004871  0
H  H29  1  0.67898630  0.63865776  0.56603463  1  0.095131  0  0.107141  0.111454  0  1.004883  0
H  H30  1  0.51510099  0.33603644  0.07125155  1  0.054427  0  0.099129  0.092448  0  1.02688  0
H  H31  1  0.66396430  0.48489841  0.42874745  1  0.054421  0  0.099115  0.092442  0  1.026881  0
H  H32  1  0.48489806  0.66396268  0.92874939  1  0.054439  0  0.099114  0.092424  0  1.026874  0
H  H33  1  0.33603804  0.51510178  0.57125005  1  0.054454  0  0.099104  0.092415  0  1.026854  0
H  H34  1  0.08385706  0.94928057  0.62603281  1  0.106603  0  0.099154  0.099563  0  1.046953  0
H  H35  1  0.05072156  0.91614665  0.87396633  1  0.106528  0  0.099143  0.09953  0  1.046939  0
H  H36  1  0.91614445  0.05072136  0.37396703  1  0.106548  0  0.099129  0.099535  0  1.046963  0
H  H37  1  0.94927832  0.08385234  0.12603329  1  0.106544  0  0.099147  0.099512  0  1.046959  0
H  H38  1  0.23360721  0.18445137  0.38121676  1  0.069627  0  0.100955  0.114486  0  1.034436  0
H  H39  1  0.81554880  0.76639433  0.11878211  1  0.069659  0  0.100955  0.114495  0  1.034429  0
H  H40  1  0.76639184  0.81555100  0.61878293  1  0.069614  0  0.100949  0.114479  0  1.034437  0
H  H41  1  0.18444779  0.23360603  0.88121736  1  0.069638  0  0.100961  0.114506  0  1.034423  0
H  H42  1  0.99422003  0.04476032  0.54461018  1  0.060266  0  0.098623  0.101088  0  1.021458  0
H  H43  1  0.95523823  0.00578281  0.95538932  1  0.060472  0  0.098647  0.101136  0  1.021485  0
H  H44  1  0.00578231  0.95523905  0.45538988  1  0.060526  0  0.098658  0.101168  0  1.021431  0
H  H45  1  0.04476082  0.99421713  0.04460988  1  0.060509  0  0.098643  0.101123  0  1.021447  0
H  H46  1  0.14544120  0.27479803  0.29861667  1  0.091809  0  0.100972  0.106416  0  1.014183  0
H  H47  1  0.72520418  0.85456056  0.20138200  1  0.091867  0  0.100974  0.106444  0  1.01413  0
H  H48  1  0.85455867  0.72520500  0.70138241  1  0.091832  0  0.100999  0.106437  0  1.014191  0
H  H49  1  0.27479569  0.14544166  0.79861719  1  0.091834  0  0.100989  0.106428  0  1.014183  0
H  H50  1  0.54539191  0.67378496  0.99107147  1  0.056537  0  0.101254  0.098292  0  1.015275  0
H  H51  1  0.32621668  0.45460674  0.50892798  1  0.056555  0  0.101227  0.098243  0  1.015288  0
H  H52  1  0.45461043  0.32621360  0.00892747  1  0.056523  0  0.101229  0.098224  0  1.015346  0
H  H53  1  0.67378730  0.54539154  0.49107038  1  0.056479  0  0.101248  0.09829  0  1.015292  0
H  H54  1  0.03044644  0.58053000  0.05086136  1  0.114577  0  0.110702  0.126809  0  0.998571  0
H  H55  1  0.41947043  0.96955545  0.44913982  1  0.114506  0  0.110749  0.126909  0  0.998598  0
H  H56  1  0.96955260  0.41947154  0.94913967  1  0.114541  0  0.110732  0.126863  0  0.99858  0
H  H57  1  0.58053026  0.03044582  0.55085980  1  0.114538  0  0.110705  0.126837  0  0.998586  0
H  H58  1  0.18672487  0.64218169  0.97247339  1  0.066978  0  0.101961  0.106146  0  1.002933  0
H  H59  1  0.35782014  0.81327808  0.52752851  1  0.066886  0  0.101967  0.10613  0  1.003007  0
H  H60  1  0.81327500  0.35781811  0.02752694  1  0.066957  0  0.101943  0.106093  0  1.002973  0
H  H61  1  0.64218136  0.18672385  0.47247173  1  0.06691  0  0.101939  0.106092  0  1.003027  0
H  H62  1  0.99650360  0.85137192  0.18713751  1  0.070714  0  0.104394  0.106179  0  1.019694  0
H  H63  1  0.14862619  0.00349776  0.31286405  1  0.070703  0  0.104394  0.106178  0  1.019636  0
H  H64  1  0.00349709  0.14862449  0.81286275  1  0.070719  0  0.104408  0.106203  0  1.019647  0
H  H65  1  0.85137367  0.99650527  0.68713504  1  0.070662  0  0.104393  0.106147  0  1.019683  0
H  H66  1  0.90168123  0.02310477  0.21911563  1  0.096856  0  0.10638  0.108414  0  1.013944  0
H  H67  1  0.97689474  0.09831904  0.28088424  1  0.096846  0  0.106375  0.108404  0  1.013948  0
H  H68  1  0.09831864  0.97689260  0.78088421  1  0.096826  0  0.106391  0.10842  0  1.013942  0
H  H69  1  0.02310431  0.90168171  0.71911485  1  0.096877  0  0.106369  0.108393  0  1.013919  0
H  H70  1  0.00246895  0.62125770  0.25151649  1  0.163257  0  0.143148  0.114548  0  0.991798  0
H  H71  1  0.37874127  0.99753087  0.24848519  1  0.163347  0  0.143135  0.114531  0  0.991815  0
H  H72  1  0.99753091  0.37874371  0.74848404  1  0.163276  0  0.14313  0.114519  0  0.991795  0
H  H73  1  0.62125777  0.00246907  0.75151523  1  0.163323  0  0.143143  0.114537  0  0.991821  0
H  H74  1  0.47656547  0.43466704  0.22564365  1  0.068611  0  0.102464  0.104542  0  1.026229  0
H  H75  1  0.56533410  0.52343393  0.27435579  1  0.068599  0  0.102458  0.104534  0  1.026213  0
H  H76  1  0.52343604  0.56533247  0.77435691  1  0.068606  0  0.102456  0.104543  0  1.026244  0
H  H77  1  0.43466741  0.47656638  0.72564426  1  0.068626  0  0.102445  0.104533  0  1.026165  0
H  H78  1  0.29875924  0.52625915  0.19723049  1  0.06038  0  0.099138  0.094763  0  1.042978  0
H  H79  1  0.47374166  0.70123855  0.30277059  1  0.060373  0  0.099153  0.094797  0  1.042941  0
H  H80  1  0.70124145  0.47374049  0.80277016  1  0.060352  0  0.099121  0.094769  0  1.04304  0
H  H81  1  0.52625903  0.29876190  0.69722955  1  0.060396  0  0.099125  0.094744  0  1.043044  0
H  H82  1  0.31550334  0.74885714  0.09208973  1  0.085305  0  0.107085  0.119177  0  0.994165  0
H  H83  1  0.25114984  0.68449341  0.40791282  1  0.085384  0  0.107111  0.119253  0  0.994186  0
H  H84  1  0.68449653  0.25114427  0.90791079  1  0.085335  0  0.107081  0.119182  0  0.994168  0
H  H85  1  0.74885002  0.31550719  0.59208823  1  0.085391  0  0.107103  0.119237  0  0.994169  0
H  H86  1  0.32508086  0.72461344  0.99314988  1  0.049523  0  0.096546  0.088455  0  1.039302  0
H  H87  1  0.27539102  0.67491884  0.50685248  1  0.049437  0  0.096551  0.088392  0  1.039302  0
H  H88  1  0.67491819  0.27538811  0.00685033  1  0.049506  0  0.096553  0.088453  0  1.039294  0
H  H89  1  0.72460966  0.32508243  0.49314796  1  0.049416  0  0.096542  0.088358  0  1.039338  0
H  H90  1  0.66106180  0.59893957  0.31864525  1  0.081327  0  0.119792  0.044265  0  1.021671  0
H  H91  1  0.40106563  0.33893644  0.18135460  1  0.081437  0  0.119849  0.044419  0  1.021657  0
H  H92  1  0.33893806  0.40106022  0.68135549  1  0.081327  0  0.119795  0.044286  0  1.021639  0
H  H93  1  0.59893507  0.66106159  0.81864585  1  0.081441  0  0.119837  0.044453  0  1.021644  0
H  H94  1  0.86920638  0.76848049  0.28410505  1  0.098845  0  0.103716  0.112609  0  1.048198  0
H  H95  1  0.23151950  0.13079417  0.21589640  1  0.09884  0  0.103723  0.112618  0  1.048182  0
H  H96  1  0.13079267  0.23152106  0.71589435  1  0.098808  0  0.103727  0.112582  0  1.048197  0
H  H97  1  0.76847624  0.86920712  0.78410795  1  0.099005  0  0.103744  0.112649  0  1.048091  0
H  H98  1  0.83093069  0.79265991  0.35605390  1  0.061219  0  0.105038  0.121927  0  0.980159  0
H  H99  1  0.20733983  0.16907086  0.14394666  1  0.061263  0  0.105062  0.121947  0  0.980193  0
H  H100  1  0.16906918  0.20734312  0.64394519  1  0.061191  0  0.105018  0.121891  0  0.980161  0
H  H101  1  0.79265592  0.83092719  0.85605771  1  0.061742  0  0.105018  0.121908  0  0.980124  0
H  H102  1  0.76431865  0.88128578  0.30120072  1  0.129153  0  0.108085  0.132859  0  1.00344  0
H  H103  1  0.11871496  0.23568506  0.19880033  1  0.129179  0  0.108094  0.132885  0  1.003391  0
H  H104  1  0.23567957  0.11871592  0.69879836  1  0.129193  0  0.108083  0.132829  0  1.003426  0
H  H105  1  0.88128242  0.76431676  0.80120291  1  0.12924  0  0.108107  0.132889  0  1.003441  0
H  H106  1  0.56131278  0.69971697  0.37857375  1  0.069877  0  0.104278  0.11378  0  1.027349  0
H  H107  1  0.30028713  0.43868676  0.12142661  1  0.069841  0  0.104253  0.113758  0  1.027377  0
H  H108  1  0.43868873  0.30028172  0.62142774  1  0.069861  0  0.104272  0.113762  0  1.027328  0
H  H109  1  0.69971274  0.56130980  0.87857375  1  0.069796  0  0.104269  0.113805  0  1.02733  0
H  H110  1  0.58256418  0.83950654  0.36017578  1  0.09799  0  0.107296  0.131574  0  1.010112  0
H  H111  1  0.16049476  0.41743517  0.13982503  1  0.098042  0  0.10732  0.131621  0  1.010084  0
H  H112  1  0.41743405  0.16049354  0.63982391  1  0.097989  0  0.107289  0.131562  0  1.010107  0
H  H113  1  0.83950428  0.58256475  0.86017661  1  0.098054  0  0.107304  0.1316  0  1.010126  0
H  H114  1  0.64029567  0.74377273  0.41593337  1  0.053929  0  0.101707  0.115693  0  1.002632  0
H  H115  1  0.25623171  0.35970149  0.08406560  1  0.054168  0  0.10171  0.115719  0  1.002662  0
H  H116  1  0.35970501  0.25623097  0.58406593  1  0.053956  0  0.101702  0.115665  0  1.002624  0
H  H117  1  0.74376569  0.64029468  0.91593635  1  0.054099  0  0.101718  0.115739  0  1.002635  0
C  C118  1  0.08004497  0.17704484  0.44450521  1  -0.102307  0  -0.007298  0.069577  0  3.988326  0
C  C119  1  0.82295497  0.91995733  0.05549370  1  -0.102372  0  -0.007263  0.069517  0  3.988481  0
C  C120  1  0.91995490  0.82295738  0.55549440  1  -0.102454  0  -0.007255  0.069614  0  3.988339  0
C  C121  1  0.17704408  0.08004342  0.94450580  1  -0.102279  0  -0.007233  0.069594  0  3.988359  0
C  C122  1  0.23373282  0.01275521  0.58826997  1  -0.053591  0  -0.02471  -0.049801  0  3.974686  0
C  C123  1  0.98724657  0.76626969  0.91172915  1  -0.053603  0  -0.024698  -0.049746  0  3.974698  0
C  C124  1  0.76626786  0.98724687  0.41172954  1  -0.053617  0  -0.024685  -0.049711  0  3.974721  0
C  C125  1  0.01275166  0.23373120  0.08827044  1  -0.053652  0  -0.024675  -0.049761  0  3.974631  0
C  C126  1  0.92741690  0.33397843  0.29906029  1  1.555272  0  0.19895  0.574592  0  4.21727  0
C  C127  1  0.66602195  0.07258585  0.20093808  1  1.555557  0  0.198957  0.574542  0  4.217387  0
C  C128  1  0.07258214  0.66602474  0.70093970  1  1.555534  0  0.198935  0.574604  0  4.217374  0
C  C129  1  0.33397874  0.92741623  0.79906103  1  1.555592  0  0.198939  0.57453  0  4.217281  0
C  C130  1  0.13182436  0.12386632  0.49445953  1  -0.000782  0  -0.006829  0.070192  0  3.994505  0
C  C131  1  0.87613397  0.86817859  0.00553957  1  -0.000726  0  -0.006839  0.07019  0  3.994607  0
C  C132  1  0.86817551  0.87613591  0.50553966  1  -0.000654  0  -0.006841  0.070143  0  3.994628  0
C  C133  1  0.12386344  0.13182244  0.99446011  1  -0.000524  0  -0.006817  0.070209  0  3.994624  0
C  C134  1  0.98012671  0.27626377  0.34902489  1  -0.037382  0  -0.025616  -0.046345  0  3.986083  0
C  C135  1  0.72373630  0.01987570  0.15097432  1  -0.037385  0  -0.025597  -0.046285  0  3.986171  0
C  C136  1  0.01987398  0.72373831  0.65097462  1  -0.03737  0  -0.025617  -0.046382  0  3.986251  0
C  C137  1  0.27626521  0.98012624  0.84902470  1  -0.037712  0  -0.025606  -0.046341  0  3.986193  0
C  C138  1  0.23904767  0.13533125  0.49412564  1  -0.060455  0  -0.094384  -0.14057  0  3.976706  0
C  C139  1  0.86466978  0.76095509  0.00587292  1  -0.060151  0  -0.09442  -0.140559  0  3.976642  0
C  C140  1  0.76095220  0.86467016  0.50587366  1  -0.060606  0  -0.094385  -0.140542  0  3.976672  0
C  C141  1  0.13532927  0.23904566  0.99412617  1  -0.06089  0  -0.094465  -0.140699  0  3.976713  0
C  C142  1  0.69823329  0.51325720  0.15118783  1  1.53312  0  0.201274  0.579168  0  4.196636  0
C  C143  1  0.48674439  0.30176496  0.34881243  1  1.533136  0  0.201324  0.579245  0  4.196446  0
C  C144  1  0.30176739  0.48674406  0.84881220  1  1.533128  0  0.201278  0.579195  0  4.196691  0
C  C145  1  0.51325713  0.69823213  0.65118723  1  1.533128  0  0.201293  0.579235  0  4.196422  0
C  C146  1  0.63164416  0.51124860  0.10995213  1  -0.042312  0  -0.017723  -0.02697  0  3.975101  0
C  C147  1  0.48875108  0.36835291  0.39004899  1  -0.043326  0  -0.017748  -0.027073  0  3.97516  0
C  C148  1  0.36835570  0.48875200  0.89004810  1  -0.042554  0  -0.017744  -0.027057  0  3.975179  0
C  C149  1  0.51124962  0.63164432  0.60995035  1  -0.043046  0  -0.017792  -0.027088  0  3.975195  0
C  C150  1  0.28971539  0.94860696  0.63672401  1  1.574704  0  0.204778  0.585973  0  4.210025  0
C  C151  1  0.05139527  0.71028630  0.86327608  1  1.57472  0  0.204796  0.585998  0  4.210184  0
C  C152  1  0.71028612  0.05139417  0.36327552  1  1.57469  0  0.2048  0.585989  0  4.210106  0
C  C153  1  0.94860460  0.28971269  0.13672395  1  1.574711  0  0.204782  0.585971  0  4.210218  0
C  C154  1  0.28897732  0.08071020  0.54024208  1  -0.041192  0  -0.088879  -0.098814  0  4.00542  0
C  C155  1  0.91929385  0.71102378  0.95975735  1  -0.040901  0  -0.088931  -0.099021  0  4.00549  0
C  C156  1  0.71102255  0.91929283  0.45975742  1  -0.040898  0  -0.088929  -0.098955  0  4.005545  0
C  C157  1  0.08070520  0.28897616  0.04024185  1  -0.04082  0  -0.088895  -0.098896  0  4.005386  0
C  C158  1  0.91580549  0.24886188  0.40443208  1  -0.060654  0  -0.088153  -0.089874  0  3.99403  0
C  C159  1  0.75113624  0.08419655  0.09556624  1  -0.060574  0  -0.088159  -0.089885  0  3.994082  0
C  C160  1  0.08419438  0.75113954  0.59556723  1  -0.060646  0  -0.088131  -0.089804  0  3.994049  0
C  C161  1  0.24886445  0.91580472  0.90443298  1  -0.060769  0  -0.088111  -0.089806  0  3.993993  0
C  C162  1  0.59476033  0.41541178  0.11131824  1  -0.076886  0  -0.085802  -0.102665  0  3.973602  0
C  C163  1  0.58458955  0.40523694  0.38868137  1  -0.076688  0  -0.085826  -0.102633  0  3.973592  0
C  C164  1  0.40523871  0.58458897  0.88868207  1  -0.076788  0  -0.085792  -0.102585  0  3.973629  0
C  C165  1  0.41541197  0.59476015  0.61131706  1  -0.077041  0  -0.085705  -0.102515  0  3.973563  0
C  C166  1  0.52492991  0.50316393  0.02344910  1  -0.029994  0  -0.002612  0.069834  0  3.988837  0
C  C167  1  0.49683638  0.47506964  0.47655003  1  -0.029898  0  -0.002621  0.069806  0  3.988888  0
C  C168  1  0.47507160  0.49683477  0.97655075  1  -0.074132  0  -0.002585  0.069843  0  3.988833  0
C  C169  1  0.50316514  0.52492907  0.52344859  1  -0.074357  0  -0.002598  0.069883  0  3.988793  0
C  C170  1  0.96496658  0.20152423  0.45145885  1  0.008627  0  -0.094014  -0.137453  0  3.989591  0
C  C171  1  0.79847290  0.03503661  0.04854021  1  0.008478  0  -0.094042  -0.137455  0  3.989638  0
C  C172  1  0.03503329  0.79847638  0.54854056  1  0.008626  0  -0.094018  -0.137449  0  3.989588  0
C  C173  1  0.20152696  0.96496399  0.95145961  1  0.008987  0  -0.094075  -0.137489  0  3.989657  0
C  C174  1  0.61128433  0.60406934  0.06651970  1  -0.030511  0  -0.081021  -0.086755  0  3.977035  0
C  C175  1  0.39593126  0.38871205  0.43348104  1  -0.029632  0  -0.08097  -0.08667  0  3.97706  0
C  C176  1  0.38871554  0.39593046  0.93348022  1  -0.030543  0  -0.08097  -0.086654  0  3.977033  0
C  C177  1  0.60407026  0.61128665  0.56651840  1  -0.029768  0  -0.080957  -0.086642  0  3.977091  0
C  C178  1  0.54179447  0.41231783  0.06899703  1  -0.049237  0  -0.091305  -0.140038  0  4.002848  0
C  C179  1  0.58768161  0.45820493  0.43100258  1  -0.049092  0  -0.091312  -0.140077  0  4.002938  0
C  C180  1  0.45820540  0.58768115  0.93100341  1  -0.049133  0  -0.091325  -0.140089  0  4.002925  0
C  C181  1  0.41232074  0.54179364  0.56899555  1  -0.04914  0  -0.091315  -0.14007  0  4.002906  0
C  C182  1  0.12643042  0.00292716  0.58933608  1  -0.044619  0  -0.087246  -0.085371  0  3.990552  0
C  C183  1  0.99707486  0.87357192  0.91066309  1  -0.045154  0  -0.087245  -0.085372  0  3.99058  0
C  C184  1  0.87357027  0.99707411  0.41066313  1  -0.04462  0  -0.087199  -0.085381  0  3.990645  0
C  C185  1  0.00292419  0.12642883  0.08933600  1  -0.04467  0  -0.087277  -0.085373  0  3.990579  0
C  C186  1  0.14430373  0.20289962  0.38840282  1  0.021631  0  -0.093139  -0.13493  0  3.950672  0
C  C187  1  0.79709889  0.85569839  0.11159666  1  0.021462  0  -0.093132  -0.134915  0  3.950741  0
C  C188  1  0.85569614  0.79710180  0.61159689  1  0.021654  0  -0.093155  -0.134927  0  3.950643  0
C  C189  1  0.20289851  0.14430264  0.88840261  1  0.021648  0  -0.093142  -0.134945  0  3.950686  0
C  C190  1  0.07632069  0.05741132  0.54334928  1  -0.059521  0  -0.093442  -0.13519  0  3.974557  0
C  C191  1  0.94258977  0.92368298  0.95664908  1  -0.059259  0  -0.093471  -0.13521  0  3.974559  0
C  C192  1  0.92368165  0.94258967  0.45664975  1  -0.059786  0  -0.093513  -0.135284  0  3.974665  0
C  C193  1  0.05740929  0.07631777  0.04335001  1  -0.059792  0  -0.093468  -0.135195  0  3.974546  0
C  C194  1  0.09503893  0.25301140  0.34160828  1  -0.066984  0  -0.086893  -0.084682  0  3.97225  0
C  C195  1  0.74698868  0.90496381  0.15839097  1  -0.066777  0  -0.086883  -0.084679  0  3.972296  0
C  C196  1  0.90496176  0.74698987  0.65839175  1  -0.066978  0  -0.086912  -0.084702  0  3.972263  0
C  C197  1  0.25301201  0.09503746  0.84160865  1  -0.066991  0  -0.086942  -0.084721  0  3.972304  0
C  C198  1  0.55881177  0.60002539  0.02428547  1  -0.017438  0  -0.089545  -0.129636  0  3.986913  0
C  C199  1  0.39997521  0.44118586  0.47571473  1  -0.01772  0  -0.089519  -0.129565  0  3.986849  0
C  C200  1  0.44118893  0.39997265  0.97571417  1  -0.017441  0  -0.089559  -0.129599  0  3.986942  0
C  C201  1  0.60002795  0.55881175  0.52428423  1  -0.017409  0  -0.089551  -0.129671  0  3.986965  0
C  C202  1  0.09146937  0.61789192  0.05927782  1  0.012708  0  -0.083042  -0.140185  0  3.955923  0
C  C203  1  0.38210864  0.90853272  0.44072412  1  0.012712  0  -0.083048  -0.140218  0  3.955987  0
C  C204  1  0.90853131  0.38210854  0.94072273  1  0.012683  0  -0.083036  -0.140222  0  3.955999  0
C  C205  1  0.61789287  0.09146841  0.55927582  1  0.012671  0  -0.083018  -0.140181  0  3.955978  0
C  C206  1  0.17899840  0.65205149  0.01625835  1  -0.033336  0  -0.093227  -0.083473  0  3.991891  0
C  C207  1  0.34795084  0.82100203  0.48374353  1  -0.033189  0  -0.093223  -0.083455  0  3.991757  0
C  C208  1  0.82100064  0.34795006  0.98374227  1  -0.033325  0  -0.093235  -0.083416  0  3.991882  0
C  C209  1  0.65204984  0.17899924  0.51625690  1  -0.033304  0  -0.093262  -0.083495  0  3.991947  0
C  C210  1  0.28342706  0.66793338  0.23382003  1  -0.005389  0  -0.003459  0.016983  0  4.011131  0
C  C211  1  0.33206601  0.71657336  0.26618138  1  0.049955  0  -0.00346  0.016988  0  4.011176  0
C  C212  1  0.71657362  0.33206546  0.76618114  1  0.049981  0  -0.003432  0.017021  0  4.01112  0
C  C213  1  0.66793386  0.28342643  0.73381977  1  -0.005415  0  -0.003459  0.016948  0  4.01119  0
C  C214  1  0.03034682  0.88328941  0.21479481  1  -0.072593  0  -0.093175  -0.140716  0  3.988444  0
C  C215  1  0.11671134  0.96965407  0.28520500  1  -0.072699  0  -0.093141  -0.140676  0  3.988339  0
C  C216  1  0.96965388  0.11670862  0.78520524  1  -0.072544  0  -0.093108  -0.14063  0  3.98824  0
C  C217  1  0.88328771  0.03034587  0.71479461  1  -0.072427  0  -0.093151  -0.140669  0  3.988375  0
C  C218  1  0.16566762  0.67913302  0.12596181  1  0.262436  0  0.090843  0.085561  0  4.013866  0
C  C219  1  0.32086949  0.83433135  0.37403945  1  0.262751  0  0.090833  0.085603  0  4.013969  0
C  C220  1  0.83433307  0.32086662  0.87403884  1  0.262459  0  0.090847  0.085613  0  4.014028  0
C  C221  1  0.67913202  0.16566816  0.62596029  1  0.262767  0  0.09086  0.085663  0  4.013933  0
C  C222  1  0.97754139  0.97894654  0.23230289  1  -0.001505  0  -0.075133  -0.04309  0  3.959865  0
C  C223  1  0.02105480  0.02245783  0.26769739  1  0.060491  0  -0.075133  -0.043093  0  3.95991  0
C  C224  1  0.02245848  0.02105084  0.76769654  1  -0.001465  0  -0.07516  -0.043139  0  3.959862  0
C  C225  1  0.97894590  0.97754345  0.73230060  1  0.060125  0  -0.075179  -0.043121  0  3.9599  0
C  C226  1  0.18474849  0.72464481  0.21733596  1  0.271074  0  0.094387  0.066826  0  3.970443  0
C  C227  1  0.27535470  0.81525055  0.28266571  1  0.271169  0  0.094393  0.066862  0  3.970447  0
C  C228  1  0.81525220  0.27535484  0.78266429  1  0.271141  0  0.094401  0.066914  0  3.970335  0
C  C229  1  0.72464434  0.18475019  0.71733501  1  0.271136  0  0.0944  0.066894  0  3.970436  0
C  C230  1  0.04318847  0.63258453  0.20634682  1  1.025344  0  0.163517  0.139392  0  3.920128  0
C  C231  1  0.36741517  0.95681047  0.29365486  1  1.025341  0  0.163555  0.139465  0  3.920165  0
C  C232  1  0.95681222  0.36741512  0.79365383  1  1.025369  0  0.163539  0.139483  0  3.920084  0
C  C233  1  0.63258552  0.04318918  0.70634579  1  1.025334  0  0.163538  0.1395  0  3.920123  0
C  C234  1  0.12956628  0.82509297  0.23237545  1  0.0136  0  -0.004048  0.013126  0  4.012501  0
C  C235  1  0.17490521  0.87043256  0.26762652  1  0.05817  0  -0.004115  0.013104  0  4.012412  0
C  C236  1  0.87043442  0.17490506  0.76762501  1  0.013805  0  -0.004103  0.013012  0  4.012455  0
C  C237  1  0.82509548  0.12956709  0.73237332  1  0.057941  0  -0.004079  0.013176  0  4.012391  0
C  C238  1  0.08505881  0.63224729  0.11477233  1  0.376847  0  0.088824  0.141026  0  4.052809  0
C  C239  1  0.36775340  0.91494086  0.38522951  1  0.376497  0  0.088768  0.140932  0  4.052854  0
C  C240  1  0.91494106  0.36775330  0.88522871  1  0.376832  0  0.088786  0.140961  0  4.052947  0
C  C241  1  0.63224729  0.08505880  0.61477074  1  0.376482  0  0.088784  0.140948  0  4.052912  0
C  C242  1  0.43527939  0.51408857  0.23543123  1  -0.040978  0  -0.085306  -0.0574  0  3.978041  0
C  C243  1  0.48591181  0.56472023  0.26456916  1  0.029631  0  -0.085327  -0.057418  0  3.97796  0
C  C244  1  0.56472211  0.48591175  0.76456922  1  0.029621  0  -0.085296  -0.057397  0  3.978082  0
C  C245  1  0.51408888  0.43527861  0.73543160  1  -0.040961  0  -0.08532  -0.057446  0  3.97805  0
C  C246  1  0.33716017  0.56448012  0.22007693  1  -0.056553  0  -0.094098  -0.134084  0  3.985695  0
C  C247  1  0.43551922  0.66283956  0.27992408  1  -0.056535  0  -0.094074  -0.134108  0  3.985605  0
C  C248  1  0.66283970  0.43551967  0.77992381  1  -0.056568  0  -0.094104  -0.134139  0  3.985757  0
C  C249  1  0.56448065  0.33716104  0.72007615  1  -0.056529  0  -0.094052  -0.134007  0  3.985726  0
C  C250  1  0.25346436  0.71360176  0.08308081  1  -0.034093  0  -0.099177  -0.172475  0  4.021782  0
C  C251  1  0.28640204  0.74653432  0.41692111  1  -0.034357  0  -0.099283  -0.172752  0  4.021974  0
C  C252  1  0.74653633  0.28639870  0.91691974  1  -0.034108  0  -0.099178  -0.172527  0  4.021855  0
C  C253  1  0.71359783  0.25346628  0.58307912  1  -0.034349  0  -0.09927  -0.172741  0  4.022026  0
C  C254  1  0.25807722  0.69903918  0.02808785  1  -0.000396  0  -0.094875  -0.081528  0  4.039499  0
C  C255  1  0.30096502  0.74192227  0.47191389  1  -0.000533  0  -0.094834  -0.081345  0  4.039311  0
C  C256  1  0.74192347  0.30096128  0.97191269  1  -0.000372  0  -0.094831  -0.081446  0  4.039491  0
C  C257  1  0.69903731  0.25807790  0.52808606  1  -0.000427  0  -0.094774  -0.081215  0  4.03944  0
C  C258  1  0.73134883  0.64316755  0.30456817  1  1.383603  0  0.172535  0.301524  0  4.109972  0
C  C259  1  0.35683005  0.26866869  0.19542482  1  1.38331  0  0.172443  0.301304  0  4.109772  0
C  C260  1  0.26865022  0.35683319  0.69543255  1  1.383675  0  0.172485  0.301394  0  4.109936  0
C  C261  1  0.64317146  0.73132676  0.80457709  1  1.383128  0  0.172434  0.301219  0  4.109585  0
C  C262  1  0.80097792  0.79595597  0.31736175  1  0.183467  0  -0.135006  -0.269314  0  3.878438  0
C  C263  1  0.20404394  0.19902245  0.18263897  1  0.183473  0  -0.134967  -0.269321  0  3.878354  0
C  C264  1  0.19902030  0.20404573  0.68263774  1  0.183482  0  -0.134989  -0.269214  0  3.878354  0
C  C265  1  0.79595263  0.80097709  0.81736469  1  0.182873  0  -0.134913  -0.269263  0  3.878188  0
C  C266  1  0.62005672  0.75354395  0.37376909  1  0.251891  0  -0.133468  -0.284565  0  3.911721  0
C  C267  1  0.24645869  0.37994424  0.12623045  1  0.251631  0  -0.13344  -0.284672  0  3.911661  0
C  C268  1  0.37994397  0.24645570  0.62623074  1  0.251894  0  -0.133425  -0.284484  0  3.911721  0
C  C269  1  0.75354036  0.62005407  0.87377101  1  0.251721  0  -0.133429  -0.28465  0  3.911644  0
N  N270  1  0.01002813  0.60472875  0.16611622  1  -1.213338  0  -0.34773  -0.33426  0  3.443692  0
N  N271  1  0.39527096  0.98997251  0.33388483  1  -1.212909  0  -0.347754  -0.334295  0  3.443661  0
N  N272  1  0.98997174  0.39527266  0.83388390  1  -1.213342  0  -0.347755  -0.334305  0  3.443711  0
N  N273  1  0.60472973  0.01002714  0.66611500  1  -1.212889  0  -0.347727  -0.334273  0  3.443633  0
N  N274  1  0.13629539  0.67796083  0.18497227  1  -1.27508  0  -0.232001  -0.063648  0  3.790765  0
N  N275  1  0.32204016  0.86370373  0.31502919  1  -1.275012  0  -0.231998  -0.06367  0  3.790925  0
N  N276  1  0.86370447  0.32203815  0.81502857  1  -1.275076  0  -0.232034  -0.063794  0  3.790901  0
N  N277  1  0.67795971  0.13629687  0.68497104  1  -1.274999  0  -0.232003  -0.063759  0  3.790922  0
N  N278  1  0.71866024  0.72589313  0.33122737  1  -1.197003  0  -0.280877  0.03369  0  3.717416  0
N  N279  1  0.27411072  0.28133930  0.16877417  1  -1.197203  0  -0.280853  0.033953  0  3.717749  0
N  N280  1  0.28133963  0.27410748  0.66877245  1  -1.197068  0  -0.280862  0.033709  0  3.717351  0
N  N281  1  0.72588668  0.71866010  0.83122818  1  -1.197221  0  -0.280862  0.033902  0  3.717777  0
O  O282  1  0.82540079  0.33478125  0.30322483  1  -1.201697  0  -0.340241  -0.614358  0  2.287857  0
O  O283  1  0.66521745  0.17460064  0.19677359  1  -1.201766  0  -0.340288  -0.614367  0  2.287928  0
O  O284  1  0.17459990  0.66522003  0.69677397  1  -1.201701  0  -0.340276  -0.614386  0  2.287847  0
O  O285  1  0.33478160  0.82540092  0.80322540  1  -1.201685  0  -0.340238  -0.614323  0  2.287949  0
O  O286  1  0.70481961  0.43462080  0.19554393  1  -1.188532  0  -0.336233  -0.608216  0  2.363706  0
O  O287  1  0.56537802  0.29517933  0.30445697  1  -1.188553  0  -0.33625  -0.608259  0  2.363747  0
O  O288  1  0.29518108  0.56538127  0.80445640  1  -1.188548  0  -0.336204  -0.608196  0  2.36371  0
O  O289  1  0.43462105  0.70481900  0.69554122  1  -1.188492  0  -0.336209  -0.608222  0  2.36373  0
O  O290  1  0.75091578  0.59211774  0.13995568  1  -1.146063  0  -0.322119  -0.542385  0  2.196844  0
O  O291  1  0.40788298  0.24908028  0.36004460  1  -1.146092  0  -0.322153  -0.542404  0  2.196736  0
O  O292  1  0.24908410  0.40788367  0.86004322  1  -1.146051  0  -0.322129  -0.542402  0  2.196818  0
O  O293  1  0.59211853  0.75091761  0.63995495  1  -1.146077  0  -0.322153  -0.54244  0  2.196742  0
O  O294  1  0.39180254  0.94949468  0.62879473  1  -1.165334  0  -0.333277  -0.566537  0  2.269676  0
O  O295  1  0.05050587  0.60820143  0.87120481  1  -1.165276  0  -0.333246  -0.56649  0  2.269789  0
O  O296  1  0.60819897  0.05050564  0.37120532  1  -1.165289  0  -0.333266  -0.566522  0  2.269766  0
O  O297  1  0.94949318  0.39179851  0.12879479  1  -1.165273  0  -0.333239  -0.566479  0  2.26979  0
O  O298  1  0.22999925  0.89892417  0.68170127  1  -1.179842  0  -0.332132  -0.593364  0  2.316153  0
O  O299  1  0.10107808  0.77000416  0.81829778  1  -1.179885  0  -0.33217  -0.593431  0  2.316136  0
O  O300  1  0.77000144  0.10107791  0.31829784  1  -1.179881  0  -0.332163  -0.593391  0  2.3161  0
O  O301  1  0.89892097  0.22999497  0.18170193  1  -1.179907  0  -0.332184  -0.593438  0  2.316151  0
O  O302  1  0.98810483  0.38373830  0.25463559  1  -1.152428  0  -0.330919  -0.554679  0  2.263212  0
O  O303  1  0.61626391  0.01189520  0.24536493  1  -1.152672  0  -0.330874  -0.554649  0  2.263203  0
O  O304  1  0.01189504  0.61626392  0.74536442  1  -1.15271  0  -0.330871  -0.554637  0  2.263246  0
O  O305  1  0.38374088  0.98810535  0.75463506  1  -1.15242  0  -0.330919  -0.554651  0  2.263045  0
O  O306  1  0.81397936  0.61639571  0.26742670  1  -1.178179  0  -0.311291  -0.474904  0  2.347147  0
O  O307  1  0.38361113  0.18600904  0.23257742  1  -1.177824  0  -0.311322  -0.475062  0  2.346385  0
O  O308  1  0.18601969  0.38360665  0.73257217  1  -1.178203  0  -0.311303  -0.474859  0  2.347191  0
O  O309  1  0.61638874  0.81399075  0.76742291  1  -1.177713  0  -0.311354  -0.475099  0  2.346215  0
