# generated using pymatgen
data_GdH22(C3O)11
_symmetry_space_group_name_H-M   'P 1'
_cell_length_a   10.31960481
_cell_length_b   11.38287212
_cell_length_c   13.85541171
_cell_angle_alpha   102.56075513
_cell_angle_beta   111.21646154
_cell_angle_gamma   99.90107565
_symmetry_Int_Tables_number   1
_chemical_formula_structural   GdH22(C3O)11
_chemical_formula_sum   'Gd2 H44 C66 O22'
_cell_volume   1423.62470327
_cell_formula_units_Z   2
loop_
 _symmetry_equiv_pos_site_id
 _symmetry_equiv_pos_as_xyz
  1  'x, y, z'
loop_
 _atom_site_type_symbol
 _atom_site_label
 _atom_site_symmetry_multiplicity
 _atom_site_fract_x
 _atom_site_fract_y
 _atom_site_fract_z
 _atom_site_occupancy
 _atom_site_hle17_bader_spin_density
 _atom_site_hle17_ddec_charge
 _atom_site_hle17_ddec_spin_density
 _atom_site_hle17_ddec_sum_bond_order
 _atom_site_hle17_magmom
 _atom_site_hse06_10hf_bader_spin_density
 _atom_site_hse06_10hf_ddec_charge
 _atom_site_hse06_10hf_ddec_spin_density
 _atom_site_hse06_10hf_ddec_sum_bond_order
 _atom_site_hse06_10hf_magmom
 _atom_site_hse06_bader_spin_density
 _atom_site_hse06_ddec_charge
 _atom_site_hse06_ddec_spin_density
 _atom_site_hse06_ddec_sum_bond_order
 _atom_site_hse06_magmom
 _atom_site_pbe_bader_spin_density
 _atom_site_pbe_cm5_charge
 _atom_site_pbe_ddec_charge
 _atom_site_pbe_ddec_spin_density
 _atom_site_pbe_ddec_sum_bond_order
 _atom_site_pbe_magmom
Gd  Gd0  1  0.61775352  0.56497945  0.66202177  1  0  2.17463  0  1.772534  0  0  2.086387  0  2.127381  0  0  2.143331  0  2.0694  0  0  1.460858  2.043369  0  2.172125  0
Gd  Gd1  1  0.38224787  0.43502083  0.33798004  1  0  2.174644  0  1.772578  0  0  2.086362  0  2.127468  0  0  2.143275  0  2.069538  0  0  1.460827  2.043307  0  2.172273  0
H  H2  1  0.19422034  0.14315514  0.98239276  1  0  0.106159  0  0.948315  0  0  0.113598  0  1.014108  0  0  0.117508  0  1.011539  0  0  0.1066  0.110873  0  1.015764  0
H  H3  1  0.80577468  0.85684798  0.01760568  1  0  0.106197  0  0.948235  0  0  0.113657  0  1.014004  0  0  0.117547  0  1.011457  0  0  0.106596  0.110931  0  1.015664  0
H  H4  1  0.26761113  0.93968845  0.94305509  1  0  0.079447  0  0.992371  0  0  0.088112  0  1.061743  0  0  0.090135  0  1.062121  0  0  0.09578  0.086636  0  1.061482  0
H  H5  1  0.73238571  0.06032028  0.05694484  1  0  0.07959  0  0.99228  0  0  0.088218  0  1.061676  0  0  0.090242  0  1.062052  0  0  0.095861  0.086743  0  1.061414  0
H  H6  1  0.46810779  0.87158728  0.90768647  1  0  0.086602  0  0.949683  0  0  0.098818  0  1.00662  0  0  0.10189  0  1.00523  0  0  0.098586  0.096487  0  1.007912  0
H  H7  1  0.53188321  0.12841304  0.09230966  1  0  0.086584  0  0.949711  0  0  0.098788  0  1.006669  0  0  0.101862  0  1.005279  0  0  0.098575  0.096458  0  1.00796  0
H  H8  1  0.44794759  0.80342551  0.71922546  1  0  0.104795  0  0.967812  0  0  0.110255  0  1.034458  0  0  0.113602  0  1.032717  0  0  0.10616  0.107844  0  1.035746  0
H  H9  1  0.55203982  0.19657014  0.28077320  1  0  0.104756  0  0.967844  0  0  0.11027  0  1.034421  0  0  0.11362  0  1.032679  0  0  0.106149  0.107854  0  1.035719  0
H  H10  1  0.22654312  0.80227600  0.56394214  1  0  0.097444  0  0.979265  0  0  0.101837  0  1.048114  0  0  0.105355  0  1.046824  0  0  0.095655  0.099391  0  1.048992  0
H  H11  1  0.77344905  0.19772150  0.43605452  1  0  0.097504  0  0.979158  0  0  0.101894  0  1.048021  0  0  0.105412  0  1.046729  0  0  0.095655  0.099448  0  1.0489  0
H  H12  1  0.03090157  0.87715743  0.60146704  1  0  0.094986  0  0.950862  0  0  0.105307  0  1.011377  0  0  0.108984  0  1.008294  0  0  0.104789  0.102663  0  1.013695  0
H  H13  1  0.96909138  0.12284569  0.39853156  1  0  0.09502  0  0.950853  0  0  0.105337  0  1.011358  0  0  0.10902  0  1.008263  0  0  0.104773  0.102683  0  1.013687  0
H  H14  1  0.69613284  0.94588927  0.63510487  1  0  0.131384  0  0.955176  0  0  0.136696  0  1.019712  0  0  0.141255  0  1.016407  0  0  0.113222  0.13327  0  1.022282  0
H  H15  1  0.30386512  0.05411008  0.36489585  1  0  0.131424  0  0.955119  0  0  0.136702  0  1.019697  0  0  0.141257  0  1.016393  0  0  0.11323  0.133276  0  1.022267  0
H  H16  1  0.98604615  0.67625342  0.17462211  1  0  0.098405  0  0.982592  0  0  0.102135  0  1.05417  0  0  0.104781  0  1.053235  0  0  0.102629  0.100457  0  1.054487  0
H  H17  1  0.01396025  0.32374309  0.82537748  1  0  0.098426  0  0.982644  0  0  0.10216  0  1.054204  0  0  0.104808  0  1.053274  0  0  0.102652  0.100484  0  1.054514  0
H  H18  1  0.93267885  0.62224796  0.97676516  1  0  0.102088  0  0.947436  0  0  0.113929  0  1.002662  0  0  0.117209  0  1.00166  0  0  0.106432  0.111355  0  1.003826  0
H  H19  1  0.06732954  0.37775792  0.02323592  1  0  0.102104  0  0.947237  0  0  0.113922  0  1.002504  0  0  0.117188  0  1.001516  0  0  0.106425  0.111341  0  1.003674  0
H  H20  1  0.12581933  0.69779845  0.91925130  1  0  0.098794  0  0.964523  0  0  0.107689  0  1.027446  0  0  0.110694  0  1.025638  0  0  0.10399  0.105413  0  1.029008  0
H  H21  1  0.87418524  0.30221494  0.08074866  1  0  0.098754  0  0.964546  0  0  0.107674  0  1.027439  0  0  0.110681  0  1.025632  0  0  0.104008  0.105398  0  1.029001  0
H  H22  1  0.36935435  0.82566739  0.05713447  1  0  0.082741  0  0.960799  0  0  0.095358  0  1.019553  0  0  0.097475  0  1.019468  0  0  0.099853  0.093894  0  1.019495  0
H  H23  1  0.63065170  0.17434412  0.94286772  1  0  0.08273  0  0.960872  0  0  0.095321  0  1.019655  0  0  0.097436  0  1.019571  0  0  0.099867  0.093861  0  1.019599  0
H  H24  1  0.42076259  0.88121487  0.25347160  1  0  0.084548  0  0.984542  0  0  0.093963  0  1.050172  0  0  0.09572  0  1.05094  0  0  0.099366  0.092766  0  1.049627  0
H  H25  1  0.57924416  0.11878914  0.74653232  1  0  0.084598  0  0.984584  0  0  0.093984  0  1.050237  0  0  0.095747  0  1.050995  0  0  0.099374  0.092766  0  1.049715  0
H  H26  1  0.86439160  0.46217534  0.60966078  1  0  0.104426  0  0.989844  0  0  0.107934  0  1.063297  0  0  0.112243  0  1.059828  0  0  0.116912  0.104627  0  1.066211  0
H  H27  1  0.13560888  0.53782213  0.39034173  1  0  0.104458  0  0.989825  0  0  0.107971  0  1.063253  0  0  0.112279  0  1.059786  0  0  0.116927  0.104663  0  1.066167  0
H  H28  1  0.86701772  0.73340726  0.44837615  1  0  0.093752  0  0.957577  0  0  0.105719  0  1.016095  0  0  0.107735  0  1.015906  0  0  0.108201  0.104296  0  1.016342  0
H  H29  1  0.13298855  0.26659206  0.55162536  1  0  0.093743  0  0.95756  0  0  0.105693  0  1.016097  0  0  0.10771  0  1.01591  0  0  0.108189  0.104272  0  1.016342  0
H  H30  1  0.75736649  0.90752615  0.41986666  1  0  0.101701  0  0.93674  0  0  0.113938  0  0.990656  0  0  0.116247  0  0.990806  0  0  0.108223  0.112335  0  0.990631  0
H  H31  1  0.24263679  0.09247038  0.58013354  1  0  0.101787  0  0.93667  0  0  0.113976  0  0.99064  0  0  0.116284  0  0.99079  0  0  0.108239  0.11237  0  0.990616  0
H  H32  1  0.62723689  0.91540642  0.23247501  1  0  0.08017  0  0.988683  0  0  0.090493  0  1.052844  0  0  0.091588  0  1.054597  0  0  0.099238  0.08965  0  1.051803  0
H  H33  1  0.37276713  0.08458917  0.76752378  1  0  0.080172  0  0.988701  0  0  0.0905  0  1.052847  0  0  0.091586  0  1.054636  0  0  0.099234  0.089659  0  1.051801  0
H  H34  1  0.59991553  0.74585452  0.07276708  1  0  0.093976  0  0.938492  0  0  0.107886  0  0.991673  0  0  0.110781  0  0.990593  0  0  0.105803  0.105805  0  0.992437  0
H  H35  1  0.40008746  0.25414107  0.92723360  1  0  0.093922  0  0.938564  0  0  0.107857  0  0.991724  0  0  0.110753  0  0.990643  0  0  0.105817  0.105772  0  0.992487  0
H  H36  1  0.71171620  0.57120678  0.10188001  1  0  0.109237  0  0.930742  0  0  0.12035  0  0.984715  0  0  0.124131  0  0.982058  0  0  0.111151  0.11757  0  0.986814  0
H  H37  1  0.28828575  0.42878881  0.89812038  1  0  0.10926  0  0.930715  0  0  0.120351  0  0.984702  0  0  0.124132  0  0.982046  0  0  0.111151  0.117571  0  0.986801  0
H  H38  1  0.93803001  0.54346768  0.77339812  1  0  0.441078  0  0.848828  0  0  0.412608  0  0.911166  0  0  0.422734  0  0.896246  0  0  0.311154  0.405451  0  0.921771  0
H  H39  1  0.06197345  0.45653260  0.22660280  1  0  0.440953  0  0.848937  0  0  0.412473  0  0.911351  0  0  0.422601  0  0.896426  0  0  0.311065  0.405317  0  0.921956  0
H  H40  1  0.83181202  0.44198971  0.78941061  1  0  0.419882  0  0.854615  0  0  0.395889  0  0.923025  0  0  0.403548  0  0.915404  0  0  0.310567  0.390469  0  0.928464  0
H  H41  1  0.16819070  0.55801150  0.21058956  1  0  0.419882  0  0.854627  0  0  0.39589  0  0.923027  0  0  0.403549  0  0.915407  0  0  0.310579  0.390469  0  0.928467  0
H  H42  1  0.56044020  0.36480189  0.75536242  1  0  0.424199  0  0.844325  0  0  0.395806  0  0.922713  0  0  0.403791  0  0.913242  0  0  0.310992  0.390113  0  0.92867  0
H  H43  1  0.43956088  0.63519745  0.24463770  1  0  0.424217  0  0.844313  0  0  0.395824  0  0.922697  0  0  0.403809  0  0.913218  0  0  0.310996  0.390132  0  0.928654  0
H  H44  1  0.49868254  0.46690759  0.80210811  1  0  0.433031  0  0.829949  0  0  0.410632  0  0.893884  0  0  0.418304  0  0.884125  0  0  0.31841  0.405378  0  0.899369  0
H  H45  1  0.50131989  0.53309268  0.19789253  1  0  0.432994  0  0.829969  0  0  0.410593  0  0.893914  0  0  0.418265  0  0.884174  0  0  0.318387  0.405338  0  0.899398  0
C  C46  1  0.79849748  0.78530076  0.82026447  1  0  0.637768  0  3.918796  0  0  0.593449  0  4.215997  0  0  0.627201  0  4.208713  0  0  0.190563  0.570651  0  4.219417  0
C  C47  1  0.20149889  0.21470329  0.17973882  1  0  0.637756  0  3.918851  0  0  0.593405  0  4.216069  0  0  0.627156  0  4.208779  0  0  0.190492  0.570608  0  4.219483  0
C  C48  1  0.90108839  0.89869281  0.91112473  1  0  -0.052963  0  3.708263  0  0  -0.040092  0  3.944002  0  0  -0.045051  0  3.963618  0  0  -0.002973  -0.036779  0  3.93057  0
C  C49  1  0.09890962  0.10131311  0.08887645  1  0  -0.053001  0  3.708322  0  0  -0.040041  0  3.943949  0  0  -0.044997  0  3.963572  0  0  -0.002968  -0.036728  0  3.930517  0
C  C50  1  0.10906437  0.07829705  0.98885749  1  0  -0.093033  0  3.710977  0  0  -0.124213  0  3.964554  0  0  -0.124818  0  3.983116  0  0  -0.074786  -0.123342  0  3.951549  0
C  C51  1  0.89093096  0.92170700  0.01114336  1  0  -0.093067  0  3.710868  0  0  -0.124234  0  3.964464  0  0  -0.12482  0  3.983042  0  0  -0.07477  -0.123363  0  3.951459  0
C  C52  1  0.01110948  0.97783559  0.89925402  1  0  -0.014054  0  3.703132  0  0  -0.00744  0  3.942493  0  0  -0.008944  0  3.962038  0  0  -0.000793  -0.006498  0  3.929488  0
C  C53  1  0.98888511  0.02216941  0.10074463  1  0  -0.013948  0  3.702998  0  0  -0.007405  0  3.942294  0  0  -0.008948  0  3.96185  0  0  -0.000719  -0.00646  0  3.929298  0
C  C54  1  0.02033672  0.96218064  0.79113274  1  0  0.417068  0  3.704533  0  0  0.395574  0  3.970385  0  0  0.417574  0  3.971469  0  0  0.171209  0.380037  0  3.97026  0
C  C55  1  0.97966008  0.03782154  0.20886889  1  0  0.416986  0  3.704603  0  0  0.395667  0  3.970218  0  0  0.417748  0  3.971182  0  0  0.171204  0.380114  0  3.970123  0
C  C56  1  0.13670066  0.91229938  0.77375421  1  0  -0.044668  0  3.778402  0  0  -0.02476  0  4.008906  0  0  -0.031633  0  4.033573  0  0  -0.02094  -0.020326  0  3.993124  0
C  C57  1  0.86329198  0.08770281  0.22624343  1  0  -0.044473  0  3.778323  0  0  -0.024674  0  4.008871  0  0  -0.031573  0  4.033529  0  0  -0.020914  -0.020243  0  3.993103  0
C  C58  1  0.25937665  0.90978632  0.86033049  1  0  -0.095705  0  3.761664  0  0  -0.11867  0  4.009075  0  0  -0.119868  0  4.03227  0  0  -0.088232  -0.117644  0  3.993526  0
C  C59  1  0.74061734  0.09021680  0.13966840  1  0  -0.095946  0  3.761952  0  0  -0.118871  0  4.009399  0  0  -0.120068  0  4.032599  0  0  -0.088322  -0.117842  0  3.993848  0
C  C60  1  0.37145600  0.87184255  0.84053503  1  0  -0.08412  0  3.77309  0  0  -0.093245  0  4.019596  0  0  -0.096881  0  4.040887  0  0  -0.093959  -0.090865  0  4.005346  0
C  C61  1  0.62853885  0.12815682  0.15946341  1  0  -0.084084  0  3.773185  0  0  -0.0932  0  4.019692  0  0  -0.096837  0  4.040985  0  0  -0.093955  -0.090821  0  4.005439  0
C  C62  1  0.36054031  0.83341683  0.73431890  1  0  -0.031309  0  3.703205  0  0  -0.048713  0  3.953335  0  0  -0.048129  0  3.972943  0  0  -0.078659  -0.049099  0  3.940274  0
C  C63  1  0.63944814  0.16657881  0.26567860  1  0  -0.031269  0  3.703057  0  0  -0.048713  0  3.953174  0  0  -0.048135  0  3.972787  0  0  -0.078677  -0.049098  0  3.940114  0
C  C64  1  0.23661827  0.83261800  0.64728467  1  0  -0.084187  0  3.741964  0  0  -0.094286  0  3.994522  0  0  -0.09938  0  4.017493  0  0  -0.093179  -0.090832  0  3.979099  0
C  C65  1  0.76337494  0.16737950  0.35271372  1  0  -0.084222  0  3.741811  0  0  -0.094322  0  3.994381  0  0  -0.099417  0  4.017355  0  0  -0.093138  -0.090868  0  3.978954  0
C  C66  1  0.12627167  0.87285837  0.66720515  1  0  -0.05588  0  3.712706  0  0  -0.080592  0  3.959421  0  0  -0.079736  0  3.978901  0  0  -0.075606  -0.081131  0  3.946741  0
C  C67  1  0.87371976  0.12714008  0.33279220  1  0  -0.056015  0  3.712766  0  0  -0.080714  0  3.959529  0  0  -0.079863  0  3.979016  0  0  -0.075641  -0.081242  0  3.946852  0
C  C68  1  0.48300909  0.74102585  0.49635736  1  0  0.725958  0  3.829877  0  0  0.680289  0  4.123115  0  0  0.715628  0  4.1121  0  0  0.237912  0.656156  0  4.130304  0
C  C69  1  0.51699260  0.25897536  0.50364903  1  0  0.726171  0  3.829669  0  0  0.680587  0  4.12278  0  0  0.715928  0  4.11176  0  0  0.238024  0.656453  0  4.129972  0
C  C70  1  0.48746217  0.87455070  0.49894576  1  0  -0.063235  0  3.697724  0  0  -0.051785  0  3.935971  0  0  -0.056367  0  3.954839  0  0  -0.004224  -0.049068  0  3.923563  0
C  C71  1  0.51253550  0.12544772  0.50105255  1  0  -0.063218  0  3.697725  0  0  -0.051842  0  3.936016  0  0  -0.056425  0  3.954883  0  0  -0.004232  -0.049124  0  3.923606  0
C  C72  1  0.60918576  0.96967469  0.57657367  1  0  -0.095146  0  3.680579  0  0  -0.126625  0  3.931991  0  0  -0.12703  0  3.94875  0  0  -0.075294  -0.12608  0  3.920734  0
C  C73  1  0.39081294  0.03032373  0.42342636  1  0  -0.095194  0  3.680524  0  0  -0.126643  0  3.93199  0  0  -0.127041  0  3.948742  0  0  -0.075298  -0.126097  0  3.920734  0
C  C74  1  0.37685847  0.90565154  0.42246304  1  0  -0.02897  0  3.729848  0  0  -0.020485  0  3.968206  0  0  -0.02258  0  3.987632  0  0  -0.006535  -0.019011  0  3.955114  0
C  C75  1  0.62314127  0.09434687  0.57753727  1  0  -0.029003  0  3.72988  0  0  -0.020489  0  3.96821  0  0  -0.022585  0  3.98764  0  0  -0.006548  -0.019015  0  3.955114  0
C  C76  1  0.23839048  0.80894363  0.34301980  1  0  0.41768  0  3.714137  0  0  0.394754  0  3.979848  0  0  0.417756  0  3.979447  0  0  0.17061  0.378747  0  3.980559  0
C  C77  1  0.76161475  0.19105569  0.65698215  1  0  0.417601  0  3.714222  0  0  0.394698  0  3.979898  0  0  0.417701  0  3.979496  0  0  0.17063  0.378692  0  3.980608  0
C  C78  1  0.20691537  0.78080223  0.22603020  1  0  -0.054014  0  3.792255  0  0  -0.035949  0  4.023508  0  0  -0.042817  0  4.04607  0  0  -0.021058  -0.031345  0  4.008427  0
C  C79  1  0.79308615  0.21919524  0.77396969  1  0  -0.053935  0  3.792065  0  0  -0.035874  0  4.023308  0  0  -0.042743  0  4.045874  0  0  -0.021003  -0.031266  0  4.00822  0
C  C80  1  0.06914144  0.70748574  0.14766637  1  0  -0.081197  0  3.729831  0  0  -0.100758  0  3.974488  0  0  -0.099763  0  3.993648  0  0  -0.080996  -0.101422  0  3.961409  0
C  C81  1  0.93086439  0.29251546  0.85233247  1  0  -0.081247  0  3.729781  0  0  -0.100811  0  3.974434  0  0  -0.09982  0  3.993595  0  0  -0.081036  -0.101475  0  3.961355  0
C  C82  1  0.03990909  0.67777630  0.03771827  1  0  -0.064618  0  3.734518  0  0  -0.075282  0  3.981687  0  0  -0.08012  0  4.00444  0  0  -0.083616  -0.072073  0  3.966691  0
C  C83  1  0.96009290  0.32222585  0.96228043  1  0  -0.064619  0  3.734305  0  0  -0.075264  0  3.981484  0  0  -0.080092  0  4.004245  0  0  -0.083624  -0.072054  0  3.966496  0
C  C84  1  0.14795813  0.72070108  0.00509344  1  0  -0.032758  0  3.706922  0  0  -0.05206  0  3.957101  0  0  -0.05208  0  3.978218  0  0  -0.076597  -0.051923  0  3.942929  0
C  C85  1  0.85204524  0.27930856  0.99490697  1  0  -0.032762  0  3.706772  0  0  -0.052082  0  3.956946  0  0  -0.052102  0  3.978057  0  0  -0.076644  -0.051948  0  3.942783  0
C  C86  1  0.28503563  0.79312795  0.08261851  1  0  -0.075863  0  3.773171  0  0  -0.085707  0  4.018808  0  0  -0.089563  0  4.041661  0  0  -0.089951  -0.083177  0  4.003204  0
C  C87  1  0.71496709  0.20687327  0.91738022  1  0  -0.075788  0  3.773202  0  0  -0.085609  0  4.018826  0  0  -0.089461  0  4.041673  0  0  -0.089923  -0.083087  0  4.003225  0
C  C88  1  0.31443331  0.82392890  0.19265194  1  0  -0.083538  0  3.749737  0  0  -0.104365  0  3.992658  0  0  -0.105059  0  4.015084  0  0  -0.084134  -0.103889  0  3.9775  0
C  C89  1  0.68557179  0.17607324  0.80735048  1  0  -0.083594  0  3.749891  0  0  -0.104402  0  3.992776  0  0  -0.105096  0  4.015198  0  0  -0.084152  -0.103909  0  3.977628  0
C  C90  1  0.69804860  0.49397950  0.42766497  1  0  0.692635  0  3.879722  0  0  0.644282  0  4.177525  0  0  0.678885  0  4.168151  0  0  0.221546  0.621522  0  4.181852  0
C  C91  1  0.30195218  0.50601891  0.57233706  1  0  0.692622  0  3.879702  0  0  0.644252  0  4.177543  0  0  0.678856  0  4.168167  0  0  0.221543  0.621491  0  4.181874  0
C  C92  1  0.85487937  0.50215508  0.46379747  1  0  -0.056288  0  3.698475  0  0  -0.040439  0  3.930499  0  0  -0.045761  0  3.950626  0  0  0.006252  -0.037296  0  3.916942  0
C  C93  1  0.14512111  0.49784239  0.53620431  1  0  -0.056268  0  3.698509  0  0  -0.040417  0  3.930531  0  0  -0.045732  0  3.950664  0  0  0.006267  -0.037273  0  3.916972  0
C  C94  1  0.92557899  0.48227557  0.56304489  1  0  -0.057311  0  3.663678  0  0  -0.094003  0  3.917785  0  0  -0.093833  0  3.935281  0  0  -0.060271  -0.094136  0  3.906392  0
C  C95  1  0.07442118  0.51772096  0.43695592  1  0  -0.05737  0  3.663671  0  0  -0.094057  0  3.917788  0  0  -0.093894  0  3.935279  0  0  -0.060301  -0.094196  0  3.906408  0
C  C96  1  0.93030822  0.52016404  0.39920891  1  0  -0.008699  0  3.694589  0  0  -0.001719  0  3.931503  0  0  -0.004369  0  3.951055  0  0  0.006541  0.000186  0  3.918634  0
C  C97  1  0.06969299  0.47983249  0.60079218  1  0  -0.008694  0  3.694626  0  0  -0.001701  0  3.931534  0  0  -0.004374  0  3.951118  0  0  0.006564  0.000205  0  3.918663  0
C  C98  1  0.86782011  0.54089676  0.29087218  1  0  0.427655  0  3.683725  0  0  0.402276  0  3.949342  0  0  0.42648  0  3.947956  0  0  0.180018  0.385282  0  3.950654  0
C  C99  1  0.13218214  0.45909977  0.70912846  1  0  0.427585  0  3.683746  0  0  0.402179  0  3.949373  0  0  0.426386  0  3.947995  0  0  0.180006  0.385184  0  3.950688  0
C  C100  1  0.79441774  0.64053776  0.27659721  1  0  -0.047852  0  3.78428  0  0  -0.031411  0  4.022134  0  0  -0.038698  0  4.045587  0  0  -0.018579  -0.026269  0  4.006039  0
C  C101  1  0.20558555  0.35945876  0.72340227  1  0  -0.047906  0  3.784536  0  0  -0.031393  0  4.02227  0  0  -0.03868  0  4.045723  0  0  -0.018568  -0.02625  0  4.006177  0
C  C102  1  0.80673445  0.73516916  0.36616489  1  0  -0.050189  0  3.687027  0  0  -0.075786  0  3.934069  0  0  -0.075505  0  3.954839  0  0  -0.071211  -0.075901  0  3.920263  0
C  C103  1  0.19326945  0.26482923  0.63383653  1  0  -0.050175  0  3.687054  0  0  -0.075774  0  3.934076  0  0  -0.075487  0  3.954832  0  0  -0.071218  -0.07589  0  3.920271  0
C  C104  1  0.74561434  0.83314123  0.35019782  1  0  -0.06259  0  3.72706  0  0  -0.073666  0  3.976071  0  0  -0.077084  0  3.997332  0  0  -0.080542  -0.071685  0  3.961951  0
C  C105  1  0.25438894  0.16685529  0.64980094  1  0  -0.062612  0  3.727043  0  0  -0.073655  0  3.976055  0  0  -0.077071  0  3.997313  0  0  -0.080566  -0.07167  0  3.961933  0
C  C106  1  0.67184089  0.83710008  0.24472208  1  0  -0.047994  0  3.755415  0  0  -0.066261  0  4.00641  0  0  -0.066434  0  4.029595  0  0  -0.078634  -0.065755  0  3.990391  0
C  C107  1  0.32816180  0.16289457  0.75527762  1  0  -0.048099  0  3.755674  0  0  -0.066359  0  4.006661  0  0  -0.066538  0  4.029844  0  0  -0.078611  -0.065852  0  3.990636  0
C  C108  1  0.65803473  0.74268081  0.15500745  1  0  -0.07981  0  3.77379  0  0  -0.092246  0  4.02539  0  0  -0.096469  0  4.047714  0  0  -0.086505  -0.088769  0  4.009277  0
C  C109  1  0.34196692  0.25731385  0.84499198  1  0  -0.079614  0  3.773919  0  0  -0.092086  0  4.025537  0  0  -0.096308  0  4.04786  0  0  -0.086485  -0.088603  0  4.009418  0
C  C110  1  0.71947972  0.64487627  0.17058452  1  0  -0.082022  0  3.730104  0  0  -0.102029  0  3.973664  0  0  -0.101132  0  3.992246  0  0  -0.079521  -0.102787  0  3.960622  0
C  C111  1  0.28052400  0.35511838  0.82941619  1  0  -0.082111  0  3.730201  0  0  -0.102112  0  3.973756  0  0  -0.101214  0  3.992337  0  0  -0.079574  -0.102871  0  3.960713  0
O  O112  1  0.68575161  0.72770409  0.82734910  1  0  -0.677794  0  1.91803  0  0  -0.637033  0  2.143395  0  0  -0.66123  0  2.133622  0  0  -0.391382  -0.619561  0  2.149591  0
O  O113  1  0.31425142  0.27229806  0.17265421  1  0  -0.677816  0  1.917873  0  0  -0.63705  0  2.143244  0  0  -0.661245  0  2.133475  0  0  -0.391345  -0.619573  0  2.149439  0
O  O114  1  0.82756620  0.74593780  0.73886898  1  0  -0.657462  0  1.945043  0  0  -0.615971  0  2.172974  0  0  -0.642529  0  2.16697  0  0  -0.36791  -0.59646  0  2.176425  0
O  O115  1  0.17243134  0.25406343  0.26113413  1  0  -0.657473  0  1.945216  0  0  -0.61596  0  2.17312  0  0  -0.642513  0  2.167117  0  0  -0.367902  -0.596445  0  2.17657  0
O  O116  1  0.93776713  0.99877889  0.72197473  1  0  -0.44677  0  1.932032  0  0  -0.409152  0  2.13804  0  0  -0.426855  0  2.135592  0  0  -0.251357  -0.396841  0  2.139808  0
O  O117  1  0.06222551  0.00122330  0.27802146  1  0  -0.446737  0  1.932236  0  0  -0.409141  0  2.138101  0  0  -0.426871  0  2.135613  0  0  -0.251312  -0.396818  0  2.139865  0
O  O118  1  0.42635814  0.65865924  0.40284229  1  0  -0.74503  0  2.05363  0  0  -0.699901  0  2.30402  0  0  -0.726967  0  2.294622  0  0  -0.383342  -0.680683  0  2.310332  0
O  O119  1  0.57364130  0.34133824  0.59715705  1  0  -0.745045  0  2.053879  0  0  -0.699954  0  2.304256  0  0  -0.727023  0  2.294854  0  0  -0.383317  -0.680744  0  2.310569  0
O  O120  1  0.53830840  0.72083886  0.58684952  1  0  -0.698191  0  2.058422  0  0  -0.65466  0  2.302347  0  0  -0.681267  0  2.293897  0  0  -0.374731  -0.636132  0  2.307864  0
O  O121  1  0.46168512  0.27915958  0.41314767  1  0  -0.698383  0  2.058114  0  0  -0.65487  0  2.301989  0  0  -0.681478  0  2.293544  0  0  -0.374823  -0.636334  0  2.307508  0
O  O122  1  0.15473644  0.75726891  0.37592336  1  0  -0.455195  0  1.941721  0  0  -0.41052  0  2.150606  0  0  -0.429366  0  2.148496  0  0  -0.248691  -0.397731  0  2.152308  0
O  O123  1  0.84526625  0.24272574  0.62407635  1  0  -0.455179  0  1.941833  0  0  -0.410497  0  2.150697  0  0  -0.429346  0  2.14859  0  0  -0.248712  -0.397709  0  2.152398  0
O  O124  1  0.61444752  0.44950472  0.32746860  1  0  -0.673396  0  2.014485  0  0  -0.630429  0  2.249008  0  0  -0.656213  0  2.242288  0  0  -0.354951  -0.611994  0  2.252929  0
O  O125  1  0.38555283  0.55049557  0.67253220  1  0  -0.673363  0  2.014425  0  0  -0.630408  0  2.248976  0  0  -0.656196  0  2.242253  0  0  -0.354951  -0.611984  0  2.252911  0
O  O126  1  0.64993343  0.52857007  0.49940666  1  0  -0.792495  0  2.150446  0  0  -0.748007  0  2.404842  0  0  -0.775326  0  2.394454  0  0  -0.40998  -0.72845  0  2.410679  0
O  O127  1  0.35006735  0.47142834  0.50059393  1  0  -0.792513  0  2.150496  0  0  -0.748009  0  2.404889  0  0  -0.775326  0  2.394502  0  0  -0.409981  -0.728446  0  2.410727  0
O  O128  1  0.88824016  0.47848670  0.21481734  1  0  -0.482931  0  1.979744  0  0  -0.433475  0  2.191066  0  0  -0.452314  0  2.184956  0  0  -0.248509  -0.420615  0  2.195835  0
O  O129  1  0.11176508  0.52151262  0.78518389  1  0  -0.48292  0  1.979678  0  0  -0.433471  0  2.191016  0  0  -0.452303  0  2.184897  0  0  -0.248533  -0.420612  0  2.195785  0
O  O130  1  0.83937177  0.51977810  0.77016399  1  0  -0.868477  0  1.921812  0  0  -0.827615  0  2.119544  0  0  -0.846696  0  2.09445  0  0  -0.618738  -0.813856  0  2.137333  0
O  O131  1  0.16063199  0.48022311  0.22983717  1  0  -0.868389  0  1.921874  0  0  -0.827511  0  2.119632  0  0  -0.846589  0  2.094545  0  0  -0.618691  -0.813746  0  2.137421  0
O  O132  1  0.58653193  0.45362971  0.79554574  1  0  -0.836443  0  1.8546  0  0  -0.796606  0  2.039918  0  0  -0.814668  0  2.017528  0  0  -0.60285  -0.783241  0  2.053343  0
O  O133  1  0.41346945  0.54637057  0.20445391  1  0  -0.836429  0  1.8546  0  0  -0.796598  0  2.039932  0  0  -0.814656  0  2.017556  0  0  -0.602838  -0.783229  0  2.053358  0
