# generated using pymatgen
data_Zn2H35C45N5O8
_symmetry_space_group_name_H-M   'P 1'
_cell_length_a   14.68528178
_cell_length_b   16.12110292
_cell_length_c   16.06722038
_cell_angle_alpha   90.34606027
_cell_angle_beta   90.55806070
_cell_angle_gamma   90.66430239
_symmetry_Int_Tables_number   1
_chemical_formula_structural   Zn2H35C45N5O8
_chemical_formula_sum   'Zn2 H35 C45 N5 O8'
_cell_volume   3803.29288628
_cell_formula_units_Z   1
loop_
 _symmetry_equiv_pos_site_id
 _symmetry_equiv_pos_as_xyz
  1  'x, y, z'
loop_
 _atom_site_type_symbol
 _atom_site_label
 _atom_site_symmetry_multiplicity
 _atom_site_fract_x
 _atom_site_fract_y
 _atom_site_fract_z
 _atom_site_occupancy
 _atom_site_pbe_bader_charge
 _atom_site_pbe_bader_spin_density
 _atom_site_pbe_cm5_charge
 _atom_site_pbe_ddec_charge
 _atom_site_pbe_ddec_spin_density
 _atom_site_pbe_ddec_sum_bond_order
 _atom_site_pbe_magmom
Zn  Zn0  1  0.59452632  0.50076896  0.50051934  1  1.309826  0  0.675101  0.882662  0  2.43466  0
Zn  Zn1  1  0.40577332  0.49902974  0.49925243  1  1.289604  0  0.680397  0.882654  0  2.431648  0
H  H2  1  0.40014041  0.94714670  0.60936861  1  0.058708  0  0.103289  0.096844  0  0.983234  0
H  H3  1  0.55427642  0.05269662  0.63556594  1  0.076532  0  0.100345  0.087462  0  0.993291  0
H  H4  1  0.08074205  0.41253944  0.59920127  1  0.06011  0  0.113842  0.11989  0  0.952899  0
H  H5  1  0.07522346  0.37666339  0.44907753  1  0.113112  0  0.135957  0.124688  0  0.915269  0
H  H6  1  0.91753760  0.37637278  0.44545291  1  0.082687  0  0.117882  0.128706  0  0.949343  0
H  H7  1  0.91726409  0.45734340  0.37155369  1  0.091173  0  0.117993  0.130163  0  0.953455  0
H  H8  1  0.07662057  0.60507496  0.41423969  1  0.124563  0  0.133352  0.12312  0  0.928087  0
H  H9  1  0.92242286  0.63255417  0.52632687  1  0.090847  0  0.119497  0.132645  0  0.953725  0
H  H10  1  0.08262620  0.51709700  0.63233537  1  0.095801  0  0.119818  0.133399  0  0.950781  0
H  H11  1  0.92367213  0.51738705  0.63381288  1  0.067584  0  0.115502  0.12332  0  0.950506  0
H  H12  1  0.91925408  0.60826158  0.41869064  1  0.082797  0  0.11853  0.130642  0  0.948627  0
H  H13  1  0.39402688  0.40077339  0.92168921  1  0.083357  0  0.119108  0.107546  0  0.947266  0
H  H14  1  0.44712776  0.94681202  0.36475336  1  0.03836  0  0.101115  0.093026  0  0.98843  0
H  H15  1  0.60120263  0.05226003  0.39091129  1  0.082567  0  0.099131  0.086463  0  0.994095  0
H  H16  1  0.65610981  0.95106878  0.52643571  1  0.064766  0  0.099163  0.085782  0  0.992638  0
H  H17  1  0.57933233  0.39145897  0.07856127  1  0.036253  0  0.093435  0.096152  0  0.988395  0
H  H18  1  0.29609225  0.53255048  0.08394388  1  0.058514  0  0.090682  0.12805  0  1.019895  0
H  H19  1  0.26511221  0.42776044  0.06531120  1  0.007225  0  0.088656  0.123099  0  0.993941  0
H  H20  1  0.32569592  0.45583300  0.15781023  1  0.03239  0  0.092486  0.134507  0  1.005149  0
H  H21  1  0.45217027  0.71550094  0.06199240  1  0.006443  0  0.088077  0.11943  0  0.994847  0
H  H22  1  0.36503879  0.64045002  0.04599937  1  0.05514  0  0.087399  0.120651  0  1.025339  0
H  H23  1  0.42135198  0.64831925  0.14473426  1  0.010826  0  0.089649  0.125986  0  1.006211  0
H  H24  1  0.42471545  0.38634284  0.05835921  1  0.024261  0  0.098981  0.065888  0  0.966995  0
H  H25  1  0.27102920  0.00484972  0.46156196  1  0.030362  0  0.09189  0.125881  0  0.997621  0
H  H26  1  0.29678515  0.09541688  0.52202966  1  0.039149  0  0.091863  0.12641  0  0.997757  0
H  H27  1  0.31755576  0.09508612  0.41329106  1  0.035804  0  0.091936  0.126851  0  0.99578  0
H  H28  1  0.63653342  0.32274656  0.94623139  1  0.019888  0  0.089288  0.122724  0  0.994674  0
H  H29  1  0.51616470  0.32036920  0.94821108  1  0.016392  0  0.084345  0.109276  0  1.020442  0
H  H30  1  0.57346506  0.35058635  0.85567091  1  0.016368  0  0.089754  0.12642  0  1.006436  0
H  H31  1  0.57575101  0.61194195  0.93005915  1  0.024849  0  0.096524  0.100272  0  0.976693  0
H  H32  1  0.45696515  0.62640382  0.92310984  1  0.058752  0  0.099673  0.109724  0  0.982353  0
H  H33  1  0.56936013  0.61368519  0.07313274  1  0.033984  0  0.095224  0.06033  0  0.959401  0
H  H34  1  0.63969345  0.47409023  0.92881382  1  0.044574  0  0.09856  0.068791  0  0.951257  0
H  H35  1  0.64080541  0.48593422  0.07176174  1  0.035631  0  0.093817  0.095313  0  0.984651  0
H  H36  1  0.92138880  0.41246179  0.60132977  1  0.062142  0  0.111654  0.115987  0  0.957011  0
C  C37  1  0.50178670  0.49922382  0.66232423  1  1.640258  0  0.218907  0.677879  0  4.231955  0
C  C38  1  0.40511177  0.46219902  0.95057435  1  0.057308  0  -0.048513  -0.090987  0  3.830252  0
C  C39  1  0.40901229  0.45205992  0.04745252  1  0.043398  0  -0.06942  0.020145  0  3.760791  0
C  C40  1  0.50078310  0.66154887  0.49971426  1  1.594709  0  0.216626  0.672854  0  4.234966  0
C  C41  1  0.49915549  0.50063918  0.24736473  1  0.168615  0  -0.057354  -0.213405  0  3.977516  0
C  C42  1  0.49800894  0.49792149  0.91826669  1  0.16362  0  0.010065  0.123545  0  3.868607  0
C  C43  1  0.57900708  0.45317206  0.04979984  1  -0.035113  0  -0.154568  -0.237003  0  3.86023  0
C  C44  1  0.49458455  0.50067646  0.08147111  1  0.14033  0  0.002995  0.101483  0  3.850534  0
C  C45  1  0.50352460  0.59124726  0.04784694  1  -0.008772  0  -0.077409  0.046689  0  3.782921  0
C  C46  1  0.50984214  0.58777383  0.95152968  1  -0.009013  0  -0.152695  -0.23495  0  3.82913  0
C  C47  1  0.49619149  0.50120637  0.17175935  1  -0.476794  0  -0.025349  -0.031957  0  4.053508  0
C  C48  1  0.50160275  0.91447570  0.50020166  1  0.084874  0  0.006856  0.130099  0  3.80958  0
C  C49  1  0.49908594  0.49794650  0.82794327  1  -0.480145  0  -0.031928  -0.056417  0  4.061638  0
C  C50  1  0.50094625  0.49841233  0.75237815  1  0.179291  0  -0.051643  -0.192229  0  3.971493  0
C  C51  1  0.05392983  0.47428584  0.58536201  1  -0.00315  0  -0.139515  -0.192278  0  3.832445  0
C  C52  1  0.50049613  0.49970343  0.33739093  1  1.658703  0  0.217874  0.678704  0  4.235197  0
C  C53  1  0.05032535  0.43836953  0.43167041  1  0.109276  0  -0.036461  -0.037575  0  3.851245  0
C  C54  1  0.94409441  0.43879751  0.43253516  1  -0.084806  0  -0.132406  -0.222366  0  3.792135  0
C  C55  1  0.08822625  0.50118590  0.49874773  1  0.165107  0  0.031031  0.067886  0  3.86102  0
C  C56  1  0.94865372  0.47422963  0.58640339  1  -0.057245  0  -0.140234  -0.190279  0  3.833447  0
C  C57  1  0.91191331  0.50043577  0.49990895  1  0.157731  0  0.017336  0.118419  0  3.922115  0
C  C58  1  0.94666559  0.58883896  0.47916421  1  -0.014587  0  -0.132163  -0.224204  0  3.788022  0
C  C59  1  0.55675002  0.02796902  0.43946317  1  -0.032284  0  -0.071714  -0.076554  0  3.654188  0
C  C60  1  0.05293416  0.58983837  0.47717971  1  0.064819  0  -0.038449  -0.037543  0  3.846393  0
C  C61  1  0.81310949  0.50040013  0.50061720  1  0.829753  0  0.244903  0.285732  0  3.846632  0
C  C62  1  0.18710551  0.50065637  0.49821814  1  0.82409  0  0.241213  0.270011  0  3.871116  0
C  C63  1  0.49782433  0.33779097  0.49989681  1  1.619322  0  0.214244  0.673058  0  4.240392  0
C  C64  1  0.53056829  0.02816379  0.57546954  1  -0.052422  0  -0.070239  -0.073419  0  3.651468  0
C  C65  1  0.44491731  0.97137647  0.56097224  1  -0.010939  0  -0.070303  -0.114601  0  3.607474  0
C  C66  1  0.50106598  0.75109258  0.49932690  1  0.123576  0  -0.058883  -0.199715  0  4.006167  0
C  C67  1  0.49849890  0.24824222  0.50032794  1  0.14013  0  -0.061195  -0.208057  0  4.010256  0
C  C68  1  0.58723485  0.97356190  0.51471587  1  -0.03061  0  -0.072124  -0.078656  0  3.640746  0
C  C69  1  0.31898929  0.46855007  0.09105689  1  -0.043474  0  -0.246421  -0.401131  0  3.942878  0
C  C70  1  0.50026267  0.08492634  0.50019507  1  0.172723  0  0.003305  0.082583  0  3.795331  0
C  C71  1  0.43090028  0.65177554  0.07711617  1  -0.048919  0  -0.244174  -0.394523  0  3.938347  0
C  C72  1  0.08496148  0.45717127  0.34896748  1  0.829045  0  0.171514  0.219683  0  3.9725  0
C  C73  1  0.09045444  0.65219239  0.53446046  1  0.828747  0  0.173715  0.229467  0  3.964629  0
C  C74  1  0.31966883  0.05676999  0.46972528  1  -0.040932  0  -0.236659  -0.414291  0  4.01119  0
C  C75  1  0.57531927  0.35469388  0.92396005  1  -0.059524  0  -0.243417  -0.395101  0  3.956596  0
C  C76  1  0.32948413  0.51309948  0.92213788  1  0.849658  0  0.176135  0.27066  0  3.984262  0
C  C77  1  0.47108962  0.97119946  0.42488805  1  -0.011956  0  -0.070982  -0.114846  0  3.612556  0
C  C78  1  0.41377815  0.02586376  0.48558260  1  0.025619  0  0.003176  0.143115  0  3.659071  0
C  C79  1  0.50132901  0.82671211  0.49961271  1  -0.348099  0  -0.039687  -0.062138  0  4.109113  0
C  C80  1  0.49983049  0.17261953  0.50050490  1  -0.500779  0  -0.04124  -0.053771  0  4.116856  0
C  C81  1  0.57752392  0.44498038  0.95364625  1  0.018793  0  -0.079117  0.035146  0  3.803194  0
N  N82  1  0.73431312  0.50040061  0.50115998  1  -1.084952  0  -0.264448  -0.264772  0  3.102501  0
N  N83  1  0.26581908  0.49911842  0.49849128  1  -1.068083  0  -0.251457  -0.238606  0  3.088165  0
N  N84  1  0.11048869  0.47380461  0.28259435  1  -1.069112  0  -0.287309  -0.321462  0  2.681581  0
N  N85  1  0.11746349  0.70227209  0.58142070  1  -1.083307  0  -0.292246  -0.327362  0  2.671859  0
N  N86  1  0.26851157  0.55345462  0.90010969  1  -1.159058  0  -0.339808  -0.405616  0  2.691965  0
O  O87  1  0.57969510  0.50030522  0.62810662  1  -1.142435  0  -0.320673  -0.55489  0  2.246612  0
O  O88  1  0.42430772  0.49860369  0.62605885  1  -1.137969  0  -0.314568  -0.543978  0  2.251954  0
O  O89  1  0.57847779  0.62684794  0.50099258  1  -1.130741  0  -0.321621  -0.554407  0  2.254868  0
O  O90  1  0.42312449  0.62546173  0.49877805  1  -1.144696  0  -0.316281  -0.545409  0  2.252651  0
O  O91  1  0.57852144  0.50077099  0.37284619  1  -1.15188  0  -0.321218  -0.55596  0  2.249657  0
O  O92  1  0.42315347  0.49780228  0.37261186  1  -1.144441  0  -0.316633  -0.547761  0  2.253961  0
O  O93  1  0.57538460  0.37429477  0.49991866  1  -1.144741  0  -0.321836  -0.556233  0  2.25956  0
O  O94  1  0.41998827  0.37201724  0.49951455  1  -1.139865  0  -0.321447  -0.553458  0  2.249612  0
