# generated using pymatgen
data_BaH6C3(NO)4
_symmetry_space_group_name_H-M   'P 1'
_cell_length_a   7.44419500
_cell_length_b   7.83396997
_cell_length_c   14.94116315
_cell_angle_alpha   94.38152755
_cell_angle_beta   90.02876158
_cell_angle_gamma   118.37199567
_symmetry_Int_Tables_number   1
_chemical_formula_structural   BaH6C3(NO)4
_chemical_formula_sum   'Ba4 H24 C12 N16 O16'
_cell_volume   763.75544977
_cell_formula_units_Z   4
loop_
 _symmetry_equiv_pos_site_id
 _symmetry_equiv_pos_as_xyz
  1  'x, y, z'
loop_
 _atom_site_type_symbol
 _atom_site_label
 _atom_site_symmetry_multiplicity
 _atom_site_fract_x
 _atom_site_fract_y
 _atom_site_fract_z
 _atom_site_occupancy
 _atom_site_hle17_bader_spin_density
 _atom_site_hle17_ddec_charge
 _atom_site_hle17_ddec_spin_density
 _atom_site_hle17_ddec_sum_bond_order
 _atom_site_hle17_magmom
 _atom_site_hse06_10hf_bader_spin_density
 _atom_site_hse06_10hf_ddec_charge
 _atom_site_hse06_10hf_ddec_spin_density
 _atom_site_hse06_10hf_ddec_sum_bond_order
 _atom_site_hse06_10hf_magmom
 _atom_site_hse06_bader_spin_density
 _atom_site_hse06_ddec_charge
 _atom_site_hse06_ddec_spin_density
 _atom_site_hse06_ddec_sum_bond_order
 _atom_site_hse06_magmom
 _atom_site_pbe_bader_spin_density
 _atom_site_pbe_cm5_charge
 _atom_site_pbe_ddec_charge
 _atom_site_pbe_ddec_spin_density
 _atom_site_pbe_ddec_sum_bond_order
 _atom_site_pbe_magmom
Ba  Ba0  1  0.18782454  0.67130841  0.69623101  1  0  1.563813  0  1.194627  0  0  1.380718  0  1.620514  0  0  1.423046  0  1.576489  0  0  0.932981  1.349921  0  1.651269  0
Ba  Ba1  1  0.51642742  0.32842500  0.80375997  1  0  1.563608  0  1.194403  0  0  1.380619  0  1.620089  0  0  1.422761  0  1.576371  0  0  0.933186  1.349943  0  1.650649  0
Ba  Ba2  1  0.81217406  0.32869295  0.30376882  1  0  1.563784  0  1.194628  0  0  1.380734  0  1.62044  0  0  1.423058  0  1.576413  0  0  0.932975  1.350001  0  1.651092  0
Ba  Ba3  1  0.48357447  0.67157490  0.19623980  1  0  1.563597  0  1.194447  0  0  1.380582  0  1.620183  0  0  1.422748  0  1.576423  0  0  0.933176  1.349904  0  1.650745  0
H  H4  1  0.56266199  0.90906738  0.85958454  1  0  0.402627  0  0.909581  0  0  0.365815  0  0.983049  0  0  0.376393  0  0.967922  0  0  0.303124  0.358324  0  0.993751  0
H  H5  1  0.65363389  0.09093055  0.64041160  1  0  0.402983  0  0.909141  0  0  0.365881  0  0.982993  0  0  0.376456  0  0.967872  0  0  0.303204  0.358395  0  0.993687  0
H  H6  1  0.43734198  0.09093397  0.14041463  1  0  0.402605  0  0.909619  0  0  0.365779  0  0.983107  0  0  0.376357  0  0.96798  0  0  0.303126  0.358289  0  0.993808  0
H  H7  1  0.34636325  0.90906791  0.35958946  1  0  0.403169  0  0.908894  0  0  0.365988  0  0.982883  0  0  0.376568  0  0.967756  0  0  0.303259  0.358501  0  0.993577  0
H  H8  1  0.35801488  0.89977782  0.89048763  1  0  0.412975  0  0.850974  0  0  0.386776  0  0.92278  0  0  0.39559  0  0.912249  0  0  0.321954  0.380426  0  0.93045  0
H  H9  1  0.45815617  0.10018323  0.60954353  1  0  0.412891  0  0.850619  0  0  0.386858  0  0.922293  0  0  0.39567  0  0.91174  0  0  0.322005  0.380512  0  0.929972  0
H  H10  1  0.64198971  0.10022209  0.10951282  1  0  0.413046  0  0.850945  0  0  0.386852  0  0.922725  0  0  0.395667  0  0.912193  0  0  0.322007  0.3805  0  0.930398  0
H  H11  1  0.54184511  0.89981813  0.39045631  1  0  0.412896  0  0.850631  0  0  0.386869  0  0.922282  0  0  0.395681  0  0.911732  0  0  0.322017  0.380523  0  0.929964  0
H  H12  1  0.23262667  0.59529673  0.45971691  1  0  0.411707  0  0.896987  0  0  0.383316  0  0.958002  0  0  0.393875  0  0.942575  0  0  0.294678  0.375808  0  0.968948  0
H  H13  1  0.63696256  0.40455120  0.04034949  1  0  0.411429  0  0.897285  0  0  0.383255  0  0.95785  0  0  0.393782  0  0.942466  0  0  0.294523  0.375786  0  0.968759  0
H  H14  1  0.76737461  0.40470463  0.54028293  1  0  0.411815  0  0.896837  0  0  0.38338  0  0.957908  0  0  0.393954  0  0.942474  0  0  0.294704  0.375873  0  0.968852  0
H  H15  1  0.36303676  0.59545161  0.95964974  1  0  0.411446  0  0.897258  0  0  0.383277  0  0.957815  0  0  0.393805  0  0.942431  0  0  0.294537  0.375809  0  0.968722  0
H  H16  1  0.19661861  0.77177771  0.48110514  1  0  0.386947  0  0.930792  0  0  0.349334  0  1.007966  0  0  0.359714  0  0.992817  0  0  0.29233  0.342027  0  1.018597  0
H  H17  1  0.42438790  0.22815398  0.01896630  1  0  0.387248  0  0.930671  0  0  0.34934  0  1.008101  0  0  0.359713  0  0.992993  0  0  0.292226  0.342044  0  1.018708  0
H  H18  1  0.80338402  0.22822366  0.51889603  1  0  0.386898  0  0.930867  0  0  0.349272  0  1.008056  0  0  0.359653  0  0.992912  0  0  0.292306  0.341964  0  1.018689  0
H  H19  1  0.57561327  0.77184446  0.98103276  1  0  0.387238  0  0.930676  0  0  0.349323  0  1.008123  0  0  0.359698  0  0.993012  0  0  0.292206  0.342027  0  1.01873  0
H  H20  1  0.77340861  0.69697516  0.50508741  1  0  0.130784  0  0.941936  0  0  0.141364  0  1.003408  0  0  0.143561  0  1.002981  0  0  0.118152  0.139809  0  1.003815  0
H  H21  1  0.07752103  0.30323837  0.99490498  1  0  0.130969  0  0.943433  0  0  0.141142  0  1.004733  0  0  0.143324  0  1.004293  0  0  0.118117  0.139604  0  1.005098  0
H  H22  1  0.22658730  0.30302620  0.49491309  1  0  0.130783  0  0.941927  0  0  0.141384  0  1.003385  0  0  0.14358  0  1.002959  0  0  0.118158  0.139824  0  1.003786  0
H  H23  1  0.92248003  0.69675716  0.00509463  1  0  0.13095  0  0.943426  0  0  0.141127  0  1.004769  0  0  0.14331  0  1.00433  0  0  0.118101  0.139591  0  1.005132  0
H  H24  1  0.59793430  0.78051163  0.54254704  1  0  0.13095  0  0.944164  0  0  0.14323  0  1.005565  0  0  0.147072  0  1.001823  0  0  0.114025  0.140481  0  1.008318  0
H  H25  1  0.81822571  0.21952033  0.95769554  1  0  0.131196  0  0.94343  0  0  0.143241  0  1.004802  0  0  0.146991  0  1.00113  0  0  0.114009  0.140516  0  1.007533  0
H  H26  1  0.40206429  0.21948973  0.45745213  1  0  0.130963  0  0.944164  0  0  0.14325  0  1.005566  0  0  0.147092  0  1.001825  0  0  0.114031  0.140493  0  1.00832  0
H  H27  1  0.18177813  0.78047811  0.04230217  1  0  0.1313  0  0.943358  0  0  0.143387  0  1.004722  0  0  0.14714  0  1.00105  0  0  0.114049  0.140657  0  1.007462  0
C  C28  1  0.66146381  0.61825239  0.63709321  1  0  0.734032  0  3.848577  0  0  0.689008  0  4.140847  0  0  0.722286  0  4.133411  0  0  0.228211  0.666436  0  4.144995  0
C  C29  1  0.04320137  0.38154977  0.86294132  1  0  0.737369  0  3.846139  0  0  0.690689  0  4.140314  0  0  0.72393  0  4.132903  0  0  0.228513  0.668116  0  4.144449  0
C  C30  1  0.33852881  0.38175043  0.36290802  1  0  0.733883  0  3.848665  0  0  0.688879  0  4.140937  0  0  0.72216  0  4.133511  0  0  0.228175  0.666299  0  4.14509  0
C  C31  1  0.95679566  0.61844576  0.13705762  1  0  0.737408  0  3.84586  0  0  0.690797  0  4.13998  0  0  0.72404  0  4.132571  0  0  0.228565  0.668223  0  4.144118  0
C  C32  1  0.72655010  0.75869047  0.56316996  1  0  -0.359306  0  3.656604  0  0  -0.398175  0  3.895194  0  0  -0.404324  0  3.898543  0  0  -0.148615  -0.394001  0  3.893048  0
C  C33  1  0.96852320  0.24131872  0.93695726  1  0  -0.361665  0  3.659101  0  0  -0.39878  0  3.896827  0  0  -0.404805  0  3.900118  0  0  -0.148592  -0.394593  0  3.894577  0
C  C34  1  0.27344653  0.24131234  0.43682859  1  0  -0.359242  0  3.656564  0  0  -0.398141  0  3.895211  0  0  -0.404292  0  3.898565  0  0  -0.148582  -0.393938  0  3.893033  0
C  C35  1  0.03148054  0.75867681  0.06304168  1  0  -0.361666  0  3.658999  0  0  -0.399006  0  3.896931  0  0  -0.405041  0  3.900237  0  0  -0.148625  -0.394815  0  3.894684  0
C  C36  1  0.89986689  0.94865481  0.59912930  1  0  0.364463  0  3.74828  0  0  0.339548  0  4.027017  0  0  0.350731  0  4.043346  0  0  0.22753  0.332083  0  4.015925  0
C  C37  1  0.95156559  0.05133247  0.90093692  1  0  0.36595  0  3.749124  0  0  0.340747  0  4.027407  0  0  0.351945  0  4.043677  0  0  0.227813  0.333252  0  4.016347  0
C  C38  1  0.10013305  0.05134655  0.40087053  1  0  0.364536  0  3.74818  0  0  0.339592  0  4.026969  0  0  0.350775  0  4.043299  0  0  0.22754  0.332119  0  4.015876  0
C  C39  1  0.04843618  0.94866450  0.09905939  1  0  0.36575  0  3.749376  0  0  0.340736  0  4.027491  0  0  0.351936  0  4.04376  0  0  0.227776  0.333235  0  4.016441  0
N  N40  1  0.07754258  0.97399191  0.63460007  1  0  -0.375811  0  2.994235  0  0  -0.338656  0  3.276759  0  0  -0.352866  0  3.293519  0  0  -0.248901  -0.329008  0  3.265349  0
N  N41  1  0.10372150  0.02588559  0.86542163  1  0  -0.376402  0  2.994612  0  0  -0.339228  0  3.27733  0  0  -0.353418  0  3.294055  0  0  -0.249338  -0.329585  0  3.265929  0
N  N42  1  0.92245383  0.02600509  0.36540026  1  0  -0.375794  0  2.994205  0  0  -0.338634  0  3.276751  0  0  -0.352845  0  3.293513  0  0  -0.248858  -0.328993  0  3.265347  0
N  N43  1  0.89628028  0.97411140  0.13457803  1  0  -0.376407  0  2.994723  0  0  -0.339263  0  3.277375  0  0  -0.353464  0  3.29412  0  0  -0.249365  -0.329616  0  3.265969  0
N  N44  1  0.18379955  0.16599863  0.66168993  1  0  -0.146923  0  3.1107  0  0  -0.118893  0  3.409634  0  0  -0.121706  0  3.424442  0  0  -0.127736  -0.116632  0  3.399419  0
N  N45  1  0.01768031  0.83390587  0.83824632  1  0  -0.147552  0  3.10847  0  0  -0.119866  0  3.408067  0  0  -0.122696  0  3.422888  0  0  -0.127542  -0.117597  0  3.397842  0
N  N46  1  0.81619821  0.83399838  0.33831174  1  0  -0.146984  0  3.110705  0  0  -0.118954  0  3.409648  0  0  -0.12177  0  3.42446  0  0  -0.127781  -0.116692  0  3.399439  0
N  N47  1  0.98232209  0.16608967  0.16175395  1  0  -0.14751  0  3.108436  0  0  -0.11983  0  3.408038  0  0  -0.122658  0  3.422861  0  0  -0.127501  -0.117567  0  3.397815  0
N  N48  1  0.07554287  0.25257362  0.64351324  1  0  -0.128628  0  3.071946  0  0  -0.107816  0  3.361693  0  0  -0.109401  0  3.374573  0  0  -0.12061  -0.10642  0  3.352817  0
N  N49  1  0.82288049  0.74747678  0.85642455  1  0  -0.127144  0  3.068021  0  0  -0.106129  0  3.357536  0  0  -0.107692  0  3.370432  0  0  -0.120355  -0.104746  0  3.348641  0
N  N50  1  0.92445561  0.74742483  0.35648782  1  0  -0.128557  0  3.071951  0  0  -0.10774  0  3.361671  0  0  -0.109327  0  3.374557  0  0  -0.120588  -0.106351  0  3.352797  0
N  N51  1  0.17712264  0.25252022  0.14357579  1  0  -0.127128  0  3.067909  0  0  -0.106113  0  3.357445  0  0  -0.107682  0  3.370344  0  0  -0.120319  -0.10473  0  3.348555  0
N  N52  1  0.89464446  0.11857582  0.60416312  1  0  -0.36337  0  3.083092  0  0  -0.302976  0  3.334121  0  0  -0.317064  0  3.346291  0  0  -0.212278  -0.293417  0  3.32589  0
N  N53  1  0.77625194  0.88154161  0.89584815  1  0  -0.364439  0  3.083418  0  0  -0.304146  0  3.334538  0  0  -0.318253  0  3.346697  0  0  -0.212057  -0.294577  0  3.326322  0
N  N54  1  0.10535609  0.88142409  0.39583732  1  0  -0.363513  0  3.083096  0  0  -0.303064  0  3.334142  0  0  -0.317159  0  3.346314  0  0  -0.212302  -0.293506  0  3.325916  0
N  N55  1  0.22374984  0.11845537  0.10415085  1  0  -0.364347  0  3.083439  0  0  -0.304097  0  3.334512  0  0  -0.318204  0  3.346675  0  0  -0.212069  -0.294523  0  3.326292  0
O  O56  1  0.52276708  0.61027981  0.68797306  1  0  -0.70389  0  1.987805  0  0  -0.642144  0  2.237981  0  0  -0.670053  0  2.230497  0  0  -0.380306  -0.622477  0  2.242432  0
O  O57  1  0.91215990  0.38914653  0.81208310  1  0  -0.704673  0  1.986756  0  0  -0.64233  0  2.237563  0  0  -0.670177  0  2.229993  0  0  -0.379933  -0.622727  0  2.242131  0
O  O58  1  0.47722565  0.38972593  0.31202828  1  0  -0.703799  0  1.987702  0  0  -0.642098  0  2.237944  0  0  -0.669981  0  2.230391  0  0  -0.3803  -0.622441  0  2.2424  0
O  O59  1  0.08784872  0.61085338  0.18791802  1  0  -0.704739  0  1.986486  0  0  -0.642383  0  2.237236  0  0  -0.670237  0  2.22967  0  0  -0.379933  -0.622785  0  2.241804  0
O  O60  1  0.75591939  0.51936537  0.64517783  1  0  -0.72989  0  1.97729  0  0  -0.657451  0  2.209602  0  0  -0.684847  0  2.199934  0  0  -0.355626  -0.638176  0  2.215728  0
O  O61  1  0.23648725  0.48063132  0.85470735  1  0  -0.731489  0  1.976868  0  0  -0.658895  0  2.210134  0  0  -0.686285  0  2.200471  0  0  -0.35612  -0.639623  0  2.216268  0
O  O62  1  0.24406857  0.48063890  0.35482211  1  0  -0.729823  0  1.977408  0  0  -0.657393  0  2.209701  0  0  -0.684793  0  2.200031  0  0  -0.355619  -0.638123  0  2.215828  0
O  O63  1  0.76351672  0.51937004  0.14529182  1  0  -0.731471  0  1.97689  0  0  -0.658887  0  2.210129  0  0  -0.686276  0  2.200463  0  0  -0.356164  -0.639622  0  2.216264  0
O  O64  1  0.45270087  0.93972117  0.84181905  1  0  -0.854974  0  1.886468  0  0  -0.792842  0  2.085673  0  0  -0.812762  0  2.059159  0  0  -0.611391  -0.778662  0  2.104284  0
O  O65  1  0.51300463  0.06013611  0.65817118  1  0  -0.855503  0  1.885315  0  0  -0.793251  0  2.084651  0  0  -0.813218  0  2.058299  0  0  -0.61141  -0.779058  0  2.103139  0
O  O66  1  0.54730383  0.06028165  0.15818218  1  0  -0.855046  0  1.886526  0  0  -0.792906  0  2.085736  0  0  -0.812829  0  2.059221  0  0  -0.611459  -0.778734  0  2.104347  0
O  O67  1  0.48699324  0.93986379  0.34182859  1  0  -0.855676  0  1.88507  0  0  -0.793392  0  2.08446  0  0  -0.813368  0  2.058099  0  0  -0.61148  -0.779204  0  2.102951  0
O  O68  1  0.24203142  0.68902433  0.51060451  1  0  -0.875079  0  1.840844  0  0  -0.819721  0  2.024065  0  0  -0.838723  0  1.992033  0  0  -0.627922  -0.806132  0  2.046594  0
O  O69  1  0.55252675  0.31084524  0.98946124  1  0  -0.875221  0  1.839712  0  0  -0.819588  0  2.023679  0  0  -0.838551  0  1.9916  0  0  -0.627852  -0.806062  0  2.046149  0
O  O70  1  0.75797182  0.31097558  0.48939660  1  0  -0.875109  0  1.840731  0  0  -0.819696  0  2.024039  0  0  -0.838729  0  1.991945  0  0  -0.627902  -0.806114  0  2.046565  0
O  O71  1  0.44747246  0.68915467  0.01053921  1  0  -0.875242  0  1.839698  0  0  -0.819603  0  2.023671  0  0  -0.838569  0  1.991591  0  0  -0.627857  -0.806068  0  2.046123  0
