# generated using pymatgen
data_FeH6C6(NO3)2
_symmetry_space_group_name_H-M   'P 1'
_cell_length_a   6.86724436
_cell_length_b   6.86726413
_cell_length_c   9.65609438
_cell_angle_alpha   77.92274758
_cell_angle_beta   77.92258371
_cell_angle_gamma   66.98190104
_symmetry_Int_Tables_number   1
_chemical_formula_structural   FeH6C6(NO3)2
_chemical_formula_sum   'Fe2 H12 C12 N4 O12'
_cell_volume   405.71256510
_cell_formula_units_Z   2
loop_
 _symmetry_equiv_pos_site_id
 _symmetry_equiv_pos_as_xyz
  1  'x, y, z'
loop_
 _atom_site_type_symbol
 _atom_site_label
 _atom_site_symmetry_multiplicity
 _atom_site_fract_x
 _atom_site_fract_y
 _atom_site_fract_z
 _atom_site_occupancy
 _atom_site_hle17_bader_spin_density
 _atom_site_hle17_ddec_charge
 _atom_site_hle17_ddec_spin_density
 _atom_site_hle17_ddec_sum_bond_order
 _atom_site_hle17_magmom
 _atom_site_hse06_10hf_bader_spin_density
 _atom_site_hse06_10hf_ddec_charge
 _atom_site_hse06_10hf_ddec_spin_density
 _atom_site_hse06_10hf_ddec_sum_bond_order
 _atom_site_hse06_10hf_magmom
 _atom_site_hse06_bader_spin_density
 _atom_site_hse06_ddec_charge
 _atom_site_hse06_ddec_spin_density
 _atom_site_hse06_ddec_sum_bond_order
 _atom_site_hse06_magmom
 _atom_site_pbe_bader_spin_density
 _atom_site_pbe_cm5_charge
 _atom_site_pbe_ddec_charge
 _atom_site_pbe_ddec_spin_density
 _atom_site_pbe_ddec_sum_bond_order
 _atom_site_pbe_magmom
Fe  Fe0  1  0.50045081  0.99966150  0.50000744  1  0  0.688495  0  2.973813  0  0  0.688972  0  3.435037  0  0  0.718258  0  3.390884  0  0  0.738191  0.67728  0  3.456008  0
Fe  Fe1  1  0.99964727  0.50047455  0.00000537  1  0  0.688755  0  2.974159  0  0  0.688967  0  3.435461  0  0  0.718542  0  3.391231  0  0  0.73836  0.677481  0  3.456294  0
H  H2  1  0.63843399  0.54172194  0.64147861  1  0  0.119497  0  0.963262  0  0  0.122367  0  1.030495  0  0  0.128151  0  1.023184  0  0  0.130303  0.1178  0  1.036873  0
H  H3  1  0.45830825  0.36204238  0.85910459  1  0  0.119067  0  0.964187  0  0  0.122399  0  1.031139  0  0  0.128092  0  1.023915  0  0  0.130101  0.117866  0  1.037454  0
H  H4  1  0.36205071  0.45830240  0.35911355  1  0  0.119133  0  0.964134  0  0  0.122413  0  1.031093  0  0  0.128105  0  1.023871  0  0  0.130085  0.117866  0  1.037448  0
H  H5  1  0.54171429  0.63845343  0.14147664  1  0  0.119402  0  0.963153  0  0  0.122283  0  1.030368  0  0  0.128068  0  1.023057  0  0  0.130287  0.117715  0  1.036724  0
H  H6  1  0.43249847  0.19434329  0.70999759  1  0  0.417951  0  0.820778  0  0  0.398673  0  0.882582  0  0  0.405107  0  0.876655  0  0  0.325209  0.393977  0  0.886922  0
H  H7  1  0.80198078  0.56937419  0.79179626  1  0  0.418382  0  0.820999  0  0  0.39878  0  0.883091  0  0  0.405249  0  0.877118  0  0  0.325467  0.394029  0  0.887481  0
H  H8  1  0.56939376  0.80196395  0.29180298  1  0  0.418443  0  0.820794  0  0  0.398763  0  0.883029  0  0  0.405232  0  0.877049  0  0  0.325444  0.394031  0  0.887414  0
H  H9  1  0.19432424  0.43250918  0.21001553  1  0  0.418097  0  0.82061  0  0  0.398812  0  0.882424  0  0  0.405247  0  0.8765  0  0  0.325241  0.394095  0  0.886774  0
H  H10  1  0.68082162  0.13872177  0.64436171  1  0  0.421764  0  0.884395  0  0  0.388993  0  0.956289  0  0  0.398365  0  0.943434  0  0  0.299001  0.38266  0  0.964919  0
H  H11  1  0.86112445  0.32013499  0.85528083  1  0  0.422356  0  0.883958  0  0  0.390238  0  0.954559  0  0  0.399594  0  0.94171  0  0  0.29966  0.383903  0  0.963195  0
H  H12  1  0.32014205  0.86111865  0.35528130  1  0  0.422356  0  0.883915  0  0  0.390197  0  0.954583  0  0  0.399546  0  0.941746  0  0  0.299658  0.383874  0  0.963209  0
H  H13  1  0.13870832  0.68083956  0.14436162  1  0  0.421711  0  0.884411  0  0  0.388935  0  0.956363  0  0  0.398309  0  0.943504  0  0  0.29898  0.382591  0  0.965001  0
C  C14  1  0.06652260  0.13742112  0.59516271  1  0  0.620237  0  3.87293  0  0  0.568376  0  4.183795  0  0  0.605199  0  4.172797  0  0  0.21491  0.541787  0  4.192665  0
C  C15  1  0.86236395  0.93392803  0.90432463  1  0  0.621806  0  3.871777  0  0  0.570257  0  4.182914  0  0  0.606992  0  4.171944  0  0  0.215896  0.54377  0  4.191633  0
C  C16  1  0.93392665  0.86236322  0.40432106  1  0  0.621707  0  3.872493  0  0  0.570154  0  4.18358  0  0  0.606883  0  4.172613  0  0  0.21579  0.543686  0  4.192313  0
C  C17  1  0.13741638  0.06653835  0.09516517  1  0  0.620356  0  3.872602  0  0  0.568394  0  4.183604  0  0  0.605206  0  4.172618  0  0  0.214933  0.541805  0  4.192452  0
C  C18  1  0.16481473  0.92967686  0.68843937  1  0  0.054556  0  3.630416  0  0  0.050529  0  3.877525  0  0  0.057468  0  3.879953  0  0  0.117873  0.043754  0  3.880109  0
C  C19  1  0.06982984  0.83502232  0.81082607  1  0  0.055678  0  3.628037  0  0  0.049434  0  3.876793  0  0  0.056625  0  3.879107  0  0  0.117318  0.0426  0  3.879333  0
C  C20  1  0.83500611  0.06983246  0.31084271  1  0  0.055889  0  3.628451  0  0  0.049645  0  3.877212  0  0  0.056823  0  3.879529  0  0  0.117355  0.042804  0  3.879761  0
C  C21  1  0.92969014  0.16479916  0.18845719  1  0  0.054631  0  3.630022  0  0  0.050626  0  3.877077  0  0  0.057578  0  3.879509  0  0  0.117968  0.043855  0  3.879645  0
C  C22  1  0.47621507  0.62331744  0.69197316  1  0  0.073971  0  3.616204  0  0  0.041795  0  3.879626  0  0  0.054973  0  3.872984  0  0  0.05073  0.030985  0  3.888144  0
C  C23  1  0.37639804  0.52381273  0.80802967  1  0  0.074429  0  3.615845  0  0  0.040901  0  3.879631  0  0  0.054277  0  3.872995  0  0  0.050051  0.029988  0  3.88809  0
C  C24  1  0.52382011  0.37638598  0.30805251  1  0  0.074338  0  3.616137  0  0  0.04097  0  3.879774  0  0  0.054341  0  3.873138  0  0  0.050216  0.030072  0  3.888251  0
C  C25  1  0.62333631  0.47620288  0.19199820  1  0  0.074062  0  3.615783  0  0  0.041869  0  3.879022  0  0  0.055039  0  3.872401  0  0  0.05058  0.031054  0  3.887516  0
N  N26  1  0.37280323  0.82538187  0.63360300  1  0  -0.214729  0  3.366232  0  0  -0.178168  0  3.645074  0  0  -0.181537  0  3.650057  0  0  -0.359194  -0.177279  0  3.6428  0
N  N27  1  0.17413357  0.62726222  0.86620559  1  0  -0.215992  0  3.366646  0  0  -0.178119  0  3.645495  0  0  -0.181641  0  3.650455  0  0  -0.359083  -0.177178  0  3.643198  0
N  N28  1  0.62728481  0.17414223  0.36620389  1  0  -0.215989  0  3.367681  0  0  -0.178273  0  3.646604  0  0  -0.181768  0  3.651539  0  0  -0.359109  -0.177294  0  3.644297  0
N  N29  1  0.82541414  0.37280881  0.13360225  1  0  -0.215153  0  3.366211  0  0  -0.178476  0  3.644875  0  0  -0.181874  0  3.649889  0  0  -0.359284  -0.177606  0  3.642574  0
O  O30  1  0.20691288  0.20302481  0.50940439  1  0  -0.516239  0  2.073204  0  0  -0.490668  0  2.342744  0  0  -0.524757  0  2.334566  0  0  -0.301025  -0.466463  0  2.346605  0
O  O31  1  0.79663829  0.79403548  0.99056480  1  0  -0.515625  0  2.073989  0  0  -0.489956  0  2.343527  0  0  -0.524069  0  2.335469  0  0  -0.301233  -0.465808  0  2.347262  0
O  O32  1  0.79404969  0.79664900  0.49056170  1  0  -0.515686  0  2.074118  0  0  -0.490029  0  2.343633  0  0  -0.524103  0  2.335556  0  0  -0.301216  -0.465837  0  2.347382  0
O  O33  1  0.20305329  0.20690524  0.00939785  1  0  -0.516381  0  2.072665  0  0  -0.490713  0  2.342164  0  0  -0.524842  0  2.334009  0  0  -0.301091  -0.466542  0  2.346003  0
O  O34  1  0.86854630  0.22730995  0.59373874  1  0  -0.587061  0  2.026808  0  0  -0.538816  0  2.254313  0  0  -0.563868  0  2.245487  0  0  -0.298967  -0.521264  0  2.260825  0
O  O35  1  0.77291032  0.13199096  0.90539863  1  0  -0.588636  0  2.028044  0  0  -0.54074  0  2.255469  0  0  -0.565982  0  2.246873  0  0  -0.299364  -0.522976  0  2.261706  0
O  O36  1  0.13196671  0.77290816  0.40540893  1  0  -0.588568  0  2.028398  0  0  -0.540648  0  2.255819  0  0  -0.565885  0  2.247226  0  0  -0.299209  -0.522859  0  2.262063  0
O  O37  1  0.22729917  0.86857419  0.09372604  1  0  -0.586973  0  2.026707  0  0  -0.538742  0  2.254314  0  0  -0.563796  0  2.245486  0  0  -0.29896  -0.521204  0  2.260805  0
O  O38  1  0.55730281  0.08451507  0.66694313  1  0  -0.734623  0  2.053659  0  0  -0.707226  0  2.274894  0  0  -0.737905  0  2.256986  0  0  -0.547422  -0.684361  0  2.28512  0
O  O39  1  0.91354142  0.44468693  0.83330785  1  0  -0.735288  0  2.054563  0  0  -0.707919  0  2.274547  0  0  -0.73862  0  2.256549  0  0  -0.548523  -0.685096  0  2.284892  0
O  O40  1  0.44469849  0.91353457  0.33331505  1  0  -0.73534  0  2.054425  0  0  -0.707881  0  2.27458  0  0  -0.738542  0  2.256569  0  0  -0.548459  -0.685026  0  2.284921  0
O  O41  1  0.08450898  0.55730598  0.16693505  1  0  -0.734788  0  2.053728  0  0  -0.707366  0  2.274988  0  0  -0.73808  0  2.257086  0  0  -0.547468  -0.684533  0  2.285224  0
