# generated using pymatgen
data_Cd3H36C48(NO6)4
_symmetry_space_group_name_H-M   'P 1'
_cell_length_a   10.22777987
_cell_length_b   10.24268969
_cell_length_c   11.87063056
_cell_angle_alpha   82.52465168
_cell_angle_beta   78.92600789
_cell_angle_gamma   82.03352704
_symmetry_Int_Tables_number   1
_chemical_formula_structural   Cd3H36C48(NO6)4
_chemical_formula_sum   'Cd3 H36 C48 N4 O24'
_cell_volume   1201.76394799
_cell_formula_units_Z   1
loop_
 _symmetry_equiv_pos_site_id
 _symmetry_equiv_pos_as_xyz
  1  'x, y, z'
loop_
 _atom_site_type_symbol
 _atom_site_label
 _atom_site_symmetry_multiplicity
 _atom_site_fract_x
 _atom_site_fract_y
 _atom_site_fract_z
 _atom_site_occupancy
 _atom_site_pbe_bader_spin_density
 _atom_site_pbe_cm5_charge
 _atom_site_pbe_ddec_charge
 _atom_site_pbe_ddec_spin_density
 _atom_site_pbe_ddec_sum_bond_order
 _atom_site_pbe_magmom
Cd  Cd0  1  0.50000784  0.99997869  0.50001562  1  0  0.776467  1.15681  0  2.004591  0
Cd  Cd1  1  0.14237269  0.07548406  0.28529064  1  0  0.77711  0.989664  0  2.032609  0
Cd  Cd2  1  0.85761522  0.92453274  0.71470660  1  0  0.776995  0.989515  0  2.032651  0
H  H3  1  0.72668004  0.81863802  0.44658135  1  0  0.284374  0.386467  0  0.951897  0
H  H4  1  0.27334863  0.18133325  0.55343653  1  0  0.284347  0.386356  0  0.952013  0
H  H5  1  0.61669790  0.75249706  0.39735373  1  0  0.275865  0.336809  0  1.027335  0
H  H6  1  0.38332913  0.24747927  0.60265633  1  0  0.275856  0.336749  0  1.027352  0
H  H7  1  0.71140608  0.13579012  0.53066405  1  0  0.289046  0.386017  0  0.951564  0
H  H8  1  0.28860708  0.86421648  0.46930057  1  0  0.289095  0.386113  0  0.951384  0
H  H9  1  0.74128408  0.11298675  0.40044575  1  0  0.286272  0.386832  0  0.955116  0
H  H10  1  0.25869143  0.88698755  0.59953512  1  0  0.28631  0.386798  0  0.955185  0
H  H11  1  0.84486327  0.09056376  0.96168911  1  0  0.118179  0.15888  0  1.013935  0
H  H12  1  0.15511059  0.90945382  0.03831459  1  0  0.118202  0.158915  0  1.014098  0
H  H13  1  0.57700824  0.07959925  0.97506757  1  0  0.114072  0.14242  0  1.022753  0
H  H14  1  0.42295344  0.92045065  0.02495507  1  0  0.114087  0.142482  0  1.022883  0
H  H15  1  0.17865911  0.40971576  0.61284242  1  0  0.116841  0.139499  0  1.019631  0
H  H16  1  0.82130633  0.59029738  0.38718755  1  0  0.116818  0.139534  0  1.019494  0
H  H17  1  0.17565079  0.68050335  0.57359171  1  0  0.120498  0.151197  0  1.000431  0
H  H18  1  0.82429896  0.31950810  0.42640901  1  0  0.120506  0.151183  0  1.000632  0
H  H19  1  0.00218449  0.44923906  0.22465010  1  0  0.12093  0.113991  0  1.045085  0
H  H20  1  0.99781978  0.55078983  0.77534405  1  0  0.120857  0.113904  0  1.044776  0
H  H21  1  0.85746174  0.35682270  0.11432893  1  0  0.107093  0.114924  0  1.023015  0
H  H22  1  0.14256947  0.64321367  0.88564485  1  0  0.107025  0.114802  0  1.02306  0
H  H23  1  0.74020976  0.76077247  0.97386556  1  0  0.112115  0.133845  0  1.021273  0
H  H24  1  0.25985830  0.23925630  0.02610796  1  0  0.112156  0.133875  0  1.021246  0
H  H25  1  0.88455741  0.83571554  0.09353646  1  0  0.124744  0.108853  0  0.996288  0
H  H26  1  0.11547859  0.16428372  0.90646979  1  0  0.124733  0.108877  0  0.996065  0
H  H27  1  0.70798768  0.38506937  0.98619624  1  0  0.102163  0.097838  0  1.022773  0
H  H28  1  0.29207757  0.61495039  0.01378204  1  0  0.102117  0.097899  0  1.023082  0
H  H29  1  0.64946742  0.66291655  0.85894649  1  0  0.104042  0.10533  0  1.030426  0
H  H30  1  0.35056525  0.33710090  0.14103402  1  0  0.10417  0.105499  0  1.030429  0
H  H31  1  0.60254591  0.29234457  0.89806854  1  0  0.103398  0.109643  0  1.044976  0
H  H32  1  0.39745694  0.70767216  0.10194309  1  0  0.103388  0.109576  0  1.045037  0
H  H33  1  0.48626466  0.19579117  0.77009956  1  0  0.111184  0.08343  0  1.00037  0
H  H34  1  0.51373521  0.80422542  0.22991932  1  0  0.111084  0.083371  0  1.000495  0
H  H35  1  0.41467754  0.55924036  0.58026965  1  0  0.110537  0.080616  0  1.02135  0
H  H36  1  0.58537776  0.44074859  0.41970835  1  0  0.110506  0.080667  0  1.021321  0
H  H37  1  0.52624140  0.67255393  0.70014296  1  0  0.107084  0.124116  0  1.009673  0
H  H38  1  0.47381324  0.32744005  0.29982874  1  0  0.107044  0.124141  0  1.009675  0
C  C39  1  0.43160872  0.08109185  0.22155218  1  0  0.192997  0.520848  0  4.334704  0
C  C40  1  0.56838019  0.91890169  0.77847759  1  0  0.192858  0.520786  0  4.333922  0
C  C41  1  0.57027386  0.08853322  0.16020371  1  0  0.066756  0.068438  0  3.951184  0
C  C42  1  0.42970891  0.91146927  0.83982027  1  0  0.066904  0.068372  0  3.950794  0
C  C43  1  0.78638273  0.09513369  0.15011291  1  0  0.074951  0.082645  0  3.917314  0
C  C44  1  0.21360436  0.90487399  0.84989803  1  0  0.074836  0.082583  0  3.917229  0
C  C45  1  0.76739134  0.09227334  0.03823269  1  0  -0.09168  -0.157762  0  3.926458  0
C  C46  1  0.23258741  0.90773716  0.96178356  1  0  -0.091796  -0.157932  0  3.926826  0
C  C47  1  0.62816765  0.08797781  0.04513149  1  0  -0.100363  -0.17119  0  3.975567  0
C  C48  1  0.37179763  0.91204430  0.95489591  1  0  -0.10034  -0.171166  0  3.975629  0
C  C49  1  0.90675418  0.09327031  0.20143468  1  0  0.189503  0.512516  0  4.318022  0
C  C50  1  0.09324108  0.90671287  0.79856140  1  0  0.189718  0.512763  0  4.317729  0
C  C51  1  0.13989009  0.77664738  0.33032514  1  0  0.211297  0.523676  0  4.267506  0
C  C52  1  0.86004331  0.22331351  0.66966572  1  0  0.211544  0.523884  0  4.268483  0
C  C53  1  0.14901988  0.64744814  0.40033569  1  0  0.083344  0.098721  0  3.898723  0
C  C54  1  0.85090903  0.35252426  0.59967918  1  0  0.083471  0.09906  0  3.898323  0
C  C55  1  0.15181718  0.43095283  0.43191434  1  0  0.076429  0.088016  0  3.926071  0
C  C56  1  0.84813646  0.56902841  0.56812082  1  0  0.076377  0.087549  0  3.927311  0
C  C57  1  0.16865552  0.47284297  0.53357041  1  0  -0.095779  -0.168318  0  3.968031  0
C  C58  1  0.83130052  0.52715832  0.46645137  1  0  -0.095755  -0.16847  0  3.968163  0
C  C59  1  0.16647447  0.61228403  0.51367982  1  0  -0.091849  -0.162838  0  3.939967  0
C  C60  1  0.83347923  0.38770454  0.48632847  1  0  -0.091789  -0.162674  0  3.939677  0
C  C61  1  0.14169653  0.30035587  0.39794816  1  0  0.192324  0.506228  0  4.315231  0
C  C62  1  0.85826318  0.69962471  0.60206837  1  0  0.192303  0.506393  0  4.315458  0
C  C63  1  0.93880167  0.51471166  0.17077314  1  0  0.054479  0.058729  0  3.968348  0
C  C64  1  0.06121408  0.48531325  0.82922963  1  0  0.054445  0.058741  0  3.968698  0
C  C65  1  0.85907344  0.46377410  0.10796440  1  0  -0.075258  -0.162211  0  3.897414  0
C  C66  1  0.14096082  0.53624647  0.89200712  1  0  -0.075149  -0.162017  0  3.897284  0
C  C67  1  0.78480486  0.55035617  0.03478544  1  0  0.010479  0.137918  0  4.017641  0
C  C68  1  0.21524520  0.44966541  0.96519516  1  0  0.01031  0.137688  0  4.016656  0
C  C69  1  0.79405481  0.68724861  0.02878504  1  0  -0.067676  -0.148689  0  3.853276  0
C  C70  1  0.20598892  0.31276807  0.97118783  1  0  -0.067798  -0.148762  0  3.853838  0
C  C71  1  0.87414152  0.73073980  0.09586979  1  0  0.063805  0.080167  0  3.947608  0
C  C72  1  0.12589753  0.26927436  0.90413697  1  0  0.063939  0.080402  0  3.947894  0
C  C73  1  0.70851726  0.49223220  0.96648982  1  0  -0.071964  -0.097512  0  3.913455  0
C  C74  1  0.29153303  0.50779531  0.03349182  1  0  -0.071915  -0.097508  0  3.913582  0
C  C75  1  0.64566959  0.55658188  0.88115472  1  0  -0.070919  -0.093641  0  3.901195  0
C  C76  1  0.35436646  0.44343246  0.11883735  1  0  -0.071092  -0.093907  0  3.901601  0
C  C77  1  0.57572302  0.49267749  0.81145109  1  0  0.006748  0.143044  0  4.012317  0
C  C78  1  0.42431130  0.50733490  0.18853810  1  0  0.006789  0.143032  0  4.012697  0
C  C79  1  0.56223265  0.35614805  0.82916049  1  0  -0.085238  -0.174036  0  3.93025  0
C  C80  1  0.43778451  0.64386596  0.17084232  1  0  -0.085056  -0.173743  0  3.930157  0
C  C81  1  0.49754011  0.30144577  0.75742952  1  0  0.038387  0.08717  0  3.98039  0
C  C82  1  0.50247109  0.69856809  0.24258019  1  0  0.038318  0.087074  0  3.980553  0
C  C83  1  0.45703471  0.50251191  0.65187320  1  0  0.042738  0.092587  0  3.971863  0
C  C84  1  0.54300958  0.49749270  0.34811176  1  0  0.042843  0.092627  0  3.971681  0
C  C85  1  0.51978459  0.56634787  0.71990345  1  0  -0.083214  -0.172748  0  3.889015  0
C  C86  1  0.48026306  0.43365389  0.28007451  1  0  -0.083336  -0.172914  0  3.889226  0
N  N87  1  0.93954157  0.64467642  0.16550403  1  0  -0.233242  -0.084239  0  3.335036  0
N  N88  1  0.06047647  0.35533837  0.83451372  1  0  -0.233426  -0.08473  0  3.334899  0
N  N89  1  0.44561051  0.37189064  0.66889764  1  0  -0.309991  -0.256406  0  3.375906  0
N  N90  1  0.55442358  0.62811571  0.33109725  1  0  -0.309908  -0.256377  0  3.37593  0
O  O91  1  0.64666794  0.83831455  0.40804005  1  0  -0.594227  -0.775753  0  2.114001  0
O  O92  1  0.35335300  0.16166254  0.59198189  1  0  -0.594113  -0.775485  0  2.114008  0
O  O93  1  0.66571683  0.13820752  0.46378107  1  0  -0.592604  -0.781124  0  2.077397  0
O  O94  1  0.33426423  0.86177766  0.53620451  1  0  -0.592649  -0.781129  0  2.077238  0
O  O95  1  0.40432455  0.07494238  0.33069176  1  0  -0.322775  -0.576188  0  2.318376  0
O  O96  1  0.59567471  0.92501750  0.66934141  1  0  -0.322651  -0.576111  0  2.318056  0
O  O97  1  0.34379901  0.08221869  0.15737179  1  0  -0.319517  -0.538977  0  2.243125  0
O  O98  1  0.65619813  0.91777287  0.84266272  1  0  -0.319511  -0.538887  0  2.242569  0
O  O99  1  0.66638480  0.09367288  0.22467789  1  0  -0.103487  -0.091797  0  2.66173  0
O  O100  1  0.33360881  0.90632297  0.77533234  1  0  -0.10344  -0.091668  0  2.661726  0
O  O101  1  0.01926198  0.09153640  0.13328266  1  0  -0.313364  -0.531472  0  2.215457  0
O  O102  1  0.98073436  0.90845377  0.86671084  1  0  -0.313419  -0.531457  0  2.215467  0
O  O103  1  0.89372892  0.09251100  0.31075526  1  0  -0.311608  -0.531047  0  2.202037  0
O  O104  1  0.10628858  0.90747742  0.68923493  1  0  -0.31173  -0.531233  0  2.201906  0
O  O105  1  0.17890330  0.87169015  0.37259956  1  0  -0.300292  -0.516536  0  2.303313  0
O  O106  1  0.82111395  0.12826992  0.62729582  1  0  -0.300315  -0.516645  0  2.30301  0
O  O107  1  0.09770115  0.79146090  0.23618104  1  0  -0.235242  -0.412809  0  2.071387  0
O  O108  1  0.90212060  0.20846200  0.76383044  1  0  -0.235754  -0.413325  0  2.072761  0
O  O109  1  0.13967327  0.53746894  0.35022744  1  0  -0.097948  -0.096509  0  2.66048  0
O  O110  1  0.86026347  0.46250445  0.64979193  1  0  -0.098155  -0.096687  0  2.660786  0
O  O111  1  0.12309148  0.29739872  0.29437813  1  0  -0.308435  -0.514063  0  2.261428  0
O  O112  1  0.87680591  0.70261688  0.70564597  1  0  -0.30848  -0.514127  0  2.261758  0
O  O113  1  0.15144213  0.19844069  0.46983258  1  0  -0.300957  -0.513095  0  2.18738  0
O  O114  1  0.84857747  0.80151626  0.53014193  1  0  -0.300999  -0.513174  0  2.18723  0
