# generated using pymatgen
data_CuH32C32N4(ClO)2
_symmetry_space_group_name_H-M   'P 1'
_cell_length_a   8.93913359
_cell_length_b   8.93776609
_cell_length_c   11.32728899
_cell_angle_alpha   91.33267480
_cell_angle_beta   112.64398422
_cell_angle_gamma   118.87068619
_symmetry_Int_Tables_number   1
_chemical_formula_structural   CuH32C32N4(ClO)2
_chemical_formula_sum   'Cu1 H32 C32 N4 Cl2 O2'
_cell_volume   706.51482943
_cell_formula_units_Z   1
loop_
 _symmetry_equiv_pos_site_id
 _symmetry_equiv_pos_as_xyz
  1  'x, y, z'
loop_
 _atom_site_type_symbol
 _atom_site_label
 _atom_site_symmetry_multiplicity
 _atom_site_fract_x
 _atom_site_fract_y
 _atom_site_fract_z
 _atom_site_occupancy
 _atom_site_hle17_ddec_charge
 _atom_site_hle17_ddec_spin_density
 _atom_site_hle17_ddec_sum_bond_order
 _atom_site_hle17_magmom
 _atom_site_hse06_10hf_ddec_charge
 _atom_site_hse06_10hf_ddec_spin_density
 _atom_site_hse06_10hf_ddec_sum_bond_order
 _atom_site_hse06_10hf_magmom
 _atom_site_hse06_ddec_charge
 _atom_site_hse06_ddec_spin_density
 _atom_site_hse06_ddec_sum_bond_order
 _atom_site_hse06_magmom
 _atom_site_pbe_cm5_charge
 _atom_site_pbe_ddec_charge
 _atom_site_pbe_ddec_spin_density
 _atom_site_pbe_ddec_sum_bond_order
 _atom_site_pbe_magmom
Cu  Cu0  1  0.10067123  0.60081719  0.49992516  1  0.657175  -0.617197  2.055823  -0.438  0.623384  -0.72676  2.49998  -0.561  0.720268  -0.804774  2.41952  -0.658  0.585767  0.570679  -0.676944  2.550462  -0.505
H  H1  1  0.10028937  0.81145434  0.71054894  1  0.090076  -0.000553  0.986071  -0.001  0.095273  -0.000589  1.056152  -0.001  0.097768  -0.000365  1.053826  -0.001  0.108233  0.093287  -0.000762  1.058008  -0.001
H  H2  1  0.10090931  0.38987031  0.28932846  1  0.091391  -0.000547  0.986095  -0.001  0.095829  -0.000583  1.056863  -0.001  0.098332  -0.000361  1.054516  -0.001  0.108308  0.093909  -0.000765  1.058616  -0.001
H  H3  1  0.71590662  0.50910525  0.32490458  1  0.081676  -0.000743  0.969163  -0.001  0.089946  -0.000797  1.035948  -0.001  0.091657  -0.000507  1.034546  -0.001  0.111893  0.088579  -0.001029  1.036971  -0.001
H  H4  1  0.18433294  0.39144518  0.67498462  1  0.081558  -0.000751  0.969002  -0.001  0.089191  -0.000805  1.036366  -0.001  0.09088  -0.000512  1.035017  -0.001  0.111696  0.087757  -0.001031  1.037559  -0.001
H  H5  1  0.45848730  0.53709405  0.33524672  1  0.119053  -0.000561  0.988307  -0.001  0.125833  -0.000496  1.051568  -0.001  0.129395  -0.000329  1.049796  0.0  0.110023  0.123239  -0.000612  1.052963  -0.001
H  H6  1  0.20191302  0.12355183  0.66471339  1  0.119351  -0.000558  0.988017  -0.001  0.12664  -0.000489  1.050697  -0.001  0.130215  -0.000324  1.048915  0.0  0.109964  0.124035  -0.000614  1.052098  -0.001
H  H7  1  0.53496035  0.73073770  0.54352573  1  0.102911  5e-06  0.945748  0.0  0.108678  7.5e-05  1.014585  0.0  0.111263  0.000133  1.01242  0.0  0.105717  0.106406  -1.3e-05  1.01676  0.0
H  H8  1  0.18712791  0.99153884  0.45647247  1  0.102904  2e-06  0.945871  0.0  0.108836  7.2e-05  1.014461  0.0  0.111451  0.000129  1.012241  0.0  0.105802  0.106583  -1.4e-05  1.01664  0.0
H  H9  1  0.96079113  0.05484175  0.75356539  1  0.082462  -0.000284  0.957148  0.0  0.095914  -0.0001  1.024145  0.0  0.095747  -7.9e-05  1.025299  0.0  0.110258  0.095872  -0.000109  1.0234  0.0
H  H10  1  0.30144599  0.20722594  0.24657219  1  0.082305  -0.000261  0.95687  0.0  0.095956  -8.7e-05  1.023751  0.0  0.095857  -7.3e-05  1.024844  0.0  0.110377  0.095908  -0.000109  1.023087  0.0
H  H11  1  0.75056578  0.90016466  0.76350642  1  0.083635  -0.000438  0.950524  0.0  0.09737  -0.000387  1.017981  0.0  0.098402  -0.000267  1.017276  0.0  0.109689  0.096545  -0.000498  1.018558  0.0
H  H12  1  0.13670773  0.98702182  0.23658514  1  0.083343  -0.000434  0.9517  0.0  0.097382  -0.00039  1.019146  0.0  0.098398  -0.000272  1.018414  0.0  0.109574  0.096592  -0.000502  1.019676  0.0
H  H13  1  0.00814933  0.80725260  0.05449668  1  0.053328  -0.00052  0.973428  0.0  0.067874  -0.00055  1.034665  0.0  0.068085  -0.000423  1.035209  0.0  0.11007  0.067705  -0.000653  1.034299  0.0
H  H14  1  0.75292337  0.95370530  0.94553519  1  0.052081  -0.000542  0.9752  0.0  0.067373  -0.000572  1.035392  0.0  0.067612  -0.000438  1.035927  0.0  0.109519  0.067179  -0.000651  1.035066  0.0
H  H15  1  0.62809381  0.64375321  0.80338748  1  0.067058  3.7e-05  0.956987  0.0  0.083943  -1.3e-05  1.022633  0.0  0.084678  1.6e-05  1.022784  0.0  0.083549  0.083413  -3.2e-05  1.022529  0.0
H  H16  1  0.84036513  0.82463541  0.19656255  1  0.066758  5.1e-05  0.957879  0.0  0.083651  -5e-06  1.02362  0.0  0.084389  2e-05  1.023836  0.0  0.082768  0.083255  -3.2e-05  1.023177  0.0
H  H17  1  0.77796064  0.55854374  0.85732707  1  0.070738  -3e-05  0.967849  0.0  0.086193  -1.3e-05  1.033386  0.0  0.086012  -6e-06  1.036021  0.0  0.08582  0.086225  -2e-05  1.031605  0.0
H  H18  1  0.70140230  0.92078152  0.14268085  1  0.071001  -4.1e-05  0.968033  0.0  0.086461  -2e-05  1.033582  0.0  0.086305  -1e-05  1.03623  0.0  0.085699  0.086423  -2e-05  1.031968  0.0
H  H19  1  0.50360662  0.41143984  0.91416742  1  0.076729  -6e-06  0.955584  0.0  0.093045  -1.2e-05  1.018381  0.0  0.09382  -5e-06  1.019062  0.0  0.086309  0.092386  -2.6e-05  1.01807  0.0
H  H20  1  0.49710154  0.58958349  0.08559900  1  0.077137  -1.6e-05  0.954214  0.0  0.093721  -1.6e-05  1.016762  0.0  0.094477  -7e-06  1.017425  0.0  0.086487  0.093095  -2.6e-05  1.016352  0.0
H  H21  1  0.72577287  0.52344692  0.05799935  1  0.060844  -0.000169  0.96318  0.0  0.079974  -0.000208  1.026543  0.0  0.081121  -0.000126  1.026173  0.0  0.074468  0.079153  -0.000272  1.02683  0.0
H  H22  1  0.46557400  0.66803205  0.94184632  1  0.060895  -0.000176  0.962619  0.0  0.080227  -0.000217  1.025838  0.0  0.08135  -0.000134  1.025474  0.0  0.074778  0.07942  -0.000272  1.026099  0.0
H  H23  1  0.52472211  0.27857943  0.11595685  1  0.102824  0.0001  0.95346  0.0  0.112634  -1.9e-05  1.017433  0.0  0.115593  -1.2e-05  1.015898  0.0  0.106819  0.110489  -2.5e-05  1.01857  0.0
H  H24  1  0.16266212  0.40870841  0.88401076  1  0.102962  7.5e-05  0.955207  0.0  0.113288  -1.9e-05  1.01859  0.0  0.116238  -1.3e-05  1.017106  0.0  0.107272  0.111167  -2.5e-05  1.01967  0.0
H  H25  1  0.75174612  0.27611295  0.32913176  1  0.069577  0.000434  1.000597  0.0  0.070779  0.000204  1.081583  0.0  0.072346  0.000341  1.081045  0.0  0.085701  0.069128  5.3e-05  1.082653  0.0
H  H26  1  0.94675184  0.42234629  0.67082889  1  0.070368  0.000438  0.99954  0.0  0.071438  0.000196  1.08051  0.0  0.072998  0.000334  1.079988  0.0  0.085843  0.069854  5.3e-05  1.081523  0.0
H  H27  1  0.67813427  0.99200655  0.39128307  1  0.082547  8.3e-05  0.954967  0.0  0.094515  3.1e-05  1.012455  0.0  0.096671  2.8e-05  1.012715  0.0  0.095808  0.093051  3.4e-05  1.012232  0.0
H  H28  1  0.60056279  0.28651908  0.60879182  1  0.082953  6.8e-05  0.955336  0.0  0.09505  3.3e-05  1.012518  0.0  0.097209  2.9e-05  1.012774  0.0  0.095925  0.093525  3.4e-05  1.012409  0.0
H  H29  1  0.38450431  0.70806109  0.23121745  1  0.09501  6.2e-05  0.981502  0.0  0.102365  -2.2e-05  1.047635  0.0  0.105368  -7e-06  1.046173  0.0  0.098929  0.100217  -3e-05  1.048727  0.0
H  H30  1  0.47698906  0.15319460  0.76900595  1  0.096291  6.7e-05  0.981994  0.0  0.103568  -1.9e-05  1.048091  0.0  0.106581  -6e-06  1.046624  0.0  0.099511  0.101439  -3.1e-05  1.049161  0.0
H  H31  1  0.16597306  0.71078770  0.02110779  1  0.102607  7e-06  0.939748  0.0  0.113429  -6.1e-05  0.999369  0.0  0.116156  -4.7e-05  0.998325  0.0  0.106939  0.111474  -6.7e-05  1.000132  0.0
H  H32  1  0.69005903  0.14497841  0.97911698  1  0.101217  4.3e-05  0.940471  0.0  0.111738  -5.7e-05  1.000625  0.0  0.114461  -4.5e-05  0.999593  0.0  0.10653  0.109838  -6.7e-05  1.001326  0.0
C  C33  1  0.95692656  0.75726473  0.63021835  1  0.077447  0.008122  3.641072  0.006  0.041121  0.001122  3.891508  0.001  0.050521  0.002675  3.910012  0.002  0.043744  0.035094  -0.000286  3.879844  0.0
C  C34  1  0.12707381  0.32689904  0.36968359  1  0.076406  0.008008  3.646111  0.006  0.040187  0.001012  3.896146  0.001  0.049635  0.002582  3.914638  0.002  0.043152  0.034282  -0.000288  3.884345  0.0
C  C35  1  0.74011053  0.58347544  0.41454970  1  0.111515  0.005295  3.695333  0.004  0.083216  -0.000422  3.94124  -0.001  0.091435  0.001223  3.962523  0.001  0.037171  0.077673  -0.001555  3.928203  -0.001
C  C36  1  0.16909862  0.32595993  0.58538360  1  0.114221  0.005411  3.696157  0.004  0.086556  -0.000319  3.941744  -0.001  0.094788  0.00132  3.963024  0.001  0.039175  0.081339  -0.001534  3.928181  -0.001
C  C37  1  0.59889705  0.60401238  0.42102382  1  -0.109671  -0.007252  3.726309  -0.007  -0.11883  -0.003267  3.969929  -0.004  -0.126009  -0.002786  3.990755  -0.003  -0.081721  -0.114101  -0.003652  3.955721  -0.004
C  C38  1  0.18306238  0.17818677  0.57893757  1  -0.111056  -0.007281  3.726632  -0.007  -0.120743  -0.003286  3.970489  -0.004  -0.127931  -0.002807  3.991256  -0.003  -0.082189  -0.116088  -0.003656  3.956413  -0.004
C  C39  1  0.64229991  0.71041362  0.53574724  1  -0.048165  0.007843  3.672047  0.006  -0.069091  0.001735  3.910384  0.001  -0.065261  0.002454  3.92766  0.002  -0.060978  -0.071357  0.001287  3.898813  0.001
C  C40  1  0.17460609  0.10670470  0.46422306  1  -0.049176  0.008006  3.674173  0.006  -0.070701  0.001875  3.912553  0.001  -0.066868  0.002576  3.929827  0.002  -0.062985  -0.073017  0.001297  3.901015  0.001
C  C41  1  0.82563216  0.79147048  0.64222409  1  0.041672  -0.007991  3.69877  -0.008  0.065832  -0.003179  3.936734  -0.004  0.060911  -0.002626  3.959267  -0.003  0.000516  0.068755  -0.003621  3.921608  -0.004
C  C42  1  0.14923576  0.18352887  0.35772882  1  0.042666  -0.00799  3.702371  -0.008  0.068303  -0.003206  3.938381  -0.004  0.063343  -0.002656  3.960931  -0.003  0.002592  0.071123  -0.003629  3.923331  -0.004
C  C43  1  0.88098857  0.91968268  0.76263822  1  -0.041968  -0.000839  3.686776  -0.001  -0.109659  -0.000738  3.935871  -0.001  -0.104735  -0.000472  3.948144  0.0  -0.057702  -0.112775  -0.00101  3.927556  -0.001
C  C44  1  0.15716631  0.11837201  0.23741340  1  -0.041391  -0.000851  3.687407  -0.001  -0.109736  -0.000766  3.935995  -0.001  -0.104765  -0.000501  3.948132  -0.001  -0.056544  -0.112811  -0.001014  3.927709  -0.001
C  C45  1  0.90520760  0.82092272  0.97113033  1  0.080758  -0.000231  3.579537  0.0  0.052953  -0.000328  3.824124  0.0  0.056945  -0.000231  3.839007  0.0  0.007645  0.050332  -0.000364  3.813711  0.0
C  C46  1  0.84991639  0.93411297  0.02891230  1  0.082906  -0.000243  3.581372  0.0  0.055799  -0.000311  3.82448  0.0  0.059821  -0.000217  3.839388  0.0  0.009724  0.053118  -0.00036  3.814066  0.0
C  C47  1  0.73045189  0.63539978  0.89202373  1  -0.149814  -0.00011  3.665098  0.0  -0.191978  -0.000114  3.918933  0.0  -0.193256  -5.9e-05  3.932541  0.0  -0.171156  -0.190835  -0.000167  3.90931  0.0
C  C48  1  0.74345313  0.83849418  0.10796476  1  -0.149228  -0.000116  3.666075  0.0  -0.19169  -0.000118  3.919699  0.0  -0.193131  -6.2e-05  3.933563  0.0  -0.170175  -0.190474  -0.000167  3.909891  0.0
C  C49  1  0.62859350  0.54350269  0.97394414  1  -0.113892  -0.000325  3.686107  0.0  -0.150766  -0.000305  3.941646  0.0  -0.152212  -0.000172  3.956051  0.0  -0.175797  -0.149595  -0.000399  3.93157  0.0
C  C50  1  0.56953177  0.65478687  0.02593183  1  -0.115993  -0.000315  3.685984  0.0  -0.153155  -0.0003  3.941703  0.0  -0.154508  -0.000172  3.956138  0.0  -0.176859  -0.152021  -0.000401  3.931589  0.0
C  C51  1  0.19417933  0.00703713  0.93220475  1  0.487867  0.000152  3.802964  0.0  0.435125  -2.5e-05  4.099575  0.0  0.465323  -7e-06  4.097666  0.0  0.237945  0.414729  -2.5e-05  4.10031  0.0
C  C52  1  0.07511685  0.26203318  0.06784204  1  0.490238  0.000126  3.804511  0.0  0.436877  2e-06  4.102386  0.0  0.467101  8e-06  4.100412  0.0  0.238555  0.41654  -2.5e-05  4.102964  0.0
C  C53  1  0.32519973  0.99674859  0.05812699  1  -0.047245  0.001136  3.768169  0.001  -0.026378  0.000164  4.005862  0.0  -0.032101  0.000158  4.027026  0.0  -0.014394  -0.02277  1.9e-05  3.991672  0.0
C  C54  1  0.93882223  0.26712044  0.94196312  1  -0.048539  0.000935  3.770465  0.001  -0.027572  3.4e-05  4.008496  0.0  -0.033339  4e-05  4.029704  0.0  -0.014226  -0.024023  2.3e-05  3.994331  0.0
C  C55  1  0.49442412  0.15496737  0.14393334  1  -0.083111  -0.002655  3.729716  -0.002  -0.106841  -0.000674  3.977681  -0.001  -0.106803  -0.000366  3.99709  0.0  -0.085594  -0.106695  -0.000788  3.964473  -0.001
C  C56  1  0.01110958  0.35043587  0.85608972  1  -0.084039  -0.001964  3.735014  -0.002  -0.107904  -0.000462  3.982444  0.0  -0.107835  -0.000239  4.001833  0.0  -0.08629  -0.10778  -0.000796  3.969248  -0.001
C  C57  1  0.62031816  0.15288269  0.26328725  1  -0.084128  0.000543  3.794148  0.001  -0.095323  0.00017  4.046873  0.0  -0.098702  0.000292  4.070178  0.0  -0.099141  -0.092725  -8e-05  4.031067  0.0
C  C58  1  0.88950632  0.35684417  0.73673901  1  -0.084069  -9.1e-05  3.796999  0.0  -0.095495  8.4e-05  4.050287  0.0  -0.098881  0.000226  4.073587  0.0  -0.099249  -0.092966  -7.8e-05  4.034319  0.0
C  C59  1  0.57990031  0.99326294  0.29759039  1  -0.066472  -0.000815  3.765997  -0.001  -0.078556  -0.000286  4.007471  0.0  -0.079372  -0.000164  4.028368  0.0  -0.091047  -0.077856  -0.000235  3.992911  0.0
C  C60  1  0.69562534  0.28208965  0.70249376  1  -0.067602  -0.000257  3.767656  0.0  -0.079569  -0.000149  4.008864  0.0  -0.080363  -7.7e-05  4.029731  0.0  -0.091493  -0.078685  -0.00024  3.994176  0.0
C  C61  1  0.41632998  0.83487135  0.20963569  1  -0.054747  -0.001749  3.755267  -0.001  -0.068719  -0.000562  4.005161  0.0  -0.070633  -0.000254  4.024586  0.0  -0.087984  -0.067251  -0.000924  3.991631  -0.001
C  C62  1  0.62534308  0.20658119  0.79052359  1  -0.056771  -0.001845  3.753958  -0.001  -0.070662  -0.000608  4.003717  0.0  -0.072573  -0.000299  4.023089  0.0  -0.088401  -0.06928  -0.00093  3.990242  -0.001
C  C63  1  0.29040999  0.83620539  0.08998573  1  -0.07813  -0.001256  3.713421  -0.001  -0.099726  -0.000526  3.958766  0.0  -0.098616  -0.000361  3.976063  0.0  -0.082757  -0.100088  -0.000975  3.946798  -0.001
C  C64  1  0.74646911  0.20046575  0.91017625  1  -0.07455  -0.001921  3.712065  -0.002  -0.096179  -0.000695  3.957453  0.0  -0.095114  -0.000418  3.974833  0.0  -0.081931  -0.096536  -0.000979  3.945445  -0.001
N  N65  1  0.91557960  0.65667922  0.51833567  1  -0.299314  -0.07003  3.384177  -0.086  -0.238616  -0.049682  3.674236  -0.065  -0.273289  -0.039541  3.69964  -0.056  -0.349956  -0.21889  -0.054913  3.659781  -0.068
N  N66  1  0.13839486  0.39751359  0.48153554  1  -0.300622  -0.070105  3.389591  -0.086  -0.239496  -0.049769  3.678527  -0.065  -0.274141  -0.039642  3.703887  -0.056  -0.350457  -0.219809  -0.055064  3.66416  -0.068
N  N67  1  0.00011655  0.90851420  0.88976022  1  -0.243561  -0.000996  3.350013  -0.001  -0.161005  -0.000302  3.590507  0.0  -0.183127  -0.000112  3.612372  0.0  -0.269034  -0.145904  -0.000525  3.575148  -0.001
N  N68  1  0.01894555  0.11038039  0.11025780  1  -0.246946  -0.000737  3.353826  -0.001  -0.164796  -0.000222  3.595612  0.0  -0.186878  -8.7e-05  3.617379  0.0  -0.27249  -0.149699  -0.000525  3.580293  -0.001
Cl  Cl69  1  0.33919832  0.74250297  0.70496636  1  -0.501979  -0.117199  0.951106  -0.137  -0.490622  -0.076163  1.234886  -0.094  -0.522591  -0.055418  1.210006  -0.076  -0.290482  -0.47179  -0.088843  1.252157  -0.104
Cl  Cl70  1  0.03727465  0.63432556  0.29490569  1  -0.501405  -0.117523  0.950496  -0.137  -0.489951  -0.076478  1.234101  -0.095  -0.522043  -0.055641  1.209301  -0.076  -0.290199  -0.471423  -0.088843  1.251363  -0.104
O  O71  1  0.26333258  0.10349905  0.86588165  1  -0.546372  -0.00035  1.956927  0.0  -0.501851  -0.000159  2.186389  0.0  -0.522994  -4.5e-05  2.18041  0.0  -0.292632  -0.486825  -0.000332  2.189925  0.0
O  O72  1  0.23791327  0.39745116  0.13415790  1  -0.546506  -0.000184  1.959297  0.0  -0.501859  -7.9e-05  2.189419  0.0  -0.522853  -1.1e-05  2.1832  0.0  -0.292398  -0.486739  -0.000331  2.192906  0.0
