# generated using pymatgen
data_FeH24C18(SeN7)2
_symmetry_space_group_name_H-M   'P 1'
_cell_length_a   7.67934436
_cell_length_b   9.16073902
_cell_length_c   10.22768027
_cell_angle_alpha   115.44506871
_cell_angle_beta   91.79727259
_cell_angle_gamma   93.91956193
_symmetry_Int_Tables_number   1
_chemical_formula_structural   FeH24C18(SeN7)2
_chemical_formula_sum   'Fe1 H24 C18 Se2 N14'
_cell_volume   646.71405144
_cell_formula_units_Z   1
loop_
 _symmetry_equiv_pos_site_id
 _symmetry_equiv_pos_as_xyz
  1  'x, y, z'
loop_
 _atom_site_type_symbol
 _atom_site_label
 _atom_site_symmetry_multiplicity
 _atom_site_fract_x
 _atom_site_fract_y
 _atom_site_fract_z
 _atom_site_occupancy
 _atom_site_hle17_bader_spin_density
 _atom_site_hle17_ddec_charge
 _atom_site_hle17_ddec_spin_density
 _atom_site_hle17_ddec_sum_bond_order
 _atom_site_hle17_magmom
 _atom_site_hse06_10hf_bader_spin_density
 _atom_site_hse06_10hf_ddec_charge
 _atom_site_hse06_10hf_ddec_spin_density
 _atom_site_hse06_10hf_ddec_sum_bond_order
 _atom_site_hse06_10hf_magmom
 _atom_site_hse06_bader_spin_density
 _atom_site_hse06_ddec_charge
 _atom_site_hse06_ddec_spin_density
 _atom_site_hse06_ddec_sum_bond_order
 _atom_site_hse06_magmom
 _atom_site_pbe_bader_spin_density
 _atom_site_pbe_cm5_charge
 _atom_site_pbe_ddec_charge
 _atom_site_pbe_ddec_spin_density
 _atom_site_pbe_ddec_sum_bond_order
 _atom_site_pbe_magmom
Fe  Fe0  1  0.48239403  0.99146169  0.49025949  1  0  0.553695  0  3.033342  0  0  0.516  0  3.520735  0  0  0.571589  0  3.457021  0  0  0.713097  0.484618  0  3.559557  0
H  H1  1  0.74710174  0.36687812  0.64425590  1  0  0.105763  0  0.976993  0  0  0.11289  0  1.04767  0  0  0.115434  0  1.04383  0  0  0.123985  0.110766  0  1.050463  0
H  H2  1  0.26489303  0.63564505  0.35469558  1  0  0.111047  0  0.977326  0  0  0.116941  0  1.048153  0  0  0.11964  0  1.044171  0  0  0.127124  0.114222  0  1.052129  0
H  H3  1  0.89371760  0.92358944  0.62562610  1  0  0.088966  0  0.961172  0  0  0.094144  0  1.031833  0  0  0.095456  0  1.030212  0  0  0.122875  0.092339  0  1.034264  0
H  H4  1  0.11457028  0.08121998  0.37891440  1  0  0.095219  0  0.961895  0  0  0.101103  0  1.029317  0  0  0.10253  0  1.027229  0  0  0.128126  0.098956  0  1.032423  0
H  H5  1  0.30679886  0.79029626  0.66938422  1  0  0.107447  0  0.944226  0  0  0.110212  0  1.020934  0  0  0.113133  0  1.016267  0  0  0.133787  0.107761  0  1.024549  0
H  H6  1  0.67091498  0.20222297  0.32754808  1  0  0.111755  0  0.93571  0  0  0.11521  0  1.010125  0  0  0.117771  0  1.00633  0  0  0.13818  0.112813  0  1.013691  0
H  H7  1  0.47236867  0.28634697  0.82000533  1  0  0.095117  0  0.912882  0  0  0.109802  0  0.965201  0  0  0.110689  0  0.963983  0  0  0.138552  0.109003  0  0.966463  0
H  H8  1  0.52233595  0.70158042  0.16500236  1  0  0.095091  0  0.912827  0  0  0.109798  0  0.96482  0  0  0.11082  0  0.96334  0  0  0.139014  0.108827  0  0.96634  0
H  H9  1  0.01451668  0.54584294  0.78830973  1  0  0.080461  0  0.928901  0  0  0.098181  0  0.993148  0  0  0.098906  0  0.992143  0  0  0.108899  0.097852  0  0.992881  0
H  H10  1  0.99171117  0.45938589  0.21786961  1  0  0.081249  0  0.932575  0  0  0.097924  0  0.997739  0  0  0.098419  0  0.997864  0  0  0.108183  0.097617  0  0.997307  0
H  H11  1  0.20827379  0.44560831  0.76483407  1  0  0.08068  0  0.939694  0  0  0.094709  0  1.004939  0  0  0.094998  0  1.003999  0  0  0.106449  0.09479  0  1.004855  0
H  H12  1  0.79953987  0.56208293  0.24136939  1  0  0.084134  0  0.940004  0  0  0.097564  0  1.005479  0  0  0.097605  0  1.005717  0  0  0.106962  0.097528  0  1.005425  0
H  H13  1  0.16437425  0.40551822  0.98884663  1  0  0.078719  0  0.94787  0  0  0.093128  0  1.015964  0  0  0.094487  0  1.015609  0  0  0.093575  0.092347  0  1.015656  0
H  H14  1  0.84322630  0.59920229  0.01628918  1  0  0.077838  0  0.951141  0  0  0.091991  0  1.0201  0  0  0.093253  0  1.019931  0  0  0.09286  0.091225  0  1.019759  0
H  H15  1  0.17337506  0.61337340  0.02693160  1  0  0.067315  0  0.94435  0  0  0.087073  0  1.004698  0  0  0.087299  0  1.005903  0  0  0.092709  0.087102  0  1.003439  0
H  H16  1  0.83426458  0.39166660  0.97891880  1  0  0.071414  0  0.937864  0  0  0.0917  0  0.995641  0  0  0.092308  0  0.996376  0  0  0.094124  0.091442  0  0.994542  0
H  H17  1  0.29296526  0.99970076  0.08168295  1  0  0.090612  0  0.908869  0  0  0.105933  0  0.971135  0  0  0.106957  0  0.970108  0  0  0.117897  0.105472  0  0.970968  0
H  H18  1  0.70935344  0.00360422  0.91929537  1  0  0.092847  0  0.906209  0  0  0.108021  0  0.967795  0  0  0.108834  0  0.967757  0  0  0.118579  0.107382  0  0.967796  0
H  H19  1  0.28103224  0.80377818  0.93403904  1  0  0.075313  0  0.926676  0  0  0.09229  0  0.989067  0  0  0.092701  0  0.98853  0  0  0.112105  0.09205  0  0.988743  0
H  H20  1  0.71990654  0.19658953  0.07049221  1  0  0.07729  0  0.923599  0  0  0.094255  0  0.985759  0  0  0.094409  0  0.986212  0  0  0.113068  0.093906  0  0.985648  0
H  H21  1  0.98099057  0.84892860  0.85381809  1  0  0.067879  0  0.946869  0  0  0.081363  0  1.01883  0  0  0.082395  0  1.018557  0  0  0.086144  0.080443  0  1.019124  0
H  H22  1  0.01919493  0.15108871  0.14967578  1  0  0.067878  0  0.946786  0  0  0.081308  0  1.017957  0  0  0.082208  0  1.018003  0  0  0.0861  0.080599  0  1.017846  0
H  H23  1  0.99288040  0.84543393  0.02527486  1  0  0.078009  0  0.959415  0  0  0.091774  0  1.028213  0  0  0.092441  0  1.029422  0  0  0.09294  0.091365  0  1.026761  0
H  H24  1  0.00832581  0.15457853  0.97806635  1  0  0.08027  0  0.957281  0  0  0.09404  0  1.024949  0  0  0.094884  0  1.025996  0  0  0.09384  0.093452  0  1.023599  0
C  C25  1  0.33983644  0.29887454  0.49976171  1  0  0.195279  0  3.846169  0  0  0.19182  0  4.158876  0  0  0.217582  0  4.165368  0  0  0.083213  0.172783  0  4.157481  0
C  C26  1  0.64896339  0.70061072  0.49646434  1  0  0.200388  0  3.842576  0  0  0.197032  0  4.152823  0  0  0.222447  0  4.159942  0  0  0.084729  0.178733  0  4.150762  0
C  C27  1  0.81658576  0.27426313  0.65810064  1  0  0.142649  0  3.646551  0  0  0.071665  0  3.908009  0  0  0.093385  0  3.926982  0  0  0.155839  0.063654  0  3.898602  0
C  C28  1  0.19463217  0.72873041  0.34266800  1  0  0.145147  0  3.594445  0  0  0.07115  0  3.855197  0  0  0.087131  0  3.865596  0  0  0.155329  0.060481  0  3.849444  0
C  C29  1  0.89461961  0.05161603  0.65046984  1  0  0.185211  0  3.697261  0  0  0.139814  0  3.985213  0  0  0.151793  0  3.996866  0  0  0.142551  0.133059  0  3.974501  0
C  C30  1  0.11474100  0.95347079  0.35373085  1  0  0.190529  0  3.650125  0  0  0.141924  0  3.937599  0  0  0.154805  0  3.950622  0  0  0.145415  0.133351  0  3.929266  0
C  C31  1  0.33600357  0.91989793  0.73656317  1  0  0.170479  0  3.578238  0  0  0.099146  0  3.838867  0  0  0.122475  0  3.854589  0  0  0.167574  0.089351  0  3.831907  0
C  C32  1  0.64746050  0.07276113  0.25808304  1  0  0.168597  0  3.573623  0  0  0.095213  0  3.836821  0  0  0.111168  0  3.84735  0  0  0.167401  0.085132  0  3.830005  0
C  C33  1  0.42065349  0.17197957  0.81739970  1  0  0.191434  0  3.716329  0  0  0.131702  0  4.026883  0  0  0.146001  0  4.03511  0  0  0.145023  0.122651  0  4.019156  0
C  C34  1  0.57243831  0.81821003  0.17150950  1  0  0.187728  0  3.712006  0  0  0.129854  0  4.020228  0  0  0.143027  0  4.031445  0  0  0.144917  0.120903  0  4.012613  0
C  C35  1  0.07965103  0.45462816  0.81004521  1  0  -0.016  0  3.652726  0  0  -0.092456  0  3.90936  0  0  -0.080107  0  3.925441  0  0  -0.053264  -0.095031  0  3.901173  0
C  C36  1  0.92799422  0.55102005  0.19576741  1  0  -0.01849  0  3.646731  0  0  -0.094789  0  3.903457  0  0  -0.091083  0  3.915614  0  0  -0.053163  -0.096991  0  3.895158  0
C  C37  1  0.09320454  0.49660783  0.97125352  1  0  -0.132953  0  3.699116  0  0  -0.176441  0  3.966784  0  0  -0.177062  0  3.97814  0  0  -0.167152  -0.175219  0  3.956472  0
C  C38  1  0.91450537  0.50845056  0.03436655  1  0  -0.132698  0  3.694943  0  0  -0.176105  0  3.962622  0  0  -0.177306  0  3.97546  0  0  -0.166513  -0.174816  0  3.952435  0
C  C39  1  0.23543570  0.92528643  0.97098328  1  0  -0.005941  0  3.614636  0  0  -0.082821  0  3.876776  0  0  -0.071508  0  3.891722  0  0  -0.0469  -0.084904  0  3.868496  0
C  C40  1  0.76541266  0.07482293  0.03096855  1  0  -0.006708  0  3.614469  0  0  -0.08426  0  3.877556  0  0  -0.080285  0  3.888811  0  0  -0.045703  -0.086249  0  3.869402  0
C  C41  1  0.03573375  0.91678376  0.96690907  1  0  -0.128356  0  3.672625  0  0  -0.167911  0  3.93196  0  0  -0.169245  0  3.944873  0  0  -0.166992  -0.16678  0  3.921952  0
C  C42  1  0.96507881  0.08323896  0.03642407  1  0  -0.13042  0  3.674615  0  0  -0.168189  0  3.93245  0  0  -0.170032  0  3.94701  0  0  -0.16713  -0.166931  0  3.922369  0
Se  Se43  1  0.20283602  0.43552067  0.47265750  1  0  -0.382497  0  1.932975  0  0  -0.388689  0  2.287817  0  0  -0.402721  0  2.27128  0  0  -0.159713  -0.376034  0  2.300831  0
Se  Se44  1  0.79308723  0.57387199  0.53193497  1  0  -0.393693  0  1.919749  0  0  -0.398714  0  2.271384  0  0  -0.41176  0  2.254862  0  0  -0.169747  -0.388111  0  2.284578  0
N  N45  1  0.41363478  0.19683018  0.51449468  1  0  -0.442654  0  3.220107  0  0  -0.412852  0  3.528338  0  0  -0.431277  0  3.526742  0  0  -0.417415  -0.40258  0  3.531702  0
N  N46  1  0.56666267  0.79324445  0.47390432  1  0  -0.446582  0  3.216972  0  0  -0.414584  0  3.521715  0  0  -0.433596  0  3.521105  0  0  -0.416286  -0.403988  0  3.524389  0
N  N47  1  0.76295595  0.11689387  0.60713804  1  0  -0.327265  0  3.140974  0  0  -0.283626  0  3.431821  0  0  -0.308052  0  3.44627  0  0  -0.308516  -0.266319  0  3.418581  0
N  N48  1  0.25023081  0.88706258  0.39345971  1  0  -0.293773  0  3.327838  0  0  -0.249273  0  3.633216  0  0  -0.278809  0  3.649796  0  0  -0.344367  -0.229989  0  3.621439  0
N  N49  1  0.97498323  0.30108766  0.72860306  1  0  0.034963  0  3.587356  0  0  0.162002  0  3.763253  0  0  0.120873  0  3.8324  0  0  -0.138108  0.168673  0  3.74616  0
N  N50  1  0.03407976  0.70410654  0.27679664  1  0  0.042522  0  3.583347  0  0  0.167921  0  3.762673  0  0  0.157676  0  3.786806  0  0  -0.136345  0.17325  0  3.748401  0
N  N51  1  0.02641910  0.16068450  0.72596436  1  0  -0.261524  0  2.86392  0  0  -0.258605  0  3.129336  0  0  -0.259395  0  3.153767  0  0  -0.217788  -0.251492  0  3.11673  0
N  N52  1  0.98176546  0.84496979  0.28164669  1  0  -0.250384  0  2.854237  0  0  -0.252778  0  3.123881  0  0  -0.261626  0  3.139249  0  0  -0.215688  -0.246  0  3.112963  0
N  N53  1  0.40565267  0.02930743  0.69413060  1  0  -0.30092  0  3.294244  0  0  -0.257748  0  3.600805  0  0  -0.284436  0  3.613845  0  0  -0.328542  -0.239146  0  3.588268  0
N  N54  1  0.57410386  0.95978373  0.29495092  1  0  -0.298757  0  3.310439  0  0  -0.255546  0  3.618987  0  0  -0.283169  0  3.635148  0  0  -0.332175  -0.236862  0  3.606496  0
N  N55  1  0.31164170  0.99571858  0.87945935  1  0  0.040661  0  3.556007  0  0  0.162222  0  3.742278  0  0  0.125461  0  3.804416  0  0  -0.133536  0.1682  0  3.726988  0
N  N56  1  0.68587913  0.99987421  0.11804187  1  0  0.04327  0  3.551952  0  0  0.164577  0  3.739096  0  0  0.154022  0  3.763387  0  0  -0.131765  0.169884  0  3.725143  0
N  N57  1  0.36580214  0.15683461  0.93317666  1  0  -0.29472  0  2.868984  0  0  -0.301147  0  3.149056  0  0  -0.301344  0  3.166817  0  0  -0.232858  -0.295294  0  3.141033  0
N  N58  1  0.63828295  0.83732483  0.06076240  1  0  -0.290528  0  2.867165  0  0  -0.296861  0  3.146284  0  0  -0.304202  0  3.157367  0  0  -0.231503  -0.291251  0  3.138459  0
