# generated using pymatgen
data_ZnH8(C3O2)3
_symmetry_space_group_name_H-M   'P 1'
_cell_length_a   6.78662082
_cell_length_b   8.02044906
_cell_length_c   17.52473896
_cell_angle_alpha   94.05869518
_cell_angle_beta   90.00010980
_cell_angle_gamma   89.99987847
_symmetry_Int_Tables_number   1
_chemical_formula_structural   ZnH8(C3O2)3
_chemical_formula_sum   'Zn4 H32 C36 O24'
_cell_volume   951.50982662
_cell_formula_units_Z   4
loop_
 _symmetry_equiv_pos_site_id
 _symmetry_equiv_pos_as_xyz
  1  'x, y, z'
loop_
 _atom_site_type_symbol
 _atom_site_label
 _atom_site_symmetry_multiplicity
 _atom_site_fract_x
 _atom_site_fract_y
 _atom_site_fract_z
 _atom_site_occupancy
 _atom_site_hle17_bader_spin_density
 _atom_site_hle17_ddec_charge
 _atom_site_hle17_ddec_spin_density
 _atom_site_hle17_ddec_sum_bond_order
 _atom_site_hle17_magmom
 _atom_site_hse06_10hf_bader_spin_density
 _atom_site_hse06_10hf_ddec_charge
 _atom_site_hse06_10hf_ddec_spin_density
 _atom_site_hse06_10hf_ddec_sum_bond_order
 _atom_site_hse06_10hf_magmom
 _atom_site_hse06_bader_spin_density
 _atom_site_hse06_ddec_charge
 _atom_site_hse06_ddec_spin_density
 _atom_site_hse06_ddec_sum_bond_order
 _atom_site_hse06_magmom
 _atom_site_pbe_bader_spin_density
 _atom_site_pbe_cm5_charge
 _atom_site_pbe_ddec_charge
 _atom_site_pbe_ddec_spin_density
 _atom_site_pbe_ddec_sum_bond_order
 _atom_site_pbe_magmom
Zn  Zn0  1  0.56476239  0.55735261  0.77069900  1  0  1.205529  0  1.70079  0  0  1.028231  0  2.174626  0  0  1.079459  0  2.107887  0  0  0.702303  0.99174  0  2.221019  0
Zn  Zn1  1  0.06476186  0.94264841  0.72930042  1  0  1.205548  0  1.700783  0  0  1.028198  0  2.174626  0  0  1.079425  0  2.107888  0  0  0.7023  0.991715  0  2.221018  0
Zn  Zn2  1  0.43523724  0.44264758  0.22930081  1  0  1.205506  0  1.70085  0  0  1.028188  0  2.174698  0  0  1.079419  0  2.107959  0  0  0.702277  0.991697  0  2.221092  0
Zn  Zn3  1  0.93523776  0.05735177  0.27070054  1  0  1.205553  0  1.700774  0  0  1.028217  0  2.174614  0  0  1.079441  0  2.107879  0  0  0.702303  0.991728  0  2.221004  0
H  H4  1  0.36313068  0.26125760  0.74229372  1  0  0.436772  0  0.861096  0  0  0.405898  0  0.923352  0  0  0.416868  0  0.907425  0  0  0.298104  0.398122  0  0.934633  0
H  H5  1  0.86313068  0.23874237  0.75770538  1  0  0.436758  0  0.861118  0  0  0.405896  0  0.923359  0  0  0.41687  0  0.907425  0  0  0.298094  0.39812  0  0.934639  0
H  H6  1  0.63686895  0.73874260  0.25770553  1  0  0.436771  0  0.861091  0  0  0.405895  0  0.923351  0  0  0.416866  0  0.907424  0  0  0.298113  0.398119  0  0.934633  0
H  H7  1  0.13686894  0.76125657  0.24229439  1  0  0.436768  0  0.861101  0  0  0.405896  0  0.923356  0  0  0.41687  0  0.907424  0  0  0.298106  0.398121  0  0.934638  0
H  H8  1  0.24434990  0.39164364  0.80049364  1  0  0.434582  0  0.86896  0  0  0.401739  0  0.934516  0  0  0.413523  0  0.917612  0  0  0.292653  0.393433  0  0.946409  0
H  H9  1  0.74434994  0.10835527  0.69950647  1  0  0.434573  0  0.86897  0  0  0.401737  0  0.934513  0  0  0.413523  0  0.917607  0  0  0.29266  0.393431  0  0.94641  0
H  H10  1  0.75564973  0.60835530  0.19950613  1  0  0.434576  0  0.868964  0  0  0.401735  0  0.934516  0  0  0.41352  0  0.917611  0  0  0.292665  0.393429  0  0.946408  0
H  H11  1  0.25564968  0.89164367  0.30049330  1  0  0.434581  0  0.868963  0  0  0.401742  0  0.934511  0  0  0.413529  0  0.917603  0  0  0.292658  0.393435  0  0.946407  0
H  H12  1  0.69757915  0.66455911  0.04986414  1  0  0.119872  0  0.999046  0  0  0.126083  0  1.067083  0  0  0.13038  0  1.064452  0  0  0.103221  0.12298  0  1.069147  0
H  H13  1  0.19757999  0.83543869  0.45013635  1  0  0.119837  0  0.999101  0  0  0.126062  0  1.067138  0  0  0.130358  0  1.064497  0  0  0.103212  0.122959  0  1.069202  0
H  H14  1  0.30242047  0.33543732  0.95013612  1  0  0.119879  0  0.999119  0  0  0.126084  0  1.067173  0  0  0.130381  0  1.064536  0  0  0.103206  0.122981  0  1.069239  0
H  H15  1  0.80241964  0.16456023  0.54986456  1  0  0.119859  0  0.999032  0  0  0.126071  0  1.06708  0  0  0.130371  0  1.064444  0  0  0.103216  0.122968  0  1.069145  0
H  H16  1  0.48481057  0.81180889  0.14474685  1  0  0.090802  0  0.958175  0  0  0.100466  0  1.019786  0  0  0.104042  0  1.016668  0  0  0.102397  0.097828  0  1.022128  0
H  H17  1  0.98480971  0.68819093  0.35525392  1  0  0.090792  0  0.95819  0  0  0.100458  0  1.019792  0  0  0.104034  0  1.016675  0  0  0.102393  0.097821  0  1.022135  0
H  H18  1  0.51519052  0.18818880  0.85525288  1  0  0.090799  0  0.958167  0  0  0.100474  0  1.019773  0  0  0.10405  0  1.016656  0  0  0.102389  0.097838  0  1.022115  0
H  H19  1  0.01518991  0.31180924  0.64474703  1  0  0.090737  0  0.958244  0  0  0.100405  0  1.01985  0  0  0.10398  0  1.016734  0  0  0.10237  0.09777  0  1.022192  0
H  H20  1  0.17523208  0.95034957  0.10511168  1  0  0.109788  0  0.955178  0  0  0.118732  0  1.01678  0  0  0.122675  0  1.01438  0  0  0.102217  0.115855  0  1.018696  0
H  H21  1  0.67523029  0.54965078  0.39488773  1  0  0.109789  0  0.955182  0  0  0.118734  0  1.016787  0  0  0.122678  0  1.014386  0  0  0.102215  0.115856  0  1.018701  0
H  H22  1  0.82476902  0.04965059  0.89488984  1  0  0.109772  0  0.955155  0  0  0.118685  0  1.016783  0  0  0.122629  0  1.014383  0  0  0.102216  0.115814  0  1.018701  0
H  H23  1  0.32476786  0.45035066  0.60511156  1  0  0.10977  0  0.955186  0  0  0.118712  0  1.016794  0  0  0.122657  0  1.014393  0  0  0.102217  0.115836  0  1.018711  0
H  H24  1  0.09568063  0.94388921  0.96504012  1  0  0.093637  0  0.986662  0  0  0.10372  0  1.049912  0  0  0.106478  0  1.047622  0  0  0.103713  0.101711  0  1.051601  0
H  H25  1  0.59567852  0.55611301  0.53495937  1  0  0.093636  0  0.986656  0  0  0.103721  0  1.049902  0  0  0.106479  0  1.047612  0  0  0.103723  0.101713  0  1.051586  0
H  H26  1  0.90431899  0.05611096  0.03496141  1  0  0.093691  0  0.986601  0  0  0.103778  0  1.049846  0  0  0.106542  0  1.047559  0  0  0.10374  0.101766  0  1.05154  0
H  H27  1  0.40431816  0.44388844  0.46503992  1  0  0.093648  0  0.986652  0  0  0.103732  0  1.049899  0  0  0.106491  0  1.047607  0  0  0.103728  0.10172  0  1.051593  0
H  H28  1  0.79531806  0.48597317  0.96864067  1  0  0.09861  0  0.940905  0  0  0.10652  0  1.010247  0  0  0.10744  0  1.010727  0  0  0.114894  0.105888  0  1.010025  0
H  H29  1  0.29531616  0.01402814  0.53135956  1  0  0.098593  0  0.940909  0  0  0.106524  0  1.010293  0  0  0.107462  0  1.01078  0  0  0.114896  0.105893  0  1.01007  0
H  H30  1  0.20468156  0.51402826  0.03135919  1  0  0.098596  0  0.940911  0  0  0.106508  0  1.010263  0  0  0.107427  0  1.010741  0  0  0.114878  0.105876  0  1.010042  0
H  H31  1  0.70468347  0.98597204  0.46864025  1  0  0.098633  0  0.940903  0  0  0.106522  0  1.010242  0  0  0.107448  0  1.010723  0  0  0.114888  0.105891  0  1.01002  0
H  H32  1  0.91381267  0.67481072  0.94437539  1  0  0.103435  0  0.926284  0  0  0.113535  0  0.989653  0  0  0.114849  0  0.98895  0  0  0.11586  0.112571  0  0.990326  0
H  H33  1  0.41381011  0.82518845  0.55562480  1  0  0.103396  0  0.926262  0  0  0.113521  0  0.98966  0  0  0.11485  0  0.988966  0  0  0.115856  0.112557  0  0.990332  0
H  H34  1  0.08618843  0.32518947  0.05562443  1  0  0.103431  0  0.926309  0  0  0.113537  0  0.98968  0  0  0.11485  0  0.988975  0  0  0.115851  0.112573  0  0.990353  0
H  H35  1  0.58618804  0.17481173  0.44437501  1  0  0.103434  0  0.926319  0  0  0.113516  0  0.989678  0  0  0.114833  0  0.988977  0  0  0.115848  0.112552  0  0.99035  0
C  C36  1  0.51392880  0.71639524  0.95280606  1  0  0.279114  0  3.744404  0  0  0.265644  0  3.997976  0  0  0.278289  0  4.014845  0  0  0.093096  0.257024  0  3.986498  0
C  C37  1  0.01392630  0.78360586  0.54719390  1  0  0.279078  0  3.744437  0  0  0.26561  0  3.997992  0  0  0.278255  0  4.014852  0  0  0.093107  0.256991  0  3.986513  0
C  C38  1  0.48607083  0.28360371  0.04719314  1  0  0.279237  0  3.744325  0  0  0.265807  0  3.997847  0  0  0.27845  0  4.014715  0  0  0.09319  0.257201  0  3.986355  0
C  C39  1  0.98607332  0.21639431  0.45280705  1  0  0.279167  0  3.744302  0  0  0.26574  0  3.997815  0  0  0.278383  0  4.014684  0  0  0.093166  0.257136  0  3.986319  0
C  C40  1  0.56345337  0.72246219  0.03049543  1  0  -0.209524  0  3.729713  0  0  -0.230533  0  3.984954  0  0  -0.238334  0  4.004934  0  0  -0.111422  -0.225403  0  3.971596  0
C  C41  1  0.06345297  0.77753585  0.46950439  1  0  -0.209409  0  3.729677  0  0  -0.230441  0  3.984914  0  0  -0.238231  0  4.004884  0  0  -0.111354  -0.22531  0  3.971554  0
C  C42  1  0.43654773  0.27753675  0.96950434  1  0  -0.209538  0  3.729841  0  0  -0.230571  0  3.985101  0  0  -0.238368  0  4.005077  0  0  -0.111379  -0.225445  0  3.97174  0
C  C43  1  0.93654812  0.22246308  0.53049595  1  0  -0.209437  0  3.729637  0  0  -0.230474  0  3.984871  0  0  -0.238275  0  4.004851  0  0  -0.111352  -0.225348  0  3.97151  0
C  C44  1  0.44235189  0.80659372  0.08475066  1  0  -0.004512  0  3.739388  0  0  -0.02162  0  3.994145  0  0  -0.018523  0  4.012247  0  0  -0.081823  -0.023374  0  3.981669  0
C  C45  1  0.94235279  0.69340493  0.41524890  1  0  -0.004514  0  3.739395  0  0  -0.021617  0  3.994166  0  0  -0.018522  0  4.012268  0  0  -0.081835  -0.023375  0  3.981693  0
C  C46  1  0.55765068  0.19340522  0.91524911  1  0  -0.004492  0  3.739395  0  0  -0.021609  0  3.994174  0  0  -0.018513  0  4.012274  0  0  -0.081807  -0.023367  0  3.981707  0
C  C47  1  0.05764978  0.30659150  0.58475136  1  0  -0.004508  0  3.739361  0  0  -0.021617  0  3.994131  0  0  -0.01852  0  4.012235  0  0  -0.081842  -0.023376  0  3.981662  0
C  C48  1  0.26986531  0.88454207  0.06271441  1  0  -0.100656  0  3.761637  0  0  -0.119142  0  4.021602  0  0  -0.124296  0  4.042189  0  0  -0.102867  -0.115815  0  4.007652  0
C  C49  1  0.76986504  0.61545938  0.43728512  1  0  -0.100678  0  3.761579  0  0  -0.119163  0  4.021533  0  0  -0.124316  0  4.042121  0  0  -0.102846  -0.11584  0  4.007594  0
C  C50  1  0.73013431  0.11545810  0.93728655  1  0  -0.100641  0  3.761549  0  0  -0.1191  0  4.02153  0  0  -0.124253  0  4.04212  0  0  -0.102861  -0.115781  0  4.007589  0
C  C51  1  0.23013459  0.38454206  0.56271474  1  0  -0.100589  0  3.761513  0  0  -0.119072  0  4.021458  0  0  -0.124223  0  4.042045  0  0  -0.102841  -0.115752  0  4.007527  0
C  C52  1  0.22389479  0.87930968  0.98537161  1  0  -0.053493  0  3.767285  0  0  -0.077847  0  4.01909  0  0  -0.074639  0  4.038685  0  0  -0.086101  -0.079713  0  4.005863  0
C  C53  1  0.72389389  0.62069231  0.51462797  1  0  -0.053483  0  3.767326  0  0  -0.077825  0  4.019128  0  0  -0.074618  0  4.038723  0  0  -0.086132  -0.079692  0  4.0059  0
C  C54  1  0.77610778  0.12068925  0.01462873  1  0  -0.05348  0  3.767296  0  0  -0.07783  0  4.019067  0  0  -0.074634  0  4.038672  0  0  -0.08612  -0.079696  0  4.005843  0
C  C55  1  0.27610573  0.37930912  0.48537189  1  0  -0.053458  0  3.767257  0  0  -0.077803  0  4.019062  0  0  -0.074595  0  4.038656  0  0  -0.086104  -0.079672  0  4.005835  0
C  C56  1  0.34222905  0.79718555  0.92869148  1  0  -0.193624  0  3.750721  0  0  -0.178241  0  3.991877  0  0  -0.191027  0  4.014229  0  0  -0.032565  -0.169968  0  3.97706  0
C  C57  1  0.84222675  0.70281625  0.57130761  1  0  -0.193608  0  3.750943  0  0  -0.178268  0  3.992131  0  0  -0.191054  0  4.014485  0  0  -0.032576  -0.169995  0  3.977313  0
C  C58  1  0.65777057  0.20281340  0.07130715  1  0  -0.193754  0  3.750912  0  0  -0.178383  0  3.992039  0  0  -0.191168  0  4.014394  0  0  -0.032651  -0.170111  0  3.977215  0
C  C59  1  0.15777140  0.29718518  0.42869225  1  0  -0.193721  0  3.750876  0  0  -0.178395  0  3.992075  0  0  -0.19118  0  4.014428  0  0  -0.032634  -0.170123  0  3.977249  0
C  C60  1  0.28254080  0.81260188  0.84763062  1  0  0.694653  0  3.855058  0  0  0.641504  0  4.145645  0  0  0.678365  0  4.13705  0  0  0.21953  0.616394  0  4.150811  0
C  C61  1  0.78254042  0.68739877  0.65236953  1  0  0.694623  0  3.855207  0  0  0.641527  0  4.145733  0  0  0.678388  0  4.137137  0  0  0.219543  0.616417  0  4.150899  0
C  C62  1  0.71745882  0.18739830  0.15237034  1  0  0.694583  0  3.855161  0  0  0.641491  0  4.145675  0  0  0.678352  0  4.137081  0  0  0.219526  0.61638  0  4.15084  0
C  C63  1  0.21745921  0.31260141  0.34763086  1  0  0.694645  0  3.855206  0  0  0.641522  0  4.145755  0  0  0.678384  0  4.13716  0  0  0.219513  0.616412  0  4.150918  0
C  C64  1  0.81754098  0.57165389  0.92295507  1  0  -0.077365  0  3.623017  0  0  -0.134107  0  3.880754  0  0  -0.130721  0  3.881799  0  0  -0.064044  -0.136635  0  3.880104  0
C  C65  1  0.31754121  0.92834545  0.57704448  1  0  -0.077141  0  3.6228  0  0  -0.134091  0  3.880732  0  0  -0.130792  0  3.881892  0  0  -0.064046  -0.136618  0  3.880078  0
C  C66  1  0.18245865  0.42834630  0.07704474  1  0  -0.077396  0  3.62307  0  0  -0.134153  0  3.88083  0  0  -0.130758  0  3.881863  0  0  -0.064044  -0.136678  0  3.880179  0
C  C67  1  0.68245694  0.07165473  0.42295534  1  0  -0.077377  0  3.62314  0  0  -0.134057  0  3.880719  0  0  -0.130692  0  3.881792  0  0  -0.064044  -0.136584  0  3.880066  0
C  C68  1  0.91651803  0.47253969  0.85693750  1  0  0.696599  0  3.848373  0  0  0.640277  0  4.154213  0  0  0.673522  0  4.147146  0  0  0.223103  0.617662  0  4.158364  0
C  C69  1  0.41651370  0.02745266  0.64306365  1  0  0.696309  0  3.848471  0  0  0.640101  0  4.154194  0  0  0.673362  0  4.147137  0  0  0.223003  0.617489  0  4.158339  0
C  C70  1  0.08347865  0.52746050  0.14306174  1  0  0.696624  0  3.848329  0  0  0.640289  0  4.154194  0  0  0.673528  0  4.147129  0  0  0.223134  0.617673  0  4.158346  0
C  C71  1  0.58348592  0.97254753  0.35693616  1  0  0.696394  0  3.848531  0  0  0.640106  0  4.154259  0  0  0.673349  0  4.147203  0  0  0.222996  0.617491  0  4.158405  0
O  O72  1  0.35500724  0.38047781  0.76193780  1  0  -0.861983  0  1.901567  0  0  -0.79087  0  2.123306  0  0  -0.814275  0  2.083348  0  0  -0.580249  -0.774334  0  2.151035  0
O  O73  1  0.85500450  0.11952217  0.73806130  1  0  -0.861978  0  1.901569  0  0  -0.79086  0  2.123289  0  0  -0.81427  0  2.083333  0  0  -0.580268  -0.774328  0  2.151016  0
O  O74  1  0.64499386  0.61952238  0.23806202  1  0  -0.861969  0  1.901552  0  0  -0.790859  0  2.123298  0  0  -0.814264  0  2.083339  0  0  -0.580272  -0.774324  0  2.151028  0
O  O75  1  0.14499512  0.88047677  0.26193790  1  0  -0.861997  0  1.901579  0  0  -0.790875  0  2.123317  0  0  -0.814279  0  2.083349  0  0  -0.580267  -0.774342  0  2.151047  0
O  O76  1  0.81830557  0.43687060  0.79516508  1  0  -0.667874  0  2.101918  0  0  -0.58863  0  2.362717  0  0  -0.618977  0  2.347126  0  0  -0.306722  -0.567393  0  2.372849  0
O  O77  1  0.31830735  0.06312820  0.70483337  1  0  -0.667836  0  2.102205  0  0  -0.588528  0  2.362863  0  0  -0.618868  0  2.347279  0  0  -0.306698  -0.567293  0  2.372993  0
O  O78  1  0.18169553  0.56312959  0.20483473  1  0  -0.667879  0  2.101811  0  0  -0.588598  0  2.362581  0  0  -0.618954  0  2.34701  0  0  -0.306739  -0.567361  0  2.372714  0
O  O79  1  0.68169228  0.93687073  0.29516697  1  0  -0.667813  0  2.102191  0  0  -0.588499  0  2.362873  0  0  -0.618838  0  2.34729  0  0  -0.306678  -0.567263  0  2.373002  0
O  O80  1  0.08952628  0.42617951  0.86844207  1  0  -0.596688  0  1.968231  0  0  -0.539216  0  2.186331  0  0  -0.56516  0  2.178296  0  0  -0.298707  -0.521122  0  2.191436  0
O  O81  1  0.58953197  0.07381842  0.63155732  1  0  -0.596548  0  1.967983  0  0  -0.539127  0  2.186036  0  0  -0.565074  0  2.177998  0  0  -0.29862  -0.521032  0  2.191137  0
O  O82  1  0.91047629  0.57381942  0.13155884  1  0  -0.59667  0  1.968367  0  0  -0.539192  0  2.186471  0  0  -0.565135  0  2.17844  0  0  -0.298708  -0.521099  0  2.191577  0
O  O83  1  0.41046765  0.92618177  0.36844249  1  0  -0.596567  0  1.967935  0  0  -0.539151  0  2.186032  0  0  -0.5651  0  2.178001  0  0  -0.298624  -0.521056  0  2.191134  0
O  O84  1  0.37486800  0.74296845  0.79060782  1  0  -0.657668  0  2.079436  0  0  -0.58942  0  2.358612  0  0  -0.617525  0  2.339255  0  0  -0.32  -0.569852  0  2.371447  0
O  O85  1  0.87486772  0.75703330  0.70939129  1  0  -0.657685  0  2.079576  0  0  -0.589436  0  2.358723  0  0  -0.617542  0  2.339365  0  0  -0.320018  -0.569867  0  2.371552  0
O  O86  1  0.62513016  0.25703298  0.20939261  1  0  -0.657664  0  2.079458  0  0  -0.589419  0  2.358608  0  0  -0.617525  0  2.339249  0  0  -0.319994  -0.569857  0  2.37145  0
O  O87  1  0.12513191  0.24296689  0.29060852  1  0  -0.6577  0  2.079561  0  0  -0.589454  0  2.358735  0  0  -0.61756  0  2.339377  0  0  -0.320024  -0.569872  0  2.371535  0
O  O88  1  0.13180291  0.90487616  0.83746889  1  0  -0.635238  0  2.022676  0  0  -0.561459  0  2.284253  0  0  -0.591155  0  2.26891  0  0  -0.313741  -0.540676  0  2.294134  0
O  O89  1  0.63180280  0.59512349  0.66253053  1  0  -0.635172  0  2.022664  0  0  -0.561437  0  2.284237  0  0  -0.591133  0  2.268895  0  0  -0.313729  -0.540651  0  2.294114  0
O  O90  1  0.86819524  0.09512525  0.16253268  1  0  -0.635163  0  2.02262  0  0  -0.56146  0  2.284246  0  0  -0.591149  0  2.268888  0  0  -0.31377  -0.540677  0  2.294124  0
O  O91  1  0.36819682  0.40487669  0.33746985  1  0  -0.635186  0  2.022658  0  0  -0.561418  0  2.284219  0  0  -0.591114  0  2.268876  0  0  -0.313686  -0.540634  0  2.294094  0
O  O92  1  0.63279204  0.63552590  0.89819402  1  0  -0.304764  0  2.454398  0  0  -0.22126  0  2.697965  0  0  -0.241255  0  2.697859  0  0  -0.17282  -0.206919  0  2.697558  0
O  O93  1  0.13279109  0.86447624  0.60180607  1  0  -0.30489  0  2.454348  0  0  -0.221302  0  2.697945  0  0  -0.241273  0  2.697866  0  0  -0.172901  -0.206963  0  2.697539  0
O  O94  1  0.36720611  0.36447553  0.10180641  1  0  -0.304813  0  2.454445  0  0  -0.22133  0  2.698029  0  0  -0.241328  0  2.697921  0  0  -0.172875  -0.206995  0  2.69762  0
O  O95  1  0.86720854  0.13552519  0.39819379  1  0  -0.304833  0  2.454335  0  0  -0.221334  0  2.697848  0  0  -0.241324  0  2.697749  0  0  -0.172883  -0.207  0  2.697435  0
