# generated using pymatgen
data_KH10C15NO5
_symmetry_space_group_name_H-M   'P 1'
_cell_length_a   6.56990303
_cell_length_b   8.79414077
_cell_length_c   11.14672803
_cell_angle_alpha   100.21252027
_cell_angle_beta   89.99946716
_cell_angle_gamma   89.99978259
_symmetry_Int_Tables_number   1
_chemical_formula_structural   KH10C15NO5
_chemical_formula_sum   'K2 H20 C30 N2 O10'
_cell_volume   633.81733673
_cell_formula_units_Z   2
loop_
 _symmetry_equiv_pos_site_id
 _symmetry_equiv_pos_as_xyz
  1  'x, y, z'
loop_
 _atom_site_type_symbol
 _atom_site_label
 _atom_site_symmetry_multiplicity
 _atom_site_fract_x
 _atom_site_fract_y
 _atom_site_fract_z
 _atom_site_occupancy
 _atom_site_hle17_bader_spin_density
 _atom_site_hle17_ddec_charge
 _atom_site_hle17_ddec_spin_density
 _atom_site_hle17_ddec_sum_bond_order
 _atom_site_hle17_magmom
 _atom_site_hse06_10hf_bader_spin_density
 _atom_site_hse06_10hf_ddec_charge
 _atom_site_hse06_10hf_ddec_spin_density
 _atom_site_hse06_10hf_ddec_sum_bond_order
 _atom_site_hse06_10hf_magmom
 _atom_site_hse06_bader_spin_density
 _atom_site_hse06_ddec_charge
 _atom_site_hse06_ddec_spin_density
 _atom_site_hse06_ddec_sum_bond_order
 _atom_site_hse06_magmom
 _atom_site_pbe_bader_spin_density
 _atom_site_pbe_cm5_charge
 _atom_site_pbe_ddec_charge
 _atom_site_pbe_ddec_spin_density
 _atom_site_pbe_ddec_sum_bond_order
 _atom_site_pbe_magmom
K  K0  1  0.39419261  0.41738019  0.88582551  1  0  0.926036  0  0.470926  0  0  0.882598  0  0.650295  0  0  0.896819  0  0.628404  0  0  0.785618  0.871272  0  0.666815  0
K  K1  1  0.89420259  0.58261683  0.11417665  1  0  0.926032  0  0.470934  0  0  0.882619  0  0.650271  0  0  0.896838  0  0.628381  0  0  0.785646  0.871282  0  0.666816  0
H  H2  1  0.99233917  0.70738635  0.89012275  1  0  0.358498  0  0.955541  0  0  0.33217  0  1.033786  0  0  0.343854  0  1.016684  0  0  0.282831  0.323928  0  1.044168  0
H  H3  1  0.49233899  0.29261138  0.10987627  1  0  0.358509  0  0.9555  0  0  0.332181  0  1.033761  0  0  0.343863  0  1.016661  0  0  0.282845  0.323938  0  1.044127  0
H  H4  1  0.41089275  0.23485087  0.59070883  1  0  0.100146  0  0.937622  0  0  0.111007  0  0.999418  0  0  0.114679  0  0.996139  0  0  0.113516  0.10641  0  1.005604  0
H  H5  1  0.91088346  0.76514835  0.40929084  1  0  0.100089  0  0.937699  0  0  0.110931  0  0.999509  0  0  0.114607  0  0.996225  0  0  0.113475  0.106337  0  1.005689  0
H  H6  1  0.40349717  0.23205796  0.36418135  1  0  0.105236  0  0.957803  0  0  0.115309  0  1.019281  0  0  0.118175  0  1.018648  0  0  0.105308  0.113226  0  1.019652  0
H  H7  1  0.90349648  0.76794246  0.63581942  1  0  0.105254  0  0.95779  0  0  0.115328  0  1.01926  0  0  0.118197  0  1.018623  0  0  0.105307  0.11324  0  1.019645  0
H  H8  1  0.40150699  0.98799670  0.22076562  1  0  0.104175  0  0.95146  0  0  0.110982  0  1.021369  0  0  0.114797  0  1.017979  0  0  0.107554  0.107816  0  1.024196  0
H  H9  1  0.90151247  0.01200371  0.77923426  1  0  0.104197  0  0.951438  0  0  0.111016  0  1.02134  0  0  0.114829  0  1.017953  0  0  0.10755  0.10785  0  1.024168  0
H  H10  1  0.40591298  0.69859659  0.18129099  1  0  0.110105  0  0.957848  0  0  0.118599  0  1.021552  0  0  0.122691  0  1.018325  0  0  0.119331  0.11553  0  1.023684  0
H  H11  1  0.90592549  0.30140726  0.81870842  1  0  0.110078  0  0.957896  0  0  0.118581  0  1.021576  0  0  0.122668  0  1.018355  0  0  0.119337  0.115511  0  1.023708  0
H  H12  1  0.39230698  0.45242277  0.26266817  1  0  0.107276  0  0.981257  0  0  0.115154  0  1.04289  0  0  0.118868  0  1.041147  0  0  0.111855  0.111781  0  1.046284  0
H  H13  1  0.89231191  0.54757997  0.73733027  1  0  0.107272  0  0.981267  0  0  0.11516  0  1.042897  0  0  0.118876  0  1.041151  0  0  0.111826  0.111781  0  1.04629  0
H  H14  1  0.40278785  0.45843171  0.48791403  1  0  0.094217  0  0.95966  0  0  0.103507  0  1.025209  0  0  0.106188  0  1.023502  0  0  0.107028  0.101999  0  1.025544  0
H  H15  1  0.90278417  0.54156867  0.51208315  1  0  0.094219  0  0.959682  0  0  0.103505  0  1.025232  0  0  0.106187  0  1.023526  0  0  0.107042  0.101997  0  1.025566  0
H  H16  1  0.47567013  0.97244857  0.91052648  1  0  0.088991  0  0.953064  0  0  0.098669  0  1.01882  0  0  0.101088  0  1.016983  0  0  0.128792  0.097055  0  1.020014  0
H  H17  1  0.97567420  0.02754924  0.08947354  1  0  0.088984  0  0.953041  0  0  0.098694  0  1.018796  0  0  0.101113  0  1.01696  0  0  0.128819  0.097081  0  1.019989  0
H  H18  1  0.26661481  0.86344390  0.03938876  1  0  0.043418  0  0.934705  0  0  0.055563  0  1.008007  0  0  0.056145  0  1.006528  0  0  0.098631  0.054943  0  1.009335  0
H  H19  1  0.76661680  0.13655247  0.96061224  1  0  0.04345  0  0.934694  0  0  0.055579  0  1.00799  0  0  0.056171  0  1.0065  0  0  0.098641  0.05496  0  1.009316  0
H  H20  1  0.12580506  0.92161510  0.91923395  1  0  0.04864  0  0.932413  0  0  0.063586  0  0.999075  0  0  0.063798  0  0.998679  0  0  0.101876  0.063329  0  0.999389  0
H  H21  1  0.62580597  0.07838186  0.08076789  1  0  0.048629  0  0.932443  0  0  0.063571  0  0.999092  0  0  0.063785  0  0.998696  0  0  0.101878  0.063315  0  0.999407  0
C  C22  1  0.41288540  0.99057413  0.70306938  1  0  0.517388  0  3.793643  0  0  0.470962  0  4.080648  0  0  0.500937  0  4.081089  0  0  0.246133  0.450937  0  4.079506  0
C  C23  1  0.91286804  0.00942626  0.29693223  1  0  0.517484  0  3.793433  0  0  0.471122  0  4.080336  0  0  0.501107  0  4.080762  0  0  0.246216  0.451096  0  4.079195  0
C  C24  1  0.40994272  0.98820054  0.57075028  1  0  -0.120151  0  3.805541  0  0  -0.101735  0  4.040075  0  0  -0.113507  0  4.065996  0  0  -0.016357  -0.093786  0  4.023541  0
C  C25  1  0.90993088  0.01180215  0.42924985  1  0  -0.120342  0  3.805555  0  0  -0.101967  0  4.040107  0  0  -0.113755  0  4.066057  0  0  -0.016453  -0.094016  0  4.023574  0
C  C26  1  0.40836837  0.84549662  0.48864637  1  0  0.031281  0  3.798852  0  0  0.033421  0  4.017165  0  0  0.036281  0  4.043446  0  0  0.00148  0.030867  0  4.000349  0
C  C27  1  0.90835754  0.15450378  0.51135436  1  0  0.031344  0  3.798756  0  0  0.033535  0  4.017062  0  0  0.036401  0  4.043336  0  0  0.001496  0.030981  0  4.000247  0
C  C28  1  0.40910659  0.70436659  0.53289871  1  0  -0.120178  0  3.799407  0  0  -0.105377  0  4.038034  0  0  -0.117077  0  4.063313  0  0  -0.017645  -0.096398  0  4.018957  0
C  C29  1  0.90909575  0.29563609  0.46710053  1  0  -0.120232  0  3.799334  0  0  -0.105535  0  4.038076  0  0  -0.117238  0  4.063354  0  0  -0.017659  -0.096555  0  4.018999  0
C  C30  1  0.41758970  0.70383462  0.66484907  1  0  0.526467  0  3.782808  0  0  0.482503  0  4.063354  0  0  0.512886  0  4.061933  0  0  0.249887  0.462775  0  4.06272  0
C  C31  1  0.91757940  0.29616458  0.33515146  1  0  0.526416  0  3.782945  0  0  0.482503  0  4.063469  0  0  0.512888  0  4.062043  0  0  0.249839  0.462778  0  4.062826  0
C  C32  1  0.40968804  0.12600660  0.52621302  1  0  -0.02405  0  3.69126  0  0  -0.053587  0  3.947338  0  0  -0.048533  0  3.964459  0  0  -0.063521  -0.058413  0  3.939016  0
C  C33  1  0.90968022  0.87399378  0.47378681  1  0  -0.023807  0  3.691265  0  0  -0.053331  0  3.947322  0  0  -0.048279  0  3.964449  0  0  -0.063417  -0.058157  0  3.938999  0
C  C34  1  0.40747287  0.12463771  0.39975275  1  0  -0.081889  0  3.740287  0  0  -0.10301  0  4.015123  0  0  -0.108371  0  4.036001  0  0  -0.09166  -0.100324  0  4.001205  0
C  C35  1  0.90746762  0.87536265  0.60024529  1  0  -0.081996  0  3.740368  0  0  -0.103091  0  4.015197  0  0  -0.108454  0  4.036074  0  0  -0.091673  -0.100405  0  4.001281  0
C  C36  1  0.40644694  0.98660029  0.31827722  1  0  -0.059912  0  3.669183  0  0  -0.092097  0  3.934056  0  0  -0.090473  0  3.951346  0  0  -0.070751  -0.091321  0  3.922123  0
C  C37  1  0.90644786  0.01340126  0.68172278  1  0  -0.059991  0  3.669176  0  0  -0.09221  0  3.934083  0  0  -0.090584  0  3.951373  0  0  -0.070805  -0.091434  0  3.922154  0
C  C38  1  0.40666920  0.84371000  0.36016454  1  0  0.050775  0  3.7901  0  0  0.071304  0  4.018254  0  0  0.068213  0  4.043388  0  0  -0.000189  0.072231  0  4.001068  0
C  C39  1  0.90666853  0.15629153  0.63983456  1  0  0.050835  0  3.790005  0  0  0.071351  0  4.018151  0  0  0.068261  0  4.04328  0  0  -0.000142  0.072278  0  4.000968  0
C  C40  1  0.40315569  0.69957986  0.27958844  1  0  -0.085556  0  3.676712  0  0  -0.110405  0  3.925984  0  0  -0.109549  0  3.943961  0  0  -0.059633  -0.108096  0  3.911969  0
C  C41  1  0.90316063  0.30042053  0.72040963  1  0  -0.085606  0  3.676758  0  0  -0.11042  0  3.925988  0  0  -0.109566  0  3.943971  0  0  -0.059672  -0.108112  0  3.911974  0
C  C42  1  0.39979186  0.56278746  0.32477470  1  0  -0.067471  0  3.735411  0  0  -0.08271  0  3.993544  0  0  -0.08712  0  4.013485  0  0  -0.077344  -0.080793  0  3.980105  0
C  C43  1  0.89979224  0.43721525  0.67522370  1  0  -0.067479  0  3.735447  0  0  -0.08274  0  3.993552  0  0  -0.087151  0  4.013492  0  0  -0.077299  -0.080816  0  3.980113  0
C  C44  1  0.40369351  0.56529479  0.45133178  1  0  -0.023653  0  3.685218  0  0  -0.051541  0  3.938572  0  0  -0.047195  0  3.956455  0  0  -0.063174  -0.052812  0  3.923082  0
C  C45  1  0.90368980  0.43470677  0.54866824  1  0  -0.023564  0  3.685221  0  0  -0.051419  0  3.938596  0  0  -0.047071  0  3.956479  0  0  -0.063168  -0.052689  0  3.923105  0
C  C46  1  0.43198514  0.85193489  0.87543857  1  0  -0.043713  0  3.594152  0  0  -0.070761  0  3.839408  0  0  -0.070547  0  3.849276  0  0  0.003418  -0.07108  0  3.832937  0
C  C47  1  0.93198500  0.14806310  0.12456172  1  0  -0.043655  0  3.594064  0  0  -0.070842  0  3.839462  0  0  -0.070635  0  3.849341  0  0  0.003406  -0.071163  0  3.83299  0
C  C48  1  0.23165751  0.83321378  0.94116831  1  0  0.13492  0  3.658027  0  0  0.07147  0  3.940078  0  0  0.079729  0  3.94379  0  0  -0.074363  0.065937  0  3.937522  0
C  C49  1  0.73165831  0.16678274  0.05883289  1  0  0.134851  0  3.658245  0  0  0.071482  0  3.940226  0  0  0.079734  0  3.943944  0  0  -0.074381  0.065948  0  3.937673  0
C  C50  1  0.61407915  0.75537337  0.90716955  1  0  0.65714  0  3.925403  0  0  0.604719  0  4.241033  0  0  0.638001  0  4.231973  0  0  0.191478  0.582076  0  4.246341  0
C  C51  1  0.11407643  0.24462479  0.09283162  1  0  0.65709  0  3.925543  0  0  0.604702  0  4.241162  0  0  0.637988  0  4.2321  0  0  0.191437  0.582059  0  4.246469  0
N  N52  1  0.41426142  0.84758062  0.74307879  1  0  -0.271191  0  3.32804  0  0  -0.192081  0  3.553348  0  0  -0.216597  0  3.570618  0  0  -0.231771  -0.175355  0  3.541112  0
N  N53  1  0.91425766  0.15241860  0.25692176  1  0  -0.271166  0  3.328088  0  0  -0.192053  0  3.553395  0  0  -0.216568  0  3.570656  0  0  -0.231727  -0.175325  0  3.541153  0
O  O54  1  0.41549744  0.11275866  0.77835513  1  0  -0.556986  0  1.956095  0  0  -0.51723  0  2.187488  0  0  -0.537474  0  2.1822  0  0  -0.338502  -0.50272  0  2.190946  0
O  O55  1  0.91547221  0.88724061  0.22164901  1  0  -0.557022  0  1.955868  0  0  -0.517291  0  2.187238  0  0  -0.537538  0  2.18194  0  0  -0.338568  -0.502783  0  2.1907  0
O  O56  1  0.42925043  0.58279498  0.70655918  1  0  -0.5532  0  1.984738  0  0  -0.5135  0  2.216954  0  0  -0.534289  0  2.212182  0  0  -0.341984  -0.499277  0  2.220583  0
O  O57  1  0.92925235  0.41720299  0.29343933  1  0  -0.553167  0  1.984774  0  0  -0.513475  0  2.216963  0  0  -0.534264  0  2.212186  0  0  -0.341975  -0.499257  0  2.220602  0
O  O58  1  0.13595196  0.68598348  0.91582396  1  0  -0.626814  0  2.082491  0  0  -0.577378  0  2.319624  0  0  -0.593915  0  2.303969  0  0  -0.489608  -0.565454  0  2.328535  0
O  O59  1  0.63595313  0.31401458  0.08417708  1  0  -0.626813  0  2.082613  0  0  -0.577395  0  2.319721  0  0  -0.593931  0  2.304075  0  0  -0.489612  -0.565472  0  2.328622  0
O  O60  1  0.59090331  0.67753648  0.99114655  1  0  -0.724986  0  1.972007  0  0  -0.679414  0  2.216956  0  0  -0.702495  0  2.205508  0  0  -0.492199  -0.662949  0  2.223976  0
O  O61  1  0.09089847  0.32246174  0.00885207  1  0  -0.724971  0  1.972013  0  0  -0.679412  0  2.216957  0  0  -0.70249  0  2.205507  0  0  -0.492221  -0.662947  0  2.223977  0
O  O62  1  0.77832095  0.77081415  0.84983216  1  0  -0.644946  0  2.00326  0  0  -0.590704  0  2.237593  0  0  -0.616014  0  2.228531  0  0  -0.32602  -0.573332  0  2.244235  0
O  O63  1  0.27831437  0.22918677  0.15016757  1  0  -0.644939  0  2.003461  0  0  -0.590669  0  2.237752  0  0  -0.615982  0  2.228688  0  0  -0.326001  -0.573303  0  2.244393  0
