# generated using pymatgen
data_ZnH13C20N5O4
_symmetry_space_group_name_H-M   'P 1'
_cell_length_a   8.68021804
_cell_length_b   10.34000373
_cell_length_c   11.82562568
_cell_angle_alpha   73.93695466
_cell_angle_beta   86.22449927
_cell_angle_gamma   68.94216883
_symmetry_Int_Tables_number   1
_chemical_formula_structural   ZnH13C20N5O4
_chemical_formula_sum   'Zn2 H26 C40 N10 O8'
_cell_volume   951.17069515
_cell_formula_units_Z   2
loop_
 _symmetry_equiv_pos_site_id
 _symmetry_equiv_pos_as_xyz
  1  'x, y, z'
loop_
 _atom_site_type_symbol
 _atom_site_label
 _atom_site_symmetry_multiplicity
 _atom_site_fract_x
 _atom_site_fract_y
 _atom_site_fract_z
 _atom_site_occupancy
 _atom_site_hle17_bader_spin_density
 _atom_site_hle17_ddec_charge
 _atom_site_hle17_ddec_spin_density
 _atom_site_hle17_ddec_sum_bond_order
 _atom_site_hle17_magmom
 _atom_site_hse06_10hf_bader_spin_density
 _atom_site_hse06_10hf_ddec_charge
 _atom_site_hse06_10hf_ddec_spin_density
 _atom_site_hse06_10hf_ddec_sum_bond_order
 _atom_site_hse06_10hf_magmom
 _atom_site_hse06_bader_spin_density
 _atom_site_hse06_ddec_charge
 _atom_site_hse06_ddec_spin_density
 _atom_site_hse06_ddec_sum_bond_order
 _atom_site_hse06_magmom
 _atom_site_pbe_bader_spin_density
 _atom_site_pbe_cm5_charge
 _atom_site_pbe_ddec_charge
 _atom_site_pbe_ddec_spin_density
 _atom_site_pbe_ddec_sum_bond_order
 _atom_site_pbe_magmom
Zn  Zn0  1  0.34442019  0.42523111  0.19511255  1  0  0.986045  0  1.833084  0  0  0.792171  0  2.294684  0  0  0.8415  0  2.240879  0  0  0.692682  0.754736  0  2.334409  0
Zn  Zn1  1  0.65557831  0.57476808  0.80488855  1  0  0.986012  0  1.833103  0  0  0.792118  0  2.294725  0  0  0.841452  0  2.240917  0  0  0.69267  0.754677  0  2.33445  0
H  H2  1  0.60172648  0.53609270  0.09903701  1  0  0.091855  0  0.959705  0  0  0.098628  0  1.024742  0  0  0.101313  0  1.022332  0  0  0.119197  0.096447  0  1.026843  0
H  H3  1  0.39827472  0.46390544  0.90096249  1  0  0.091883  0  0.959651  0  0  0.098631  0  1.024713  0  0  0.101305  0  1.022325  0  0  0.119207  0.096451  0  1.026811  0
H  H4  1  0.90649592  0.44492328  0.08785178  1  0  0.115163  0  0.93629  0  0  0.126243  0  0.992146  0  0  0.129697  0  0.990975  0  0  0.112284  0.123587  0  0.993568  0
H  H5  1  0.09350484  0.55507594  0.91214749  1  0  0.115171  0  0.936278  0  0  0.126246  0  0.992141  0  0  0.129701  0  0.990968  0  0  0.112277  0.12359  0  0.993562  0
H  H6  1  0.06891237  0.19322174  0.21152721  1  0  0.10812  0  0.96809  0  0  0.115872  0  1.033173  0  0  0.118179  0  1.031877  0  0  0.11363  0.114071  0  1.034126  0
H  H7  1  0.93108955  0.80677748  0.78847199  1  0  0.108101  0  0.968104  0  0  0.11585  0  1.033185  0  0  0.118157  0  1.031889  0  0  0.113624  0.114048  0  1.034138  0
H  H8  1  0.60795962  0.15746516  0.34396960  1  0  0.110261  0  0.930761  0  0  0.118742  0  0.990904  0  0  0.122306  0  0.986935  0  0  0.12618  0.116061  0  0.994053  0
H  H9  1  0.39204158  0.84253298  0.65602990  1  0  0.110224  0  0.930765  0  0  0.118705  0  0.990918  0  0  0.12227  0  0.986948  0  0  0.126166  0.116023  0  0.994068  0
H  H10  1  0.26181366  0.52732470  0.53123001  1  0  0.111906  0  0.910329  0  0  0.128196  0  0.95961  0  0  0.131075  0  0.957549  0  0  0.12064  0.126055  0  0.961043  0
H  H11  1  0.73818429  0.47267877  0.46877181  1  0  0.111887  0  0.910325  0  0  0.128182  0  0.959603  0  0  0.131058  0  0.957545  0  0  0.120617  0.126041  0  0.961038  0
H  H12  1  0.23768164  0.31661106  0.68599286  1  0  0.120884  0  0.92093  0  0  0.13599  0  0.968279  0  0  0.138856  0  0.96808  0  0  0.121509  0.133806  0  0.968759  0
H  H13  1  0.76231363  0.68339032  0.31400622  1  0  0.120851  0  0.920921  0  0  0.135963  0  0.968259  0  0  0.138835  0  0.96806  0  0  0.121495  0.133778  0  0.968738  0
H  H14  1  0.96923492  0.34259894  0.78922737  1  0  0.088985  0  0.947534  0  0  0.09668  0  1.012537  0  0  0.099424  0  1.010378  0  0  0.121666  0.094712  0  1.013829  0
H  H15  1  0.03075963  0.65740136  0.21077201  1  0  0.088969  0  0.947505  0  0  0.096664  0  1.012507  0  0  0.099409  0  1.010348  0  0  0.121661  0.094697  0  1.013799  0
H  H16  1  0.76021555  0.77077383  0.59933818  1  0  0.11401  0  0.932846  0  0  0.120401  0  0.99511  0  0  0.124468  0  0.99054  0  0  0.12928  0.117289  0  0.998698  0
H  H17  1  0.23977977  0.22922752  0.40066260  1  0  0.114038  0  0.932855  0  0  0.120406  0  0.995136  0  0  0.124473  0  0.990568  0  0  0.129292  0.117295  0  0.998726  0
H  H18  1  0.23330984  0.25514723  0.91289861  1  0  0.086892  0  0.965822  0  0  0.095104  0  1.034664  0  0  0.09813  0  1.032499  0  0  0.098348  0.092895  0  1.036155  0
H  H19  1  0.76669254  0.74485089  0.08710167  1  0  0.086871  0  0.96583  0  0  0.095083  0  1.034669  0  0  0.098108  0  1.032508  0  0  0.098351  0.092874  0  1.03616  0
H  H20  1  0.16899765  0.08642441  0.82153049  1  0  0.083802  0  0.962959  0  0  0.093433  0  1.024774  0  0  0.096142  0  1.024981  0  0  0.093831  0.091479  0  1.024898  0
H  H21  1  0.83100272  0.91357585  0.17847024  1  0  0.083784  0  0.96297  0  0  0.093415  0  1.024789  0  0  0.096123  0  1.024997  0  0  0.09382  0.091461  0  1.024912  0
H  H22  1  0.21442087  0.83546309  0.94149624  1  0  0.091349  0  0.982394  0  0  0.099991  0  1.047796  0  0  0.102368  0  1.047467  0  0  0.098168  0.098272  0  1.047997  0
H  H23  1  0.78557950  0.16453717  0.05850450  1  0  0.091312  0  0.982449  0  0  0.099951  0  1.04785  0  0  0.102331  0  1.047518  0  0  0.09815  0.098233  0  1.048051  0
H  H24  1  0.40083289  0.91703067  0.23216888  1  0  0.106242  0  0.945564  0  0  0.11127  0  1.013805  0  0  0.116336  0  1.008035  0  0  0.104574  0.107648  0  1.018116  0
H  H25  1  0.59917481  0.08296853  0.76782998  1  0  0.106232  0  0.945541  0  0  0.111257  0  1.013788  0  0  0.116322  0  1.008019  0  0  0.104571  0.107636  0  1.0181  0
H  H26  1  0.24654156  0.73560834  0.37263560  1  0  0.313475  0  0.9148  0  0  0.293494  0  0.977942  0  0  0.302264  0  0.970546  0  0  0.321275  0.2872  0  0.983372  0
H  H27  1  0.75345783  0.26438869  0.62736681  1  0  0.313493  0  0.914838  0  0  0.293486  0  0.978001  0  0  0.302255  0  0.970608  0  0  0.321263  0.287192  0  0.983429  0
C  C28  1  0.67550028  0.43063333  0.15407253  1  0  0.14337  0  3.655667  0  0  0.106523  0  3.908422  0  0  0.115483  0  3.924921  0  0  0.050255  0.100625  0  3.897444  0
C  C29  1  0.32450092  0.56936480  0.84592697  1  0  0.143322  0  3.655649  0  0  0.106475  0  3.908442  0  0  0.115436  0  3.924932  0  0  0.050232  0.100577  0  3.897464  0
C  C30  1  0.84662808  0.37835998  0.14771226  1  0  -0.106434  0  3.726948  0  0  -0.119105  0  3.984358  0  0  -0.126824  0  4.00489  0  0  -0.079155  -0.114686  0  3.971134  0
C  C31  1  0.15337427  0.62163815  0.85228717  1  0  -0.106454  0  3.726937  0  0  -0.119119  0  3.984333  0  0  -0.126835  0  4.00486  0  0  -0.079132  -0.114699  0  3.971108  0
C  C32  1  0.93545670  0.24077575  0.21541770  1  0  -0.028765  0  3.669345  0  0  -0.058103  0  3.917094  0  0  -0.053652  0  3.934947  0  0  -0.058848  -0.060053  0  3.904441  0
C  C33  1  0.06454289  0.75922348  0.78458079  1  0  -0.028692  0  3.669306  0  0  -0.057998  0  3.917053  0  0  -0.053548  0  3.934905  0  0  -0.058825  -0.059949  0  3.9044  0
C  C34  1  0.85088935  0.15862711  0.28913648  1  0  -0.038228  0  3.780161  0  0  -0.016024  0  4.0147  0  0  -0.022212  0  4.037401  0  0  0.002535  -0.012214  0  3.999308  0
C  C35  1  0.14911183  0.84137104  0.71086217  1  0  -0.038179  0  3.779954  0  0  -0.016021  0  4.014579  0  0  -0.022211  0  4.037282  0  0  0.00252  -0.012211  0  3.999187  0
C  C36  1  0.67931993  0.21895107  0.29186695  1  0  0.10648  0  3.642381  0  0  0.063961  0  3.887142  0  0  0.071222  0  3.904337  0  0  0.053737  0.057759  0  3.877479  0
C  C37  1  0.32068007  0.78104710  0.70813092  1  0  0.106518  0  3.642245  0  0  0.063992  0  3.887041  0  0  0.071251  0  3.904237  0  0  0.053749  0.05779  0  3.877377  0
C  C38  1  0.94184234  0.00931642  0.35246445  1  0  0.28041  0  3.821918  0  0  0.259444  0  4.100325  0  0  0.269556  0  4.117869  0  0  0.211525  0.253219  0  4.087998  0
C  C39  1  0.05815845  0.99068278  0.64753567  1  0  0.280375  0  3.82174  0  0  0.2594  0  4.100189  0  0  0.269513  0  4.117731  0  0  0.211524  0.253176  0  4.08786  0
C  C40  1  0.00941570  0.79549775  0.46195040  1  0  0.294393  0  3.810623  0  0  0.257642  0  4.090759  0  0  0.270532  0  4.10841  0  0  0.216596  0.249761  0  4.077728  0
C  C41  1  0.99058121  0.20450252  0.53805054  1  0  0.294393  0  3.810736  0  0  0.257691  0  4.090804  0  0  0.270581  0  4.108455  0  0  0.216633  0.249809  0  4.077774  0
C  C42  1  0.00978845  0.66533668  0.54988614  1  0  -0.047119  0  3.809668  0  0  -0.024986  0  4.050469  0  0  -0.031509  0  4.074041  0  0  0.002815  -0.020746  0  4.033546  0
C  C43  1  0.99020717  0.33466680  0.45011496  1  0  -0.047117  0  3.809808  0  0  -0.025003  0  4.050599  0  0  -0.031525  0  4.074168  0  0  0.0028  -0.020762  0  4.033678  0
C  C44  1  0.14638986  0.53621117  0.57655246  1  0  -0.024684  0  3.664141  0  0  -0.059583  0  3.920184  0  0  -0.05494  0  3.937082  0  0  -0.05806  -0.06163  0  3.907233  0
C  C45  1  0.85360663  0.46379016  0.42344910  1  0  -0.024721  0  3.664193  0  0  -0.059629  0  3.920237  0  0  -0.054981  0  3.937138  0  0  -0.058076  -0.061675  0  3.907282  0
C  C46  1  0.13345716  0.41826254  0.66305087  1  0  -0.109571  0  3.733186  0  0  -0.121826  0  3.992394  0  0  -0.129131  0  4.013871  0  0  -0.075006  -0.117215  0  3.97732  0
C  C47  1  0.86653767  0.58173991  0.33694799  1  0  -0.109483  0  3.733067  0  0  -0.121739  0  3.992254  0  0  -0.129051  0  4.013736  0  0  -0.074961  -0.117126  0  3.977178  0
C  C48  1  0.98574039  0.43148561  0.72077142  1  0  0.117726  0  3.68111  0  0  0.079615  0  3.941021  0  0  0.087468  0  3.95837  0  0  0.046364  0.075021  0  3.928439  0
C  C49  1  0.01425534  0.56851468  0.27922874  1  0  0.117752  0  3.681082  0  0  0.079684  0  3.940989  0  0  0.087531  0  3.958339  0  0  0.046415  0.075089  0  3.928406  0
C  C50  1  0.86624810  0.67066195  0.61346916  1  0  0.113213  0  3.630813  0  0  0.073737  0  3.874333  0  0  0.081265  0  3.890163  0  0  0.062865  0.068672  0  3.863283  0
C  C51  1  0.13374677  0.32934047  0.38653139  1  0  0.113157  0  3.630838  0  0  0.073738  0  3.874381  0  0  0.081263  0  3.890206  0  0  0.06285  0.06867  0  3.863336  0
C  C52  1  0.34290498  0.19879883  0.13647734  1  0  0.62144  0  3.931998  0  0  0.573879  0  4.221416  0  0  0.607613  0  4.216734  0  0  0.192239  0.550607  0  4.223993  0
C  C53  1  0.65709722  0.80120253  0.86352134  1  0  0.621473  0  3.931985  0  0  0.573933  0  4.221411  0  0  0.607664  0  4.216733  0  0  0.192184  0.55066  0  4.223988  0
C  C54  1  0.31999917  0.09595145  0.07758627  1  0  -0.079601  0  3.766598  0  0  -0.051415  0  3.996989  0  0  -0.062941  0  4.022527  0  0  -0.021969  -0.044161  0  3.980556  0
C  C55  1  0.68000737  0.90404775  0.92241266  1  0  -0.079746  0  3.766645  0  0  -0.051594  0  3.997087  0  0  -0.063119  0  4.022623  0  0  -0.022064  -0.044339  0  3.980654  0
C  C56  1  0.25555549  0.14361255  0.96159911  1  0  -0.051561  0  3.724864  0  0  -0.078671  0  3.972571  0  0  -0.075483  0  3.992188  0  0  -0.080135  -0.079505  0  3.9584  0
C  C57  1  0.74444532  0.85638664  0.03840186  1  0  -0.051464  0  3.724783  0  0  -0.078549  0  3.972472  0  0  -0.075363  0  3.992092  0  0  -0.080077  -0.079385  0  3.958302  0
C  C58  1  0.21948200  0.04999326  0.91163147  1  0  -0.085756  0  3.768114  0  0  -0.095874  0  4.023599  0  0  -0.102093  0  4.045642  0  0  -0.096272  -0.092026  0  4.007974  0
C  C59  1  0.78051995  0.95000594  0.08836858  1  0  -0.085707  0  3.768075  0  0  -0.09583  0  4.023556  0  0  -0.102048  0  4.0456  0  0  -0.096228  -0.09198  0  4.00793  0
C  C60  1  0.24631875  0.90884737  0.97765850  1  0  -0.034379  0  3.700841  0  0  -0.063199  0  3.948347  0  0  -0.059144  0  3.967174  0  0  -0.080008  -0.064592  0  3.934624  0
C  C61  1  0.75368552  0.09115181  0.02234227  1  0  -0.034454  0  3.700793  0  0  -0.063272  0  3.948327  0  0  -0.059218  0  3.967152  0  0  -0.080046  -0.064666  0  3.934603  0
C  C62  1  0.31265976  0.85916600  0.09328593  1  0  -0.090141  0  3.755913  0  0  -0.065085  0  3.992701  0  0  -0.07647  0  4.016726  0  0  -0.025477  -0.05786  0  3.977072  0
C  C63  1  0.68734405  0.14083428  0.90671376  1  0  -0.08999  0  3.75563  0  0  -0.064942  0  3.992442  0  0  -0.076327  0  4.016466  0  0  -0.025451  -0.057717  0  3.976816  0
C  C64  1  0.35124773  0.95292595  0.14217460  1  0  -0.040831  0  3.70402  0  0  -0.080278  0  3.9574  0  0  -0.075436  0  3.974507  0  0  -0.066742  -0.083826  0  3.946921  0
C  C65  1  0.64875971  0.04707109  0.85782563  1  0  -0.040842  0  3.703855  0  0  -0.080271  0  3.95725  0  0  -0.075426  0  3.974354  0  0  -0.066727  -0.083819  0  3.946771  0
C  C66  1  0.33354870  0.70904113  0.16485278  1  0  0.649027  0  3.889902  0  0  0.598553  0  4.186066  0  0  0.633021  0  4.178196  0  0  0.206525  0.574787  0  4.191078  0
C  C67  1  0.66645329  0.29095804  0.83514897  1  0  0.648988  0  3.889733  0  0  0.598488  0  4.185942  0  0  0.632957  0  4.17807  0  0  0.206573  0.574721  0  4.190955  0
N  N68  1  0.59383741  0.35212232  0.22457577  1  0  -0.332424  0  3.328098  0  0  -0.242425  0  3.604859  0  0  -0.26307  0  3.61969  0  0  -0.330718  -0.228248  0  3.594747  0
N  N69  1  0.40616222  0.64787689  0.77542442  1  0  -0.332388  0  3.32809  0  0  -0.242359  0  3.604828  0  0  -0.263001  0  3.619655  0  0  -0.330693  -0.228182  0  3.594712  0
N  N70  1  0.88239082  0.92151165  0.43715809  1  0  -0.446637  0  2.899224  0  0  -0.423828  0  3.169036  0  0  -0.438157  0  3.180093  0  0  -0.329387  -0.413581  0  3.160602  0
N  N71  1  0.11760750  0.07849078  0.56284141  1  0  -0.446655  0  2.899136  0  0  -0.423851  0  3.168929  0  0  -0.438179  0  3.179983  0  0  -0.329404  -0.413602  0  3.160495  0
N  N72  1  0.09699039  0.94431393  0.32354556  1  0  -0.224141  0  2.881716  0  0  -0.212474  0  3.151336  0  0  -0.221573  0  3.168939  0  0  -0.204257  -0.207551  0  3.140565  0
N  N73  1  0.90301081  0.05568421  0.67645394  1  0  -0.224129  0  2.881816  0  0  -0.212462  0  3.151441  0  0  -0.22156  0  3.169043  0  0  -0.204251  -0.207538  0  3.140669  0
N  N74  1  0.13841599  0.80968013  0.39387791  1  0  -0.220476  0  3.429896  0  0  -0.159828  0  3.668411  0  0  -0.175017  0  3.686488  0  0  -0.258459  -0.150374  0  3.656853  0
N  N75  1  0.86158364  0.19031907  0.60612227  1  0  -0.220541  0  3.430133  0  0  -0.159876  0  3.668634  0  0  -0.175065  0  3.686714  0  0  -0.25849  -0.150421  0  3.657076  0
N  N76  1  0.85471512  0.55641363  0.69651049  1  0  -0.325544  0  3.31974  0  0  -0.239137  0  3.599714  0  0  -0.258202  0  3.613339  0  0  -0.324626  -0.225992  0  3.58977  0
N  N77  1  0.14528204  0.44358881  0.30348908  1  0  -0.325509  0  3.31968  0  0  -0.239203  0  3.599724  0  0  -0.258254  0  3.613338  0  0  -0.324666  -0.226057  0  3.589784  0
O  O78  1  0.38959986  0.15693046  0.24332628  1  0  -0.62228  0  1.933673  0  0  -0.57184  0  2.160939  0  0  -0.596447  0  2.15134  0  0  -0.318871  -0.553627  0  2.166525  0
O  O79  1  0.61040121  0.84307090  0.75667332  1  0  -0.622296  0  1.933663  0  0  -0.571827  0  2.160896  0  0  -0.596434  0  2.151301  0  0  -0.318826  -0.553614  0  2.166482  0
O  O80  1  0.29861307  0.63087984  0.10897535  1  0  -0.648437  0  2.050239  0  0  -0.572684  0  2.31881  0  0  -0.601663  0  2.305492  0  0  -0.332285  -0.551418  0  2.328817  0
O  O81  1  0.70138774  0.36911935  0.89102562  1  0  -0.648363  0  2.050162  0  0  -0.572568  0  2.318693  0  0  -0.601545  0  2.305376  0  0  -0.332265  -0.551301  0  2.328697  0
O  O82  1  0.38081120  0.66454338  0.27220898  1  0  -0.649964  0  1.920392  0  0  -0.607871  0  2.144379  0  0  -0.629566  0  2.132865  0  0  -0.343368  -0.592012  0  2.151393  0
O  O83  1  0.61919035  0.33545687  0.72779254  1  0  -0.65001  0  1.920327  0  0  -0.607897  0  2.14431  0  0  -0.629595  0  2.1328  0  0  -0.343419  -0.59204  0  2.151326  0
O  O84  1  0.30446903  0.33263472  0.07540255  1  0  -0.6481  0  1.991336  0  0  -0.575333  0  2.251746  0  0  -0.604689  0  2.239595  0  0  -0.335068  -0.553389  0  2.260616  0
O  O85  1  0.69553206  0.66736662  0.92459789  1  0  -0.648042  0  1.991293  0  0  -0.575351  0  2.251778  0  0  -0.60471  0  2.239629  0  0  -0.335049  -0.553406  0  2.260648  0
