# generated using pymatgen
data_Hf3H12C22(NO8)2
_symmetry_space_group_name_H-M   'P 1'
_cell_length_a   13.02839487
_cell_length_b   16.50579532
_cell_length_c   16.56167786
_cell_angle_alpha   82.04349652
_cell_angle_beta   66.87284499
_cell_angle_gamma   66.69202587
_symmetry_Int_Tables_number   1
_chemical_formula_structural   Hf3H12C22(NO8)2
_chemical_formula_sum   'Hf6 H24 C44 N4 O32'
_cell_volume   3007.37303003
_cell_formula_units_Z   2
loop_
 _symmetry_equiv_pos_site_id
 _symmetry_equiv_pos_as_xyz
  1  'x, y, z'
loop_
 _atom_site_type_symbol
 _atom_site_label
 _atom_site_symmetry_multiplicity
 _atom_site_fract_x
 _atom_site_fract_y
 _atom_site_fract_z
 _atom_site_occupancy
 _atom_site_pbe_bader_charge
 _atom_site_pbe_bader_spin_density
 _atom_site_pbe_cm5_charge
 _atom_site_pbe_ddec_charge
 _atom_site_pbe_ddec_spin_density
 _atom_site_pbe_ddec_sum_bond_order
 _atom_site_pbe_magmom
Hf  Hf0  1  0.97985273  0.12176041  0.98843530  1  2.599735  0  1.431946  2.124023  0  3.406322  0
Hf  Hf1  1  0.98621990  0.95185031  0.14281842  1  2.596674  0  1.439145  2.120674  0  3.38548  0
Hf  Hf2  1  0.14387743  0.95887160  0.81916637  1  2.606764  0  1.445553  2.138061  0  3.34726  0
Hf  Hf3  1  0.15397945  0.79160070  0.97481065  1  2.603211  0  1.446444  2.131004  0  3.351816  0
Hf  Hf4  1  0.25620254  0.95722880  0.98219230  1  2.627871  0  1.494481  2.121154  0  3.33817  0
Hf  Hf5  1  0.87524168  0.95420737  0.98136605  1  2.624375  0  1.495927  2.127528  0  3.349481  0
H  H6  1  0.15072242  0.48373547  0.97760925  1  0.116097  0  0.11708  0.140232  0  0.995334  0
H  H7  1  0.28487590  0.57370969  0.97906151  1  0.11234  0  0.1168  0.138366  0  1.024793  0
H  H8  1  0.96089361  0.42969747  0.01849743  1  0.110643  0  0.117557  0.138969  0  0.993358  0
H  H9  1  0.82730669  0.33885481  0.01868776  1  0.175331  0  0.115876  0.153842  0  1.035969  0
H  H10  1  0.14415605  0.96811375  0.50940967  1  0.107212  0  0.115135  0.136485  0  0.999411  0
H  H11  1  0.28597044  0.95527900  0.59913641  1  0.172184  0  0.120889  0.147078  0  1.014373  0
H  H12  1  0.99467338  0.92717370  0.45934381  1  0.101849  0  0.117783  0.140485  0  0.994163  0
H  H13  1  0.87229530  0.91403864  0.36629422  1  0.120918  0  0.11179  0.128389  0  1.054007  0
H  H14  1  0.78964159  0.09490059  0.11887685  1  0.623471  0  0.33641  0.429836  0  0.842581  0
H  H15  1  0.21623784  0.82451035  0.11130167  1  0.613938  0  0.344379  0.432645  0  0.827362  0
H  H16  1  0.04937671  0.82029261  0.85219442  1  0.598088  0  0.337455  0.418995  0  0.850916  0
H  H17  1  0.21109763  0.08807659  0.85252330  1  0.621424  0  0.343572  0.431736  0  0.830239  0
H  H18  1  0.93320544  0.82921592  0.25212077  1  0.57489  0  0.296069  0.38147  0  0.929661  0
H  H19  1  0.07948748  0.75981339  0.15395669  1  0.644651  0  0.286079  0.400003  0  0.942205  0
H  H20  1  0.32689230  0.67615448  0.84886495  1  0.594593  0  0.304122  0.393389  0  0.908345  0
H  H21  1  0.25420234  0.77838427  0.78225266  1  0.647788  0  0.285936  0.402436  0  0.938853  0
H  H22  1  0.08003900  0.07911443  0.70689280  1  0.581582  0  0.29936  0.387129  0  0.918353  0
H  H23  1  0.04924012  0.15196322  0.80939546  1  0.645321  0  0.287207  0.401667  0  0.939833  0
H  H24  1  0.90975179  0.23588637  0.11065310  1  0.585548  0  0.295632  0.390771  0  0.912467  0
H  H25  1  0.80362363  0.04861268  0.29885910  1  0.644504  0  0.340818  0.42284  0  0.855754  0
H  H26  1  0.20687704  0.82418392  0.70227819  1  0.613066  0  0.326694  0.400837  0  0.876779  0
H  H27  1  0.92112633  0.22989938  0.86228252  1  0.631088  0  0.328109  0.409772  0  0.876463  0
H  H28  1  0.93191055  0.05065466  0.28173358  1  0.643135  0  0.334388  0.419506  0  0.875544  0
H  H29  1  0.07753475  0.68388211  0.10156352  1  0.624665  0  0.324821  0.40546  0  0.880289  0
C  C30  1  0.30751514  0.36550555  0.97939404  1  0.317602  0  0.093205  0.155744  0  4.101025  0
C  C31  1  0.24102529  0.45575941  0.97834821  1  0.060159  0  -0.086725  -0.171833  0  3.970378  0
C  C32  1  0.31039399  0.50280455  0.97851411  1  -0.02282  0  -0.089677  -0.176283  0  3.958625  0
C  C33  1  0.42088481  0.44208097  0.97944190  1  0.434553  0  0.101826  0.17602  0  4.079405  0
C  C34  1  0.81507533  0.54640121  0.99858406  1  0.419756  0  0.091036  0.149862  0  4.104572  0
C  C35  1  0.87533422  0.45687262  0.00978274  1  -0.028837  0  -0.082755  -0.165061  0  3.960963  0
C  C36  1  0.80731483  0.40925052  0.00811361  1  0.018561  0  -0.085947  -0.167551  0  3.916219  0
C  C37  1  0.70414390  0.46915624  0.99515412  1  0.369323  0  0.102131  0.174868  0  4.069567  0
C  C38  1  0.30527032  0.95921147  0.39165236  1  0.422785  0  0.093914  0.157071  0  4.093424  0
C  C39  1  0.23764538  0.96169676  0.48165706  1  0.015525  0  -0.087611  -0.176182  0  3.971383  0
C  C40  1  0.31036844  0.95472091  0.52855706  1  0.00159  0  -0.085448  -0.170144  0  3.93837  0
C  C41  1  0.42406868  0.94783822  0.46782529  1  0.427142  0  0.104188  0.179031  0  4.062199  0
C  C42  1  0.82852052  0.94092475  0.57426141  1  0.393691  0  0.093432  0.156504  0  4.094804  0
C  C43  1  0.90239047  0.93091857  0.48526516  1  0.005809  0  -0.089065  -0.170143  0  3.975146  0
C  C44  1  0.83783263  0.92542652  0.43664798  1  0.014345  0  -0.101531  -0.203735  0  3.990996  0
C  C45  1  0.72245944  0.93297732  0.49522305  1  0.398656  0  0.099284  0.176656  0  4.081481  0
C  C46  1  0.20570026  0.16152228  0.99000394  1  1.660098  0  0.238846  0.685322  0  4.197852  0
C  C47  1  0.72027237  0.94735231  0.18664721  1  1.668809  0  0.242974  0.713622  0  4.181597  0
C  C48  1  0.20388742  0.96590954  0.18837440  1  1.661395  0  0.242354  0.691864  0  4.184347  0
C  C49  1  0.71774313  0.15630488  0.97462336  1  1.676778  0  0.243771  0.707134  0  4.188185  0
C  C50  1  0.92259977  0.95661511  0.77494542  1  1.639423  0  0.238936  0.687265  0  4.19241  0
C  C51  1  0.41998401  0.75072078  0.97177672  1  1.66505  0  0.245785  0.711896  0  4.175553  0
C  C52  1  0.92277435  0.74720527  0.98894284  1  1.63761  0  0.237376  0.687135  0  4.190912  0
C  C53  1  0.41497926  0.94910289  0.77758228  1  1.687071  0  0.247249  0.707497  0  4.179118  0
C  C54  1  0.85255321  0.94813488  0.64706055  1  -0.044146  0  -0.029891  -0.069074  0  4.15962  0
C  C55  1  0.88017524  0.95413213  0.70782966  1  -0.179323  0  -0.033405  -0.165072  0  3.95465  0
C  C56  1  0.62157839  0.94549896  0.65304904  1  0.105313  0  0.092034  0.074071  0  4.153072  0
C  C57  1  0.52790086  0.94651686  0.71081673  1  0.258577  0  -0.023752  -0.213423  0  3.944163  0
C  C58  1  0.51461125  0.94849740  0.30995720  1  0.011195  0  0.098387  0.09017  0  4.161957  0
C  C59  1  0.60900124  0.94615797  0.25217771  1  0.377854  0  -0.035099  -0.23848  0  3.965646  0
C  C60  1  0.27454158  0.96354514  0.31920304  1  -0.442004  0  -0.030973  -0.071667  0  4.150416  0
C  C61  1  0.24481891  0.96706852  0.25695321  1  0.171961  0  -0.031367  -0.162464  0  3.937469  0
C  C62  1  0.52833214  0.94044765  0.47784260  1  -0.052394  0  -0.019242  -0.075963  0  4.114265  0
C  C63  1  0.62192812  0.93496734  0.48309683  1  -0.209188  0  -0.029114  -0.099614  0  4.1304  0
C  C64  1  0.84584533  0.61852271  0.99625750  1  -0.527113  0  -0.029521  -0.065931  0  4.158123  0
C  C65  1  0.87752543  0.67954991  0.99446494  1  0.277805  0  -0.037942  -0.1745  0  3.953123  0
C  C66  1  0.53144203  0.68451124  0.97241197  1  0.339151  0  -0.035444  -0.238086  0  3.960562  0
C  C67  1  0.62074184  0.62703030  0.98019091  1  0.032383  0  0.100177  0.092228  0  4.157441  0
C  C68  1  0.60597637  0.22247836  0.97398447  1  0.366101  0  -0.034223  -0.23644  0  3.961788  0
C  C69  1  0.51284921  0.28295344  0.97712139  1  0.021266  0  0.097034  0.086957  0  4.164127  0
C  C70  1  0.27813179  0.29262719  0.98235090  1  -0.257174  0  -0.031368  -0.073969  0  4.160004  0
C  C71  1  0.24948555  0.22957646  0.98670940  1  0.064582  0  -0.031497  -0.159265  0  3.943979  0
C  C72  1  0.51962439  0.45257043  0.98290325  1  -0.334795  0  -0.025938  -0.091057  0  4.12529  0
C  C73  1  0.60744516  0.45823559  0.98849255  1  0.136455  0  -0.023626  -0.084633  0  4.122354  0
N  N74  1  0.41959125  0.35714525  0.97912376  1  -1.226562  0  -0.195599  0.017006  0  3.802845  0
N  N75  1  0.70844688  0.55405596  0.98939619  1  -1.214131  0  -0.195251  0.012312  0  3.803141  0
N  N76  1  0.42099502  0.95068212  0.38328356  1  -1.238773  0  -0.194374  0.015099  0  3.803988  0
N  N77  1  0.71730380  0.94163934  0.58034991  1  -1.21757  0  -0.192308  0.023379  0  3.793416  0
O  O78  1  0.09715954  0.18870764  0.99449770  1  -1.171225  0  -0.330468  -0.585636  0  2.28554  0
O  O79  1  0.27745744  0.08118459  0.98726307  1  -1.156571  0  -0.338075  -0.569327  0  2.258647  0
O  O80  1  0.79794724  0.94755608  0.21610300  1  -1.187978  0  -0.339366  -0.624494  0  2.278184  0
O  O81  1  0.73172069  0.94888252  0.10689782  1  -1.152482  0  -0.322846  -0.548953  0  2.270124  0
O  O82  1  0.09416898  0.97179853  0.21462042  1  -1.183635  0  -0.335247  -0.609832  0  2.271824  0
O  O83  1  0.27782264  0.95726912  0.10927408  1  -1.145486  0  -0.319739  -0.549029  0  2.245754  0
O  O84  1  0.79889944  0.18459579  0.96675666  1  -1.168025  0  -0.315181  -0.571697  0  2.269407  0
O  O85  1  0.72522719  0.07619174  0.98447970  1  -1.156074  0  -0.342674  -0.572062  0  2.263528  0
O  O86  1  0.87032952  0.21342936  0.08523342  1  -1.216389  0  -0.68294  -0.918852  0  1.888317  0
O  O87  1  0.00204493  0.19767732  0.86238617  1  -1.261252  0  -0.594346  -0.783439  0  2.060074  0
O  O88  1  0.87398452  0.05772516  0.25470698  1  -1.232405  0  -0.563085  -0.746865  0  2.087712  0
O  O89  1  0.00952196  0.83588730  0.21845764  1  -1.22539  0  -0.642628  -0.89504  0  1.945586  0
O  O90  1  0.07748586  0.02478791  0.05319181  1  -1.219617  0  -0.755231  -1.072395  0  2.184545  0
O  O91  1  0.86424283  0.05108340  0.08156024  1  -1.258201  0  -0.641033  -0.965559  0  2.270531  0
O  O92  1  0.02951437  0.95728152  0.74686506  1  -1.17612  0  -0.344426  -0.62554  0  2.281072  0
O  O93  1  0.85366094  0.95656216  0.85461276  1  -1.151855  0  -0.3222  -0.54856  0  2.253558  0
O  O94  1  0.34352891  0.72228830  0.96782836  1  -1.169153  0  -0.338514  -0.601273  0  2.268052  0
O  O95  1  0.40573163  0.83103513  0.97687209  1  -1.144051  0  -0.330391  -0.561126  0  2.260787  0
O  O96  1  0.02813930  0.72098899  0.99190998  1  -1.177302  0  -0.337123  -0.606608  0  2.269763  0
O  O97  1  0.85669175  0.82666356  0.98046490  1  -1.151246  0  -0.331269  -0.561875  0  2.248732  0
O  O98  1  0.33725180  0.94716131  0.75027840  1  -1.148137  0  -0.324212  -0.565109  0  2.25488  0
O  O99  1  0.40337864  0.95425011  0.85712056  1  -1.150549  0  -0.334631  -0.567933  0  2.263481  0
O  O100  1  0.24814911  0.83124797  0.73707231  1  -1.253627  0  -0.588541  -0.779871  0  2.063358  0
O  O101  1  0.12191138  0.07477941  0.74557794  1  -1.224348  0  -0.644272  -0.898826  0  1.944604  0
O  O102  1  0.24581809  0.71708727  0.85611891  1  -1.23557  0  -0.641607  -0.897947  0  1.947219  0
O  O103  1  0.12918209  0.71389859  0.10069632  1  -1.25703  0  -0.594527  -0.78378  0  2.060049  0
O  O104  1  0.05378049  0.86052338  0.88710311  1  -1.230366  0  -0.655843  -0.972642  0  2.358189  0
O  O105  1  0.21427760  0.88914798  0.91266449  1  -1.208898  0  -0.760223  -1.067408  0  2.202699  0
O  O106  1  0.98286466  0.02246646  0.91685279  1  -1.213524  0  -0.760117  -1.081852  0  2.220128  0
O  O107  1  0.17431340  0.86091304  0.07401974  1  -1.23929  0  -0.648336  -0.954908  0  2.300796  0
O  O108  1  0.16890422  0.05163103  0.89030188  1  -1.250268  0  -0.647347  -0.958336  0  2.296406  0
O  O109  1  0.98677875  0.88641773  0.04805853  1  -1.21044  0  -0.766266  -1.07615  0  2.235731  0
