# generated using pymatgen
data_ZnH16(CO)10
_symmetry_space_group_name_H-M   'P 1'
_cell_length_a   4.81330026
_cell_length_b   5.64527087
_cell_length_c   12.01949220
_cell_angle_alpha   92.80466133
_cell_angle_beta   94.59938598
_cell_angle_gamma   96.01213913
_symmetry_Int_Tables_number   1
_chemical_formula_structural   ZnH16(CO)10
_chemical_formula_sum   'Zn1 H16 C10 O10'
_cell_volume   323.21404466
_cell_formula_units_Z   1
loop_
 _symmetry_equiv_pos_site_id
 _symmetry_equiv_pos_as_xyz
  1  'x, y, z'
loop_
 _atom_site_type_symbol
 _atom_site_label
 _atom_site_symmetry_multiplicity
 _atom_site_fract_x
 _atom_site_fract_y
 _atom_site_fract_z
 _atom_site_occupancy
 _atom_site_hle17_bader_spin_density
 _atom_site_hle17_ddec_charge
 _atom_site_hle17_ddec_spin_density
 _atom_site_hle17_ddec_sum_bond_order
 _atom_site_hle17_magmom
 _atom_site_hse06_10hf_bader_spin_density
 _atom_site_hse06_10hf_ddec_charge
 _atom_site_hse06_10hf_ddec_spin_density
 _atom_site_hse06_10hf_ddec_sum_bond_order
 _atom_site_hse06_10hf_magmom
 _atom_site_hse06_bader_spin_density
 _atom_site_hse06_ddec_charge
 _atom_site_hse06_ddec_spin_density
 _atom_site_hse06_ddec_sum_bond_order
 _atom_site_hse06_magmom
 _atom_site_pbe_bader_spin_density
 _atom_site_pbe_cm5_charge
 _atom_site_pbe_ddec_charge
 _atom_site_pbe_ddec_spin_density
 _atom_site_pbe_ddec_sum_bond_order
 _atom_site_pbe_magmom
Zn  Zn0  1  0.49999507  0.49999308  0.50000013  1  0  1.204648  0  1.675946  0  0  1.049104  0  2.110847  0  0  1.093906  0  2.05308  0  0  0.666729  1.017583  0  2.150579  0
H  H1  1  0.28334507  0.13809391  0.57691417  1  0  0.416514  0  0.886055  0  0  0.382871  0  0.960177  0  0  0.394607  0  0.943209  0  0  0.293618  0.374571  0  0.972158  0
H  H2  1  0.71663881  0.86189228  0.42308754  1  0  0.41661  0  0.885993  0  0  0.382995  0  0.960017  0  0  0.394728  0  0.943052  0  0  0.293687  0.374692  0  0.972005  0
H  H3  1  0.04732586  0.21142674  0.48175473  1  0  0.428323  0  0.863934  0  0  0.398665  0  0.931552  0  0  0.409085  0  0.916481  0  0  0.296976  0.391244  0  0.942287  0
H  H4  1  0.95266037  0.78856122  0.51824460  1  0  0.42833  0  0.864005  0  0  0.398726  0  0.931495  0  0  0.409118  0  0.916447  0  0  0.296964  0.391317  0  0.942222  0
H  H5  1  0.09942254  0.57658313  0.64958147  1  0  0.437746  0  0.851005  0  0  0.398033  0  0.934701  0  0  0.409785  0  0.917367  0  0  0.301346  0.389662  0  0.947023  0
H  H6  1  0.90055953  0.42340484  0.35041688  1  0  0.437708  0  0.85113  0  0  0.398006  0  0.934749  0  0  0.409761  0  0.917409  0  0  0.301308  0.389636  0  0.947067  0
H  H7  1  0.33425400  0.80653335  0.65433295  1  0  0.442817  0  0.848528  0  0  0.411018  0  0.912829  0  0  0.421148  0  0.898032  0  0  0.306461  0.403865  0  0.923273  0
H  H8  1  0.66573615  0.19345280  0.34566647  1  0  0.442816  0  0.848557  0  0  0.411023  0  0.912851  0  0  0.421151  0  0.898057  0  0  0.306482  0.40387  0  0.923298  0
H  H9  1  0.00917413  0.93080438  0.19511654  1  0  0.098856  0  0.90698  0  0  0.111476  0  0.965659  0  0  0.113694  0  0.963341  0  0  0.111817  0.109825  0  0.967538  0
H  H10  1  0.99083457  0.06919598  0.80488881  1  0  0.098802  0  0.906962  0  0  0.111429  0  0.965657  0  0  0.113644  0  0.963341  0  0  0.111824  0.109788  0  0.967524  0
H  H11  1  0.23281988  0.77391495  0.11195645  1  0  0.07854  0  0.967179  0  0  0.086359  0  1.040033  0  0  0.085841  0  1.042888  0  0  0.103074  0.086744  0  1.038037  0
H  H12  1  0.76719632  0.22609428  0.88804518  1  0  0.078559  0  0.967137  0  0  0.086414  0  1.039978  0  0  0.08589  0  1.042849  0  0  0.1031  0.086803  0  1.037983  0
H  H13  1  0.53038261  0.20752865  0.14739349  1  0  0.112647  0  0.960205  0  0  0.120625  0  1.025457  0  0  0.125168  0  1.021979  0  0  0.102172  0.117268  0  1.028318  0
H  H14  1  0.46961285  0.79249675  0.85260778  1  0  0.112532  0  0.960247  0  0  0.120556  0  1.025463  0  0  0.125091  0  1.021988  0  0  0.102137  0.1172  0  1.028315  0
H  H15  1  0.84270781  0.86233630  0.00743841  1  0  0.093098  0  0.985904  0  0  0.103919  0  1.052345  0  0  0.106564  0  1.050855  0  0  0.098432  0.101913  0  1.053817  0
H  H16  1  0.15728804  0.13767660  0.99256261  1  0  0.093067  0  0.985959  0  0  0.103877  0  1.052418  0  0  0.10652  0  1.05093  0  0  0.098409  0.10187  0  1.053891  0
C  C17  1  0.31575399  0.75365817  0.28894256  1  0  0.704817  0  3.825553  0  0  0.648131  0  4.133462  0  0  0.681928  0  4.124745  0  0  0.220088  0.625183  0  4.138652  0
C  C18  1  0.68426152  0.24634568  0.71105560  1  0  0.705013  0  3.825503  0  0  0.648128  0  4.133739  0  0  0.681927  0  4.12502  0  0  0.220097  0.625172  0  4.138939  0
C  C19  1  0.11263139  0.76604986  0.18617778  1  0  -0.073104  0  3.635425  0  0  -0.131981  0  3.899312  0  0  -0.128939  0  3.90102  0  0  -0.06858  -0.134004  0  3.897853  0
C  C20  1  0.88738408  0.23395402  0.81382371  1  0  -0.073119  0  3.635288  0  0  -0.131969  0  3.899363  0  0  -0.12894  0  3.901063  0  0  -0.068625  -0.133993  0  3.897891  0
C  C21  1  0.71222780  0.53853528  0.08818318  1  0  0.246103  0  3.828662  0  0  0.234356  0  4.092896  0  0  0.243755  0  4.109775  0  0  0.070138  0.22795  0  4.081176  0
C  C22  1  0.28776921  0.46147044  0.91181273  1  0  0.246097  0  3.82847  0  0  0.234488  0  4.092643  0  0  0.243873  0  4.10952  0  0  0.070239  0.228064  0  4.080948  0
C  C23  1  0.51695067  0.33542556  0.08252300  1  0  -0.159468  0  3.745389  0  0  -0.179486  0  4.00082  0  0  -0.181931  0  4.017122  0  0  -0.107489  -0.177866  0  3.990232  0
C  C24  1  0.48305729  0.66459977  0.91747787  1  0  -0.159376  0  3.745133  0  0  -0.179459  0  4.000603  0  0  -0.181895  0  4.016901  0  0  -0.107528  -0.177833  0  3.990011  0
C  C25  1  0.69396420  0.70304265  0.00497394  1  0  -0.177245  0  3.785811  0  0  -0.198165  0  4.041094  0  0  -0.200955  0  4.06048  0  0  -0.11125  -0.196264  0  4.028328  0
C  C26  1  0.30603697  0.29696306  0.99502294  1  0  -0.177204  0  3.785695  0  0  -0.198157  0  4.04095  0  0  -0.200949  0  4.060343  0  0  -0.111204  -0.196254  0  4.028199  0
O  O27  1  0.24999539  0.59702131  0.35777522  1  0  -0.657144  0  2.07163  0  0  -0.581113  0  2.323164  0  0  -0.609384  0  2.310111  0  0  -0.308533  -0.561457  0  2.331618  0
O  O28  1  0.75000515  0.40296480  0.64222705  1  0  -0.657241  0  2.071941  0  0  -0.581115  0  2.323562  0  0  -0.609385  0  2.310511  0  0  -0.308585  -0.561462  0  2.332015  0
O  O29  1  0.53580648  0.90028271  0.29792132  1  0  -0.648587  0  1.992472  0  0  -0.588858  0  2.219078  0  0  -0.615223  0  2.208823  0  0  -0.315049  -0.570427  0  2.225659  0
O  O30  1  0.46420676  0.09970514  0.70208558  1  0  -0.648723  0  1.992297  0  0  -0.588903  0  2.219018  0  0  -0.615273  0  2.20876  0  0  -0.315026  -0.570467  0  2.225597  0
O  O31  1  0.91101684  0.56108761  0.17753896  1  0  -0.276252  0  2.396332  0  0  -0.204481  0  2.632367  0  0  -0.221724  0  2.636076  0  0  -0.185744  -0.192428  0  2.629451  0
O  O32  1  0.08899496  0.43891985  0.82246082  1  0  -0.2761  0  2.396386  0  0  -0.204489  0  2.632541  0  0  -0.221692  0  2.636221  0  0  -0.185787  -0.192433  0  2.629639  0
O  O33  1  0.24605604  0.18415147  0.49814034  1  0  -0.824987  0  1.936975  0  0  -0.757074  0  2.150245  0  0  -0.780017  0  2.115622  0  0  -0.580043  -0.740883  0  2.174298  0
O  O34  1  0.75393201  0.81583470  0.50186068  1  0  -0.825077  0  1.937091  0  0  -0.757276  0  2.150172  0  0  -0.780176  0  2.115635  0  0  -0.580081  -0.741097  0  2.174166  0
O  O35  1  0.22920349  0.67535335  0.60562548  1  0  -0.845032  0  1.954961  0  0  -0.778864  0  2.169357  0  0  -0.800376  0  2.133182  0  0  -0.560794  -0.763706  0  2.194611  0
O  O36  1  0.77078972  0.32463992  0.39437337  1  0  -0.844986  0  1.955054  0  0  -0.778807  0  2.169372  0  0  -0.800327  0  2.133208  0  0  -0.560781  -0.763642  0  2.19462  0
