# generated using pymatgen
data_CdH6C5(N3Cl)2
_symmetry_space_group_name_H-M   'P 1'
_cell_length_a   7.22851955
_cell_length_b   7.96458900
_cell_length_c   9.76376497
_cell_angle_alpha   67.71100289
_cell_angle_beta   84.42682613
_cell_angle_gamma   81.44087731
_symmetry_Int_Tables_number   1
_chemical_formula_structural   CdH6C5(N3Cl)2
_chemical_formula_sum   'Cd2 H12 C10 N12 Cl4'
_cell_volume   513.82005055
_cell_formula_units_Z   2
loop_
 _symmetry_equiv_pos_site_id
 _symmetry_equiv_pos_as_xyz
  1  'x, y, z'
loop_
 _atom_site_type_symbol
 _atom_site_label
 _atom_site_symmetry_multiplicity
 _atom_site_fract_x
 _atom_site_fract_y
 _atom_site_fract_z
 _atom_site_occupancy
 _atom_site_hle17_bader_spin_density
 _atom_site_hle17_ddec_charge
 _atom_site_hle17_ddec_spin_density
 _atom_site_hle17_ddec_sum_bond_order
 _atom_site_hle17_magmom
 _atom_site_hse06_10hf_bader_spin_density
 _atom_site_hse06_10hf_ddec_charge
 _atom_site_hse06_10hf_ddec_spin_density
 _atom_site_hse06_10hf_ddec_sum_bond_order
 _atom_site_hse06_10hf_magmom
 _atom_site_hse06_bader_spin_density
 _atom_site_hse06_ddec_charge
 _atom_site_hse06_ddec_spin_density
 _atom_site_hse06_ddec_sum_bond_order
 _atom_site_hse06_magmom
 _atom_site_pbe_bader_spin_density
 _atom_site_pbe_cm5_charge
 _atom_site_pbe_ddec_charge
 _atom_site_pbe_ddec_spin_density
 _atom_site_pbe_ddec_sum_bond_order
 _atom_site_pbe_magmom
Cd  Cd0  1  0.75713888  0.47783776  0.42997960  1  0  0.978108  0  1.942776  0  0  0.816732  0  2.399467  0  0  0.862966  0  2.359599  0  0  0.599792  0.784003  0  2.42638  0
Cd  Cd1  1  0.24286228  0.52216192  0.57002148  1  0  0.978109  0  1.942741  0  0  0.816739  0  2.399416  0  0  0.86297  0  2.359555  0  0  0.59979  0.784013  0  2.426325  0
H  H2  1  0.20080380  0.21502360  0.38368656  1  0  0.11303  0  0.963937  0  0  0.117318  0  1.038155  0  0  0.120451  0  1.033734  0  0  0.123141  0.114902  0  1.041398  0
H  H3  1  0.79919892  0.78497472  0.61631585  1  0  0.113025  0  0.96404  0  0  0.117313  0  1.038255  0  0  0.120445  0  1.033835  0  0  0.123138  0.114899  0  1.041497  0
H  H4  1  0.67310765  0.21146383  0.23463649  1  0  0.088934  0  0.972036  0  0  0.088442  0  1.052168  0  0  0.091349  0  1.048366  0  0  0.12096  0.086057  0  1.055297  0
H  H5  1  0.32689193  0.78853723  0.76536223  1  0  0.088953  0  0.972027  0  0  0.088439  0  1.052176  0  0  0.091346  0  1.048374  0  0  0.120959  0.086054  0  1.055305  0
H  H6  1  0.25094908  0.89735243  0.16883899  1  0  0.109446  0  0.939641  0  0  0.117406  0  1.008443  0  0  0.118897  0  1.007063  0  0  0.124898  0.116002  0  1.009946  0
H  H7  1  0.74904947  0.10264588  0.83116168  1  0  0.109457  0  0.939653  0  0  0.117412  0  1.008455  0  0  0.118903  0  1.007074  0  0  0.124901  0.116009  0  1.009957  0
H  H8  1  0.39098810  0.98504155  0.26188248  1  0  0.113614  0  0.91948  0  0  0.123102  0  0.986103  0  0  0.124793  0  0.98409  0  0  0.130833  0.121686  0  0.987721  0
H  H9  1  0.60901305  0.01495815  0.73811655  1  0  0.113642  0  0.919521  0  0  0.123116  0  0.986148  0  0  0.124808  0  0.984135  0  0  0.130839  0.121703  0  0.987765  0
H  H10  1  0.15683970  0.13411200  0.88657066  1  0  0.115833  0  0.963922  0  0  0.11302  0  1.048489  0  0  0.117216  0  1.042233  0  0  0.131172  0.109775  0  1.053223  0
H  H11  1  0.84315555  0.86589040  0.11342899  1  0  0.115867  0  0.963895  0  0  0.113055  0  1.048463  0  0  0.11725  0  1.042209  0  0  0.131176  0.109812  0  1.053196  0
H  H12  1  0.56512106  0.47888338  0.84471563  1  0  0.097754  0  0.942948  0  0  0.100933  0  1.014124  0  0  0.103408  0  1.01119  0  0  0.127627  0.099067  0  1.016328  0
H  H13  1  0.43487906  0.52111358  0.15528432  1  0  0.097749  0  0.942896  0  0  0.100928  0  1.014073  0  0  0.103402  0  1.01114  0  0  0.127624  0.099061  0  1.016279  0
C  C14  1  0.08687555  0.19095239  0.33063974  1  0  0.196368  0  3.605515  0  0  0.129197  0  3.872015  0  0  0.145262  0  3.882395  0  0  0.164211  0.118966  0  3.864673  0
C  C15  1  0.91312421  0.80904729  0.66936042  1  0  0.196346  0  3.605605  0  0  0.129171  0  3.872108  0  0  0.145237  0  3.882487  0  0  0.164207  0.11894  0  3.864766  0
C  C16  1  0.82212231  0.18718036  0.25220100  1  0  0.207483  0  3.705883  0  0  0.157566  0  3.989292  0  0  0.169248  0  4.002036  0  0  0.139446  0.149937  0  3.980317  0
C  C17  1  0.17787866  0.81282071  0.74779660  1  0  0.20748  0  3.705873  0  0  0.157582  0  3.989283  0  0  0.169264  0  4.002027  0  0  0.139452  0.149954  0  3.980304  0
C  C18  1  0.28057445  0.02076690  0.18269625  1  0  0.061423  0  3.605697  0  0  -0.024673  0  3.860878  0  0  -0.015641  0  3.868396  0  0  0.063712  -0.030639  0  3.855998  0
C  C19  1  0.71942531  0.97923279  0.81730289  1  0  0.061371  0  3.605789  0  0  -0.024699  0  3.86093  0  0  -0.015669  0  3.86845  0  0  0.063703  -0.030667  0  3.856049  0
C  C20  1  0.26440334  0.20143574  0.90882611  1  0  0.195175  0  3.600168  0  0  0.126896  0  3.870256  0  0  0.143434  0  3.879129  0  0  0.16476  0.116218  0  3.863755  0
C  C21  1  0.73559486  0.79856531  0.09117375  1  0  0.195097  0  3.600261  0  0  0.126805  0  3.870357  0  0  0.143343  0  3.87923  0  0  0.164727  0.116138  0  3.863823  0
C  C22  1  0.47206031  0.37416186  0.89223437  1  0  0.20696  0  3.699826  0  0  0.155985  0  3.984811  0  0  0.16774  0  3.998097  0  0  0.145624  0.148472  0  3.975432  0
C  C23  1  0.52793910  0.62584056  0.10776498  1  0  0.206906  0  3.699792  0  0  0.155932  0  3.984787  0  0  0.167687  0  3.998075  0  0  0.145586  0.148418  0  3.975412  0
N  N24  1  0.90534440  0.24937104  0.34110636  1  0  -0.403627  0  3.193367  0  0  -0.332998  0  3.473815  0  0  -0.355975  0  3.489895  0  0  -0.348742  -0.317357  0  3.462142  0
N  N25  1  0.09465554  0.75062729  0.65889318  1  0  -0.403631  0  3.193334  0  0  -0.333006  0  3.473785  0  0  -0.355983  0  3.489864  0  0  -0.348761  -0.317364  0  3.462111  0
N  N26  1  0.10965474  0.09639549  0.23978059  1  0  0.019628  0  3.554775  0  0  0.106867  0  3.78553  0  0  0.093541  0  3.811363  0  0  -0.135918  0.115579  0  3.767938  0
N  N27  1  0.89034502  0.90360420  0.76021957  1  0  0.019647  0  3.554799  0  0  0.106874  0  3.785553  0  0  0.093549  0  3.811386  0  0  -0.135946  0.115586  0  3.767962  0
N  N28  1  0.34061045  0.15170316  0.04138732  1  0  0.014917  0  3.560442  0  0  0.099271  0  3.796648  0  0  0.086291  0  3.821898  0  0  -0.138698  0.107601  0  3.779418  0
N  N29  1  0.65938949  0.84829517  0.95861222  1  0  0.014911  0  3.560651  0  0  0.099275  0  3.796826  0  0  0.086295  0  3.822078  0  0  -0.138692  0.107609  0  3.779597  0
N  N30  1  0.34496338  0.34278458  0.81226665  1  0  -0.397346  0  3.190661  0  0  -0.322976  0  3.466174  0  0  -0.34623  0  3.482897  0  0  -0.344661  -0.306997  0  3.453747  0
N  N31  1  0.65503638  0.65721509  0.18773556  1  0  -0.397311  0  3.190568  0  0  -0.322939  0  3.466082  0  0  -0.346193  0  3.482805  0  0  -0.344625  -0.306961  0  3.45367  0
N  N32  1  0.94186864  0.09438690  0.18739107  1  0  -0.273366  0  2.866995  0  0  -0.261214  0  3.140976  0  0  -0.269936  0  3.154937  0  0  -0.223218  -0.255294  0  3.131756  0
N  N33  1  0.05813113  0.90561279  0.81260806  1  0  -0.273357  0  2.867021  0  0  -0.261199  0  3.140992  0  0  -0.269921  0  3.154953  0  0  -0.223176  -0.255279  0  3.13177  0
N  N34  1  0.47251200  0.26179634  0.03330484  1  0  -0.279261  0  2.856987  0  0  -0.263986  0  3.129392  0  0  -0.273034  0  3.143937  0  0  -0.219199  -0.257642  0  3.119604  0
N  N35  1  0.52748933  0.73820199  0.96669563  1  0  -0.279188  0  2.857161  0  0  -0.263911  0  3.129551  0  0  -0.272958  0  3.144096  0  0  -0.219169  -0.257568  0  3.119763  0
Cl  Cl36  1  0.52915244  0.72506520  0.50714686  1  0  -0.580313  0  0.948095  0  0  -0.521528  0  1.221726  0  0  -0.539764  0  1.201147  0  0  -0.314228  -0.50827  0  1.235671  0
Cl  Cl37  1  0.47085010  0.27493449  0.49285310  1  0  -0.580305  0  0.948099  0  0  -0.521528  0  1.221746  0  0  -0.539765  0  1.201166  0  0  -0.314217  -0.508269  0  1.235689  0
Cl  Cl38  1  0.91699308  0.36769906  0.67832720  1  0  -0.584764  0  1.008507  0  0  -0.525361  0  1.294308  0  0  -0.544014  0  1.27362  0  0  -0.311514  -0.512081  0  1.308717  0
Cl  Cl39  1  0.08300686  0.63229925  0.32167439  1  0  -0.584764  0  1.008512  0  0  -0.525358  0  1.294309  0  0  -0.54401  0  1.27362  0  0  -0.311515  -0.512073  0  1.308702  0
