# generated using pymatgen
data_H20PbC18(NO2)2
_symmetry_space_group_name_H-M   'P 1'
_cell_length_a   5.26947920
_cell_length_b   5.27445378
_cell_length_c   16.55863392
_cell_angle_alpha   102.41845250
_cell_angle_beta   101.46148318
_cell_angle_gamma   73.55364842
_symmetry_Int_Tables_number   1
_chemical_formula_structural   H20PbC18(NO2)2
_chemical_formula_sum   'H20 Pb1 C18 N2 O4'
_cell_volume   426.37487310
_cell_formula_units_Z   1
loop_
 _symmetry_equiv_pos_site_id
 _symmetry_equiv_pos_as_xyz
  1  'x, y, z'
loop_
 _atom_site_type_symbol
 _atom_site_label
 _atom_site_symmetry_multiplicity
 _atom_site_fract_x
 _atom_site_fract_y
 _atom_site_fract_z
 _atom_site_occupancy
 _atom_site_hle17_bader_spin_density
 _atom_site_hle17_ddec_charge
 _atom_site_hle17_ddec_spin_density
 _atom_site_hle17_ddec_sum_bond_order
 _atom_site_hle17_magmom
 _atom_site_hse06_10hf_bader_spin_density
 _atom_site_hse06_10hf_ddec_charge
 _atom_site_hse06_10hf_ddec_spin_density
 _atom_site_hse06_10hf_ddec_sum_bond_order
 _atom_site_hse06_10hf_magmom
 _atom_site_hse06_bader_spin_density
 _atom_site_hse06_ddec_charge
 _atom_site_hse06_ddec_spin_density
 _atom_site_hse06_ddec_sum_bond_order
 _atom_site_hse06_magmom
 _atom_site_pbe_bader_spin_density
 _atom_site_pbe_cm5_charge
 _atom_site_pbe_ddec_charge
 _atom_site_pbe_ddec_spin_density
 _atom_site_pbe_ddec_sum_bond_order
 _atom_site_pbe_magmom
H  H0  1  0.13126283  0.59171437  0.11885103  1  0  0.3028  0  0.91051  0  0  0.287382  0  0.978418  0  0  0.295448  0  0.971715  0  0  0.289449  0.281621  0  0.983173  0
H  H1  1  0.47092861  0.01030002  0.88094743  1  0  0.302478  0  0.911012  0  0  0.287285  0  0.978818  0  0  0.295377  0  0.972077  0  0  0.289009  0.281494  0  0.983626  0
H  H2  1  0.13615630  0.90220227  0.16309258  1  0  0.28951  0  0.921317  0  0  0.279748  0  0.977209  0  0  0.286033  0  0.973584  0  0  0.289287  0.275283  0  0.979754  0
H  H3  1  0.73678202  0.96992868  0.83666757  1  0  0.29053  0  0.919903  0  0  0.281032  0  0.975675  0  0  0.287324  0  0.972053  0  0  0.28952  0.276566  0  0.978215  0
H  H4  1  0.66239936  0.68655592  0.10031777  1  0  0.070136  0  0.923283  0  0  0.085619  0  0.980672  0  0  0.087177  0  0.980175  0  0  0.115413  0.084474  0  0.981179  0
H  H5  1  0.58427394  0.56084686  0.89973448  1  0  0.070292  0  0.922658  0  0  0.085911  0  0.980574  0  0  0.087533  0  0.97997  0  0  0.115188  0.084703  0  0.981158  0
H  H6  1  0.56324138  0.83811506  0.24476128  1  0  0.087788  0  0.968017  0  0  0.101538  0  1.036526  0  0  0.103005  0  1.03609  0  0  0.094415  0.1004  0  1.036958  0
H  H7  1  0.59058588  0.31461386  0.75535843  1  0  0.088418  0  0.967892  0  0  0.10249  0  1.035926  0  0  0.103936  0  1.035525  0  0  0.094574  0.101419  0  1.036262  0
H  H8  1  0.85656208  0.57509100  0.23335685  1  0  0.091698  0  0.940803  0  0  0.107149  0  1.003192  0  0  0.108611  0  1.003127  0  0  0.094929  0.106067  0  1.003277  0
H  H9  1  0.33849664  0.61880249  0.76653527  1  0  0.092636  0  0.940302  0  0  0.1081  0  1.002524  0  0  0.109517  0  1.002541  0  0  0.095433  0.107053  0  1.002561  0
H  H10  1  0.28009624  0.62325611  0.30658477  1  0  0.092009  0  0.973578  0  0  0.103803  0  1.035466  0  0  0.106732  0  1.034174  0  0  0.09829  0.101678  0  1.036538  0
H  H11  1  0.31262104  0.96826336  0.69408099  1  0  0.092014  0  0.971934  0  0  0.102716  0  1.035276  0  0  0.105568  0  1.03405  0  0  0.097816  0.100669  0  1.036268  0
H  H12  1  0.55243261  0.89061961  0.41269597  1  0  0.078192  0  0.983057  0  0  0.089552  0  1.045096  0  0  0.091718  0  1.04468  0  0  0.095772  0.087995  0  1.045482  0
H  H13  1  0.47102291  0.13442052  0.58784302  1  0  0.078591  0  0.982305  0  0  0.090574  0  1.043633  0  0  0.092708  0  1.04336  0  0  0.096087  0.089026  0  1.043932  0
H  H14  1  0.35574006  0.37195311  0.46405992  1  0  0.087862  0  0.944589  0  0  0.103059  0  0.997706  0  0  0.105578  0  0.997266  0  0  0.100958  0.10127  0  0.998076  0
H  H15  1  0.90046066  0.88676544  0.53621275  1  0  0.087013  0  0.944705  0  0  0.101982  0  0.998248  0  0  0.104422  0  0.997806  0  0  0.100878  0.100229  0  0.998599  0
H  H16  1  0.88337868  0.58092466  0.41133952  1  0  0.073709  0  0.989057  0  0  0.085336  0  1.051496  0  0  0.087418  0  1.051137  0  0  0.093973  0.083831  0  1.051797  0
H  H17  1  0.16310877  0.46719189  0.58804634  1  0  0.075463  0  0.987802  0  0  0.086449  0  1.051009  0  0  0.088621  0  1.050557  0  0  0.094494  0.084922  0  1.051344  0
H  H18  1  0.61239066  0.31337064  0.30533442  1  0  0.093573  0  0.977836  0  0  0.103197  0  1.042103  0  0  0.105931  0  1.041387  0  0  0.097337  0.101232  0  1.042749  0
H  H19  1  0.00420253  0.30209846  0.69413661  1  0  0.093811  0  0.97726  0  0  0.104073  0  1.040758  0  0  0.106846  0  1.039937  0  0  0.097357  0.102082  0  1.041449  0
Pb  Pb20  1  0.02120815  0.02084805  0.99991531  1  0  1.200158  0  1.489068  0  0  1.018068  0  1.888357  0  0  1.070088  0  1.851166  0  0  0.60669  0.979753  0  1.91571  0
C  C21  1  0.57677979  0.11165762  0.12502014  1  0  0.607564  0  3.904129  0  0  0.558602  0  4.210984  0  0  0.590326  0  4.207475  0  0  0.204525  0.537166  0  4.212314  0
C  C22  1  0.98484635  0.44995977  0.87495010  1  0  0.605944  0  3.908662  0  0  0.557301  0  4.215504  0  0  0.589011  0  4.212005  0  0  0.203686  0.53586  0  4.216825  0
C  C23  1  0.75921744  0.83645654  0.14253404  1  0  0.06773  0  3.61904  0  0  0.051258  0  3.858623  0  0  0.05044  0  3.873322  0  0  0.002047  0.05164  0  3.848485  0
C  C24  1  0.69168694  0.61433286  0.85743163  1  0  0.069747  0  3.617989  0  0  0.052052  0  3.859286  0  0  0.051292  0  3.873935  0  0  0.002437  0.052437  0  3.84915  0
C  C25  1  0.76973952  0.78979883  0.23205800  1  0  -0.199485  0  3.688098  0  0  -0.249307  0  3.93466  0  0  -0.250224  0  3.946136  0  0  -0.163951  -0.248429  0  3.926743  0
C  C26  1  0.55475696  0.53370368  0.76794749  1  0  -0.202138  0  3.68971  0  0  -0.252415  0  3.936294  0  0  -0.253388  0  3.947884  0  0  -0.164906  -0.251535  0  3.928299  0
C  C27  1  0.92910047  0.95110518  0.29810983  1  0  0.091913  0  3.756565  0  0  0.115179  0  3.989887  0  0  0.115153  0  4.014584  0  0  -0.016459  0.115135  0  3.973124  0
C  C28  1  0.64915613  0.62617482  0.70191661  1  0  0.091692  0  3.757512  0  0  0.116477  0  3.988551  0  0  0.116495  0  4.013196  0  0  -0.016575  0.116397  0  3.971855  0
C  C29  1  0.19430926  0.83428512  0.32947151  1  0  -0.137579  0  3.755323  0  0  -0.155614  0  3.99796  0  0  -0.158682  0  4.018962  0  0  -0.0968  -0.153476  0  3.98369  0
C  C30  1  0.50027742  0.85983055  0.67087353  1  0  -0.136995  0  3.756482  0  0  -0.154638  0  3.999092  0  0  -0.157649  0  4.02009  0  0  -0.09655  -0.152566  0  3.984836  0
C  C31  1  0.34621831  0.98353979  0.38938847  1  0  -0.068213  0  3.800014  0  0  -0.080706  0  4.048661  0  0  -0.082398  0  4.071058  0  0  -0.095291  -0.079448  0  4.033294  0
C  C32  1  0.58815573  0.95183753  0.61101432  1  0  -0.06908  0  3.799645  0  0  -0.082015  0  4.048202  0  0  -0.083715  0  4.07053  0  0  -0.095404  -0.080745  0  4.032888  0
C  C33  1  0.23554746  0.25306205  0.41870574  1  0  -0.085924  0  3.79268  0  0  -0.101237  0  4.043704  0  0  -0.103793  0  4.065371  0  0  -0.096031  -0.099456  0  4.028859  0
C  C34  1  0.82779287  0.81175733  0.58142626  1  0  -0.083501  0  3.790348  0  0  -0.098683  0  4.041615  0  0  -0.101167  0  4.063353  0  0  -0.095498  -0.096906  0  4.026678  0
C  C35  1  0.97071372  0.37078174  0.38853973  1  0  -0.066544  0  3.799989  0  0  -0.079633  0  4.048595  0  0  -0.081341  0  4.071379  0  0  -0.094275  -0.078329  0  4.032991  0
C  C36  1  0.97644549  0.57716335  0.61123512  1  0  -0.069157  0  3.799837  0  0  -0.082137  0  4.048741  0  0  -0.083896  0  4.071452  0  0  -0.094742  -0.080833  0  4.033177  0
C  C37  1  0.81888731  0.22154999  0.32890545  1  0  -0.127129  0  3.732784  0  0  -0.143944  0  3.974035  0  0  -0.147462  0  3.996172  0  0  -0.095596  -0.141542  0  3.959024  0
C  C38  1  0.88819891  0.48495083  0.67085008  1  0  -0.128449  0  3.732989  0  0  -0.145887  0  3.973583  0  0  -0.149396  0  3.995688  0  0  -0.096503  -0.143484  0  3.958604  0
N  N39  1  0.02620232  0.78929322  0.11919094  1  0  -0.65328  0  3.060128  0  0  -0.594343  0  3.28242  0  0  -0.61527  0  3.283852  0  0  -0.592619  -0.579449  0  3.281094  0
N  N40  1  0.66831378  0.90476828  0.88064290  1  0  -0.654956  0  3.058533  0  0  -0.596392  0  3.280464  0  0  -0.617402  0  3.281917  0  0  -0.59219  -0.581436  0  3.27911  0
O  O41  1  0.64318765  0.23022373  0.07536625  1  0  -0.653892  0  2.005286  0  0  -0.585949  0  2.253673  0  0  -0.615091  0  2.246323  0  0  -0.309688  -0.565237  0  2.257807  0
O  O42  1  0.15388528  0.56668943  0.92451710  1  0  -0.652732  0  2.005853  0  0  -0.58455  0  2.253791  0  0  -0.613694  0  2.246442  0  0  -0.309369  -0.563826  0  2.257922  0
O  O43  1  0.36050579  0.19846032  0.15545513  1  0  -0.64216  0  1.941142  0  0  -0.589314  0  2.170907  0  0  -0.613929  0  2.163395  0  0  -0.318818  -0.571916  0  2.175414  0
O  O44  1  0.04097571  0.20303901  0.84456820  1  0  -0.642055  0  1.944436  0  0  -0.589166  0  2.174155  0  0  -0.613812  0  2.166657  0  0  -0.318297  -0.57179  0  2.17876  0
