# generated using pymatgen
data_FeAgPH23C29SeS(OF)3
_symmetry_space_group_name_H-M   'P 1'
_cell_length_a   9.67982392
_cell_length_b   11.91013348
_cell_length_c   12.74930000
_cell_angle_alpha   66.65768061
_cell_angle_beta   86.68448178
_cell_angle_gamma   84.26183827
_symmetry_Int_Tables_number   1
_chemical_formula_structural   FeAgPH23C29SeS(OF)3
_chemical_formula_sum   'Fe2 Ag2 P2 H46 C58 Se2 S2 O6 F6'
_cell_volume   1342.51123954
_cell_formula_units_Z   2
loop_
 _symmetry_equiv_pos_site_id
 _symmetry_equiv_pos_as_xyz
  1  'x, y, z'
loop_
 _atom_site_type_symbol
 _atom_site_label
 _atom_site_symmetry_multiplicity
 _atom_site_fract_x
 _atom_site_fract_y
 _atom_site_fract_z
 _atom_site_occupancy
 _atom_site_hle17_bader_spin_density
 _atom_site_hle17_ddec_charge
 _atom_site_hle17_ddec_spin_density
 _atom_site_hle17_ddec_sum_bond_order
 _atom_site_hle17_magmom
 _atom_site_hse06_10hf_bader_spin_density
 _atom_site_hse06_10hf_ddec_charge
 _atom_site_hse06_10hf_ddec_spin_density
 _atom_site_hse06_10hf_ddec_sum_bond_order
 _atom_site_hse06_10hf_magmom
 _atom_site_hse06_bader_spin_density
 _atom_site_hse06_ddec_charge
 _atom_site_hse06_ddec_spin_density
 _atom_site_hse06_ddec_sum_bond_order
 _atom_site_hse06_magmom
 _atom_site_pbe_bader_charge
 _atom_site_pbe_bader_spin_density
 _atom_site_pbe_cm5_charge
 _atom_site_pbe_ddec_charge
 _atom_site_pbe_ddec_spin_density
 _atom_site_pbe_ddec_sum_bond_order
 _atom_site_pbe_magmom
Fe  Fe0  1  0.64575932  0.15031914  0.21393400  1  0  0.116216  0  3.592188  0  0  0.224032  0  3.992606  0  0  0.229993  0  3.978697  0  0.727686  0  0.529861  0.227623  0  3.994815  0
Fe  Fe1  1  0.35424278  0.84968026  0.78607593  1  0  0.11628  0  3.592151  0  0  0.224269  0  3.9925  0  0  0.230151  0  3.978632  0  0.727713  0  0.529913  0.227618  0  3.994833  0
Ag  Ag2  1  0.28086717  0.44881179  0.09599077  1  0  0.3243  0  1.703764  0  0  0.215981  0  2.177825  0  0  0.232713  0  2.137639  0  0.385353  0  0.386666  0.203475  0  2.206809  0
Ag  Ag3  1  0.71912656  0.55118853  0.90400900  1  0  0.324218  0  1.703808  0  0  0.215911  0  2.17786  0  0  0.232644  0  2.137669  0  0.38535  0  0.386643  0.203403  0  2.206845  0
P  P4  1  0.29825680  0.24470807  0.24070744  1  0  0.334838  0  3.735848  0  0  0.294047  0  4.190296  0  0  0.305172  0  4.185693  0  1.530863  0  0.001904  0.286376  0  4.19354  0
P  P5  1  0.70174548  0.75528949  0.75928984  1  0  0.334901  0  3.735691  0  0  0.294115  0  4.190175  0  0  0.305234  0  4.185572  0  1.530853  0  0.001946  0.286444  0  4.19341  0
H  H6  1  0.48630573  0.08976915  0.06995328  1  0  0.124931  0  0.950257  0  0  0.141048  0  1.002849  0  0  0.143545  0  1.003153  0  0.099785  0  0.107869  0.138998  0  1.003422  0
H  H7  1  0.51370535  0.91022291  0.93005349  1  0  0.124908  0  0.950285  0  0  0.141056  0  1.002853  0  0  0.14355  0  1.003157  0  0.099493  0  0.107866  0.139004  0  1.003429  0
H  H8  1  0.67391178  0.91643952  0.20694755  1  0  0.108051  0  0.95864  0  0  0.124713  0  1.012142  0  0  0.126878  0  1.011854  0  0.102235  0  0.106311  0.123261  0  1.012337  0
H  H9  1  0.32609705  0.08355438  0.79306569  1  0  0.108081  0  0.958664  0  0  0.124709  0  1.012201  0  0  0.126875  0  1.011907  0  0.102259  0  0.106301  0.123256  0  1.012393  0
H  H10  1  0.90602753  0.02545377  0.20647510  1  0  0.111364  0  0.956512  0  0  0.12604  0  1.011883  0  0  0.127991  0  1.013087  0  0.103495  0  0.106873  0.12442  0  1.012159  0
H  H11  1  0.09397569  0.97454471  0.79353983  1  0  0.111336  0  0.956613  0  0  0.126051  0  1.011931  0  0  0.128006  0  1.013127  0  0.103604  0  0.106914  0.124423  0  1.012221  0
H  H12  1  0.86473423  0.26675069  0.06895995  1  0  0.147084  0  0.947021  0  0  0.160512  0  1.003138  0  0  0.163662  0  1.001718  0  0.140224  0  0.112045  0.158195  0  1.004569  0
H  H13  1  0.13527538  0.73324595  0.93105381  1  0  0.147037  0  0.94708  0  0  0.16045  0  1.00322  0  0  0.163615  0  1.001777  0  0.140202  0  0.112022  0.158131  0  1.004649  0
H  H14  1  0.48747629  0.99293574  0.39266049  1  0  0.112295  0  0.956132  0  0  0.130197  0  1.008086  0  0  0.1327  0  1.007515  0  0.102484  0  0.106  0.128458  0  1.008678  0
H  H15  1  0.51252460  0.00706550  0.60735274  1  0  0.112312  0  0.956203  0  0  0.130237  0  1.008122  0  0  0.132743  0  1.00754  0  0.102395  0  0.106007  0.128497  0  1.008711  0
H  H16  1  0.74982406  0.01705851  0.43365815  1  0  0.108906  0  0.973732  0  0  0.121684  0  1.033549  0  0  0.123311  0  1.035122  0  0.106294  0  0.102678  0.120562  0  1.032477  0
H  H17  1  0.25017424  0.98294824  0.56635630  1  0  0.109049  0  0.973566  0  0  0.121839  0  1.033353  0  0  0.123468  0  1.03493  0  0.106091  0  0.102687  0.120717  0  1.03228  0
H  H18  1  0.79840742  0.25755701  0.32440278  1  0  0.123365  0  0.976799  0  0  0.134929  0  1.03614  0  0  0.138013  0  1.034704  0  0.118294  0  0.105368  0.132969  0  1.03708  0
H  H19  1  0.20158372  0.74244881  0.67560212  1  0  0.123259  0  0.976867  0  0  0.134836  0  1.036211  0  0  0.137921  0  1.034777  0  0.118366  0  0.105345  0.132876  0  1.037149  0
H  H20  1  0.56486435  0.38176805  0.21791318  1  0  0.108913  0  0.968304  0  0  0.120483  0  1.035837  0  0  0.123745  0  1.033634  0  0.095457  0  0.096668  0.11835  0  1.037269  0
H  H21  1  0.43512913  0.61823502  0.78208479  1  0  0.108941  0  0.968292  0  0  0.12051  0  1.035814  0  0  0.12377  0  1.033611  0  0.09544  0  0.096674  0.118376  0  1.037244  0
H  H22  1  0.76457578  0.46395502  0.74354983  1  0  0.085547  0  1.002289  0  0  0.090003  0  1.082639  0  0  0.094017  0  1.078577  0  0.086049  0  0.085019  0.087046  0  1.085749  0
H  H23  1  0.23543296  0.53603979  0.25644661  1  0  0.085453  0  1.002433  0  0  0.089978  0  1.082702  0  0  0.093985  0  1.07866  0  0.086198  0  0.085011  0.087016  0  1.085823  0
H  H24  1  0.78376376  0.45432359  0.55230400  1  0  0.093949  0  0.954921  0  0  0.100616  0  1.021202  0  0  0.104167  0  1.018833  0  0.080211  0  0.09631  0.09824  0  1.022772  0
H  H25  1  0.21623566  0.54568223  0.44768720  1  0  0.093915  0  0.955052  0  0  0.100605  0  1.021293  0  0  0.104153  0  1.018931  0  0.080527  0  0.096297  0.098227  0  1.022868  0
H  H26  1  0.61924937  0.33847295  0.49866794  1  0  0.095549  0  0.948767  0  0  0.108519  0  1.003912  0  0  0.111325  0  1.003087  0  0.080618  0  0.099542  0.106563  0  1.004434  0
H  H27  1  0.38074090  0.66154205  0.50132026  1  0  0.095615  0  0.948836  0  0  0.108595  0  1.003965  0  0  0.111367  0  1.00318  0  0.080571  0  0.099557  0.106636  0  1.00449  0
H  H28  1  0.43761133  0.23118919  0.63817571  1  0  0.081062  0  0.97671  0  0  0.093549  0  1.038006  0  0  0.095942  0  1.037431  0  0.064646  0  0.099259  0.091757  0  1.038631  0
H  H29  1  0.56238697  0.76881755  0.36181599  1  0  0.081092  0  0.976703  0  0  0.093592  0  1.037996  0  0  0.095988  0  1.037414  0  0.064735  0  0.099263  0.0918  0  1.03862  0
H  H30  1  0.41198725  0.24751628  0.82767758  1  0  0.095733  0  0.95093  0  0  0.106437  0  1.013427  0  0  0.109771  0  1.011376  0  0.058236  0  0.099782  0.104065  0  1.014939  0
H  H31  1  0.58801822  0.75248037  0.17231832  1  0  0.09583  0  0.950852  0  0  0.106489  0  1.013396  0  0  0.109821  0  1.011347  0  0.058131  0  0.099837  0.104117  0  1.014907  0
H  H32  1  0.03814802  0.12693023  0.34857679  1  0  0.095863  0  0.949893  0  0  0.110036  0  1.005915  0  0  0.112161  0  1.006  0  0.086301  0  0.104557  0.10834  0  1.006378  0
H  H33  1  0.96185056  0.87306275  0.65141921  1  0  0.095798  0  0.950024  0  0  0.109935  0  1.006106  0  0  0.112059  0  1.006193  0  0.086439  0  0.104486  0.10824  0  1.006572  0
H  H34  1  0.91275733  0.10865391  0.52904062  1  0  0.080944  0  0.975318  0  0  0.092464  0  1.038824  0  0  0.094581  0  1.038953  0  0.057028  0  0.096835  0.091047  0  1.038675  0
H  H35  1  0.08723856  0.89134549  0.47095390  1  0  0.081038  0  0.97534  0  0  0.092543  0  1.038857  0  0  0.094664  0  1.038985  0  0.057091  0  0.096879  0.091138  0  1.038682  0
H  H36  1  0.00435782  0.19582776  0.65669283  1  0  0.082213  0  0.971565  0  0  0.092116  0  1.03499  0  0  0.095115  0  1.033381  0  0.072428  0  0.095345  0.090034  0  1.036122  0
H  H37  1  0.99563790  0.80417348  0.34330023  1  0  0.082235  0  0.971611  0  0  0.092129  0  1.035015  0  0  0.095133  0  1.033397  0  0.072806  0  0.095325  0.090035  0  1.036161  0
H  H38  1  0.22395666  0.29859911  0.60372966  1  0  0.077318  0  0.99227  0  0  0.083507  0  1.064112  0  0  0.086659  0  1.061794  0  0.071576  0  0.089336  0.081328  0  1.065621  0
H  H39  1  0.77604269  0.70139662  0.39626528  1  0  0.077329  0  0.9923  0  0  0.083545  0  1.064114  0  0  0.086694  0  1.061799  0  0.071395  0  0.089345  0.081358  0  1.065632  0
H  H40  1  0.35276687  0.31327890  0.42602841  1  0  0.09045  0  0.954328  0  0  0.106407  0  1.008018  0  0  0.108155  0  1.009055  0  0.070171  0  0.099689  0.105117  0  1.007533  0
H  H41  1  0.64723153  0.68671592  0.57396691  1  0  0.090404  0  0.954396  0  0  0.106377  0  1.008075  0  0  0.108125  0  1.009111  0  0.070171  0  0.099666  0.105086  0  1.007591  0
H  H42  1  0.18866655  0.27106029  0.02840821  1  0  0.091788  0  1.006314  0  0  0.09717  0  1.081145  0  0  0.100449  0  1.078631  0  0.109257  0  0.092024  0.095192  0  1.082345  0
H  H43  1  0.81133072  0.72894646  0.97158824  1  0  0.091861  0  1.006344  0  0  0.097224  0  1.081186  0  0  0.100489  0  1.078688  0  0.109369  0  0.092072  0.095248  0  1.082384  0
H  H44  1  0.11906845  0.12484793  0.95099536  1  0  0.088882  0  0.954261  0  0  0.101266  0  1.011592  0  0  0.103955  0  1.010625  0  0.111795  0  0.098454  0.099389  0  1.012362  0
H  H45  1  0.88092441  0.87516157  0.04900026  1  0  0.088929  0  0.954198  0  0  0.101252  0  1.011591  0  0  0.103941  0  1.010624  0  0.111914  0  0.098466  0.099377  0  1.012358  0
H  H46  1  0.13739595  0.90032718  0.07126963  1  0  0.093411  0  0.958735  0  0  0.108626  0  1.011591  0  0  0.110743  0  1.011795  0  0.063472  0  0.101451  0.107199  0  1.011356  0
H  H47  1  0.86260217  0.09968140  0.92872140  1  0  0.093401  0  0.958685  0  0  0.108635  0  1.011513  0  0  0.110747  0  1.011729  0  0.063306  0  0.101465  0.107208  0  1.01128  0
H  H48  1  0.22126409  0.82445317  0.26998201  1  0  0.080409  0  0.99965  0  0  0.091169  0  1.061159  0  0  0.092296  0  1.06333  0  0.086206  0  0.094158  0.090476  0  1.059487  0
H  H49  1  0.77873429  0.17555266  0.73001003  1  0  0.080388  0  0.999583  0  0  0.091199  0  1.061058  0  0  0.092328  0  1.063225  0  0.086135  0  0.094145  0.090505  0  1.059388  0
H  H50  1  0.28696405  0.96979553  0.34932028  1  0  0.084775  0  0.960191  0  0  0.097717  0  1.021364  0  0  0.100173  0  1.020477  0  0.071782  0  0.09976  0.095827  0  1.022261  0
H  H51  1  0.71303554  0.03020846  0.65067395  1  0  0.084804  0  0.960206  0  0  0.097749  0  1.021376  0  0  0.100207  0  1.020492  0  0.071924  0  0.099763  0.095858  0  1.022275  0
C  C52  1  0.65466925  0.21779421  0.04141644  1  0  -0.05335  0  3.696328  0  0  -0.04289  0  3.984867  0  0  -0.045123  0  4.006223  0  -0.319065  0  -0.110204  -0.04229  0  3.9704  0
C  C53  1  0.34533950  0.78220060  0.95858941  1  0  -0.053371  0  3.696464  0  0  -0.042869  0  3.984932  0  0  -0.045095  0  4.006279  0  -0.313033  0  -0.110252  -0.042245  0  3.97043  0
C  C54  1  0.59096950  0.10323296  0.08622316  1  0  -0.137773  0  3.715786  0  0  -0.174729  0  3.991521  0  0  -0.178187  0  4.009833  0  -0.135454  0  -0.155249  -0.172642  0  3.979363  0
C  C55  1  0.40903511  0.89676185  0.91378523  1  0  -0.138029  0  3.716077  0  0  -0.175064  0  3.991851  0  0  -0.17851  0  4.010149  0  -0.141228  0  -0.155351  -0.172952  0  3.97966  0
C  C56  1  0.69036539  0.01217075  0.15777102  1  0  -0.099971  0  3.727554  0  0  -0.129014  0  4.002945  0  0  -0.132219  0  4.021044  0  -0.147383  0  -0.148469  -0.127376  0  3.990574  0
C  C57  1  0.30963964  0.98783048  0.84223418  1  0  -0.099739  0  3.727301  0  0  -0.128771  0  4.002704  0  0  -0.131968  0  4.02079  0  -0.148243  0  -0.148405  -0.127103  0  3.990297  0
C  C58  1  0.81354248  0.06992813  0.15760949  1  0  -0.09374  0  3.705175  0  0  -0.122049  0  3.977616  0  0  -0.126582  0  3.997018  0  -0.163558  0  -0.146071  -0.120306  0  3.966292  0
C  C59  1  0.18646083  0.93006944  0.84240499  1  0  -0.093833  0  3.705172  0  0  -0.122189  0  3.977632  0  0  -0.126714  0  3.997027  0  -0.163009  0  -0.146173  -0.120423  0  3.966271  0
C  C60  1  0.79231763  0.19746405  0.08546908  1  0  -0.128582  0  3.677725  0  0  -0.163158  0  3.947609  0  0  -0.165623  0  3.964425  0  -0.08951  0  -0.149015  -0.162  0  3.937152  0
C  C61  1  0.20768999  0.80253168  0.91453962  1  0  -0.128525  0  3.677831  0  0  -0.163114  0  3.947745  0  0  -0.165582  0  3.964542  0  -0.089563  0  -0.148989  -0.161928  0  3.937256  0
C  C62  1  0.47406421  0.19804129  0.29031584  1  0  -0.153737  0  3.77984  0  0  -0.130241  0  4.050852  0  0  -0.137445  0  4.07257  0  -0.652241  0  -0.09793  -0.125663  0  4.03588  0
C  C63  1  0.52593056  0.80195903  0.70968780  1  0  -0.153688  0  3.779589  0  0  -0.130269  0  4.050732  0  0  -0.137456  0  4.072431  0  -0.651919  0  -0.097963  -0.125658  0  4.035715  0
C  C64  1  0.53613398  0.07857577  0.36224126  1  0  -0.11226  0  3.704318  0  0  -0.149157  0  3.978481  0  0  -0.151139  0  3.995216  0  -0.163602  0  -0.152753  -0.14848  0  3.967225  0
C  C65  1  0.46386277  0.92142547  0.63776587  1  0  -0.112376  0  3.704515  0  0  -0.149317  0  3.978712  0  0  -0.151288  0  3.995438  0  -0.163174  0  -0.15279  -0.148611  0  3.967422  0
C  C66  1  0.67506731  0.09184594  0.38567850  1  0  -0.106707  0  3.707495  0  0  -0.13208  0  3.977243  0  0  -0.135243  0  3.995024  0  -0.178365  0  -0.15166  -0.130256  0  3.965118  0
C  C67  1  0.32492806  0.90815896  0.61433204  1  0  -0.106842  0  3.707384  0  0  -0.132214  0  3.977081  0  0  -0.135378  0  3.994862  0  -0.178226  0  -0.151587  -0.130369  0  3.964931  0
C  C68  1  0.70060344  0.21854398  0.32898411  1  0  -0.097127  0  3.698252  0  0  -0.126064  0  3.966502  0  0  -0.129253  0  3.983676  0  -0.096265  0  -0.15077  -0.124386  0  3.954772  0
C  C69  1  0.29939176  0.78146276  0.67101792  1  0  -0.097026  0  3.698118  0  0  -0.126003  0  3.966406  0  0  -0.129186  0  3.98357  0  -0.096533  0  -0.150769  -0.1243  0  3.954647  0
C  C70  1  0.57758911  0.28413315  0.27053199  1  0  -0.130751  0  3.725838  0  0  -0.165301  0  4.002072  0  0  -0.1682  0  4.019335  0  -0.144123  0  -0.154813  -0.163541  0  3.989815  0
C  C71  1  0.42240722  0.71586166  0.72947127  1  0  -0.130713  0  3.72543  0  0  -0.165254  0  4.001704  0  0  -0.168154  0  4.018975  0  -0.144229  0  -0.154771  -0.163469  0  3.989415  0
C  C72  1  0.58671845  0.35671990  0.79656296  1  0  -0.004256  0  3.675795  0  0  0.026415  0  3.914579  0  0  0.026205  0  3.940553  0  -0.202334  0  -0.040714  0.026548  0  3.897138  0
C  C73  1  0.41328832  0.64327399  0.20343548  1  0  -0.003873  0  3.675481  0  0  0.026717  0  3.914349  0  0  0.02651  0  3.94032  0  -0.202101  0  -0.040631  0.02685  0  3.896907  0
C  C74  1  0.69135665  0.41471956  0.71966037  1  0  -0.109044  0  3.780977  0  0  -0.126318  0  4.022485  0  0  -0.128854  0  4.044734  0  -0.060439  0  -0.097699  -0.124242  0  4.00714  0
C  C75  1  0.30864864  0.58527892  0.28033329  1  0  -0.10904  0  3.780833  0  0  -0.126341  0  4.022369  0  0  -0.128883  0  4.044631  0  -0.061011  0  -0.097749  -0.12427  0  4.007036  0
C  C76  1  0.70219198  0.40883700  0.61208147  1  0  -0.062588  0  3.756675  0  0  -0.076375  0  4.007084  0  0  -0.078707  0  4.028035  0  -0.011594  0  -0.090939  -0.074853  0  3.992435  0
C  C77  1  0.29780460  0.59116607  0.38791166  1  0  -0.062623  0  3.756524  0  0  -0.07643  0  4.006967  0  0  -0.07876  0  4.02791  0  -0.01195  0  -0.090955  -0.07491  0  3.992327  0
C  C78  1  0.61013227  0.34368742  0.58231305  1  0  -0.061967  0  3.747674  0  0  -0.075846  0  3.993147  0  0  -0.07648  0  4.013008  0  -0.092189  0  -0.087063  -0.075112  0  3.979414  0
C  C79  1  0.38986379  0.65632116  0.41767807  1  0  -0.062102  0  3.747913  0  0  -0.075998  0  3.993418  0  0  -0.076609  0  4.013285  0  -0.091955  0  -0.08712  -0.075264  0  3.979687  0
C  C80  1  0.50754067  0.28405882  0.66057974  1  0  -0.070925  0  3.769261  0  0  -0.08438  0  4.020112  0  0  -0.086873  0  4.041184  0  0.009919  0  -0.092811  -0.082743  0  4.00575  0
C  C81  1  0.49245857  0.71594884  0.33941236  1  0  -0.070865  0  3.769377  0  0  -0.084343  0  4.020213  0  0  -0.086833  0  4.041272  0  0.010084  0  -0.092797  -0.082705  0  4.005847  0
C  C82  1  0.49411771  0.29141615  0.76745108  1  0  -0.08802  0  3.75839  0  0  -0.110659  0  4.00686  0  0  -0.111622  0  4.027343  0  -0.05251  0  -0.092378  -0.109987  0  3.992825  0
C  C83  1  0.50588552  0.70858234  0.23254346  1  0  -0.088271  0  3.758301  0  0  -0.110839  0  4.006795  0  0  -0.111798  0  4.027277  0  -0.052594  0  -0.092417  -0.110166  0  3.992759  0
C  C84  1  0.20460823  0.22016467  0.37549752  1  0  -0.087602  0  3.740803  0  0  -0.04994  0  3.977323  0  0  -0.054756  0  4.001842  0  -0.532755  0  -0.024698  -0.046537  0  3.960324  0
C  C85  1  0.79538594  0.77983106  0.62449765  1  0  -0.087463  0  3.74078  0  0  -0.049785  0  3.977275  0  0  -0.054597  0  4.001788  0  -0.53287  0  -0.024558  -0.046381  0  3.960274  0
C  C86  1  0.08026975  0.16291112  0.40524127  1  0  -0.067211  0  3.743838  0  0  -0.087503  0  3.988682  0  0  -0.087629  0  4.008596  0  -0.043464  0  -0.084994  -0.086933  0  3.974721  0
C  C87  1  0.91972641  0.83708553  0.59475347  1  0  -0.067074  0  3.743954  0  0  -0.087333  0  3.98875  0  0  -0.087459  0  4.008665  0  -0.043381  0  -0.08498  -0.086765  0  3.974789  0
C  C88  1  0.00914078  0.15361557  0.50648262  1  0  -0.076574  0  3.766722  0  0  -0.088074  0  4.013908  0  0  -0.090835  0  4.035504  0  -0.075551  0  -0.092783  -0.085924  0  3.998702  0
C  C89  1  0.99085840  0.84638199  0.49350930  1  0  -0.076895  0  3.767097  0  0  -0.088397  0  4.014276  0  0  -0.091164  0  4.035865  0  -0.075548  0  -0.092895  -0.086246  0  3.999077  0
C  C90  1  0.06049589  0.20217193  0.57824333  1  0  -0.065916  0  3.770981  0  0  -0.080799  0  4.019862  0  0  -0.081282  0  4.040143  0  -0.023152  0  -0.093394  -0.08073  0  4.00622  0
C  C91  1  0.93949785  0.79782839  0.42174781  1  0  -0.065849  0  3.771019  0  0  -0.080698  0  4.019858  0  0  -0.081178  0  4.040135  0  -0.0235  0  -0.093315  -0.080621  0  4.006219  0
C  C92  1  0.18419144  0.25947229  0.54871755  1  0  -0.079974  0  3.790446  0  0  -0.094641  0  4.043453  0  0  -0.097272  0  4.064596  0  -0.053839  0  -0.099709  -0.092561  0  4.029263  0
C  C93  1  0.81580670  0.74052528  0.45127598  1  0  -0.079847  0  3.790251  0  0  -0.094555  0  4.043269  0  0  -0.097186  0  4.06441  0  -0.05391  0  -0.099678  -0.092467  0  4.029077  0
C  C94  1  0.25636057  0.26796116  0.44846955  1  0  -0.076493  0  3.74071  0  0  -0.09213  0  3.976314  0  0  -0.093654  0  3.999347  0  -0.043655  0  -0.088466  -0.091529  0  3.961052  0
C  C95  1  0.74363981  0.73203457  0.55152535  1  0  -0.076658  0  3.740746  0  0  -0.092322  0  3.976397  0  0  -0.093846  0  3.999429  0  -0.04366  0  -0.088553  -0.091717  0  3.961126  0
C  C96  1  0.24395233  0.13074242  0.19344319  1  0  -0.091783  0  3.752675  0  0  -0.052354  0  3.986104  0  0  -0.058347  0  4.012338  0  -0.508569  0  -0.023463  -0.048707  0  3.969775  0
C  C97  1  0.75605072  0.86925790  0.80655382  1  0  -0.091791  0  3.752739  0  0  -0.052366  0  3.986145  0  0  -0.058356  0  4.012376  0  -0.508529  0  -0.023462  -0.048719  0  3.969814  0
C  C98  1  0.19555355  0.17311429  0.08152636  1  0  -0.074738  0  3.732295  0  0  -0.092321  0  3.970432  0  0  -0.093469  0  3.992197  0  -0.018303  0  -0.085139  -0.09218  0  3.957219  0
C  C99  1  0.80444165  0.82689245  0.91846939  1  0  -0.074813  0  3.732451  0  0  -0.092373  0  3.970603  0  0  -0.09351  0  3.992378  0  -0.018542  0  -0.085175  -0.092231  0  3.95739  0
C  C100  1  0.15658418  0.09058959  0.03799429  1  0  -0.064788  0  3.752811  0  0  -0.074715  0  3.995137  0  0  -0.077659  0  4.016864  0  -0.073676  0  -0.089442  -0.072864  0  3.981312  0
C  C101  1  0.84341188  0.90941899  0.96200153  1  0  -0.064704  0  3.752752  0  0  -0.074579  0  3.995071  0  0  -0.077523  0  4.016794  0  -0.073546  0  -0.089393  -0.07273  0  3.981245  0
C  C102  1  0.16588246  0.96510416  0.10558875  1  0  -0.053133  0  3.740928  0  0  -0.066572  0  3.981966  0  0  -0.066524  0  4.00217  0  -0.110895  0  -0.085496  -0.065924  0  3.967946  0
C  C103  1  0.83411480  0.03490258  0.89440299  1  0  -0.053253  0  3.741128  0  0  -0.066699  0  3.982196  0  0  -0.066651  0  4.002396  0  -0.111227  0  -0.085564  -0.066051  0  3.968171  0
C  C104  1  0.21306762  0.92240375  0.21734007  1  0  -0.083163  0  3.781162  0  0  -0.093137  0  4.027234  0  0  -0.09656  0  4.050329  0  -0.031121  0  -0.09426  -0.091021  0  4.011169  0
C  C105  1  0.78693206  0.07759932  0.78265293  1  0  -0.083126  0  3.781207  0  0  -0.093166  0  4.027294  0  0  -0.09659  0  4.050389  0  -0.030678  0  -0.094283  -0.091049  0  4.011226  0
C  C106  1  0.25126188  0.00449222  0.26166124  1  0  -0.073222  0  3.741493  0  0  -0.094758  0  3.987894  0  0  -0.095612  0  4.009747  0  -0.078534  0  -0.083795  -0.093754  0  3.973305  0
C  C107  1  0.74873798  0.99550901  0.73833478  1  0  -0.073278  0  3.741436  0  0  -0.094793  0  3.987826  0  0  -0.095658  0  4.009694  0  -0.07876  0  -0.083796  -0.093788  0  3.973234  0
C  C108  1  0.89005519  0.53744114  0.27265783  1  0  0.591228  0  3.656814  0  0  0.519255  0  4.030163  0  0  0.548142  0  4.001415  0  1.624966  0  0.289091  0.498753  0  4.050339  0
C  C109  1  0.10994735  0.46255367  0.72734908  1  0  0.591553  0  3.656691  0  0  0.519332  0  4.030424  0  0  0.548365  0  4.001432  0  1.624789  0  0.289203  0.498878  0  4.050528  0
Se  Se110  1  0.56144193  0.37110143  0.94420423  1  0  0.116334  0  2.542463  0  0  0.128838  0  2.97301  0  0  0.1254  0  2.961766  0  0.305913  0  0.127891  0.131657  0  2.981522  0
Se  Se111  1  0.43856474  0.62889338  0.05579543  1  0  0.116267  0  2.542503  0  0  0.128808  0  2.973018  0  0  0.125371  0  2.961769  0  0.306033  0  0.127939  0.131623  0  2.98153  0
S  S112  1  0.92713574  0.49236660  0.14863232  1  0  1.128575  0  5.789459  0  0  1.021704  0  6.320199  0  0  1.065805  0  6.30066  0  3.292764  0  0.491461  0.991928  0  6.332043  0
S  S113  1  0.07286335  0.50763189  0.85137181  1  0  1.128383  0  5.789643  0  0  1.02155  0  6.32042  0  0  1.06562  0  6.300865  0  3.292069  0  0.491459  0.991778  0  6.332244  0
O  O114  1  0.04032119  0.56753397  0.08823308  1  0  -0.597022  0  2.036185  0  0  -0.547098  0  2.30326  0  0  -0.56638  0  2.28884  0  -1.313451  0  -0.336903  -0.533567  0  2.313063  0
O  O115  1  0.95967884  0.43246543  0.91177537  1  0  -0.596963  0  2.036191  0  0  -0.547001  0  2.303224  0  0  -0.566285  0  2.288806  0  -1.313389  0  -0.336864  -0.533472  0  2.313022  0
O  O116  1  0.96390620  0.36121212  0.19887610  1  0  -0.578253  0  2.031821  0  0  -0.541101  0  2.289539  0  0  -0.560607  0  2.280682  0  -1.32191  0  -0.313279  -0.527762  0  2.295387  0
O  O117  1  0.03609297  0.63878544  0.80112366  1  0  -0.578124  0  2.031794  0  0  -0.541051  0  2.289584  0  0  -0.56056  0  2.280737  0  -1.321966  0  -0.313269  -0.527711  0  2.295426  0
O  O118  1  0.79282485  0.53067298  0.09181273  1  0  -0.606112  0  2.101758  0  0  -0.553997  0  2.385268  0  0  -0.574013  0  2.37048  0  -1.314276  0  -0.345826  -0.54024  0  2.395497  0
O  O119  1  0.20717536  0.46932458  0.90819169  1  0  -0.606175  0  2.101915  0  0  -0.554032  0  2.385401  0  0  -0.574057  0  2.370634  0  -1.313667  0  -0.345889  -0.540275  0  2.39563  0
F  F120  1  0.99736195  0.50127487  0.34602407  1  0  -0.229181  0  1.21432  0  0  -0.182033  0  1.380646  0  0  -0.193339  0  1.36786  0  -0.624692  0  -0.085956  -0.173653  0  1.389531  0
F  F121  1  0.00264378  0.49871903  0.65397990  1  0  -0.229312  0  1.21433  0  0  -0.182016  0  1.380665  0  0  -0.193438  0  1.367894  0  -0.624555  0  -0.086032  -0.173729  0  1.389613  0
F  F122  1  0.86668968  0.66211287  0.23534794  1  0  -0.226152  0  1.180681  0  0  -0.188124  0  1.354754  0  0  -0.197363  0  1.339215  0  -0.618065  0  -0.089795  -0.180955  0  1.36519  0
F  F123  1  0.13330993  0.33788011  0.76466213  1  0  -0.226242  0  1.180662  0  0  -0.188191  0  1.354836  0  0  -0.197455  0  1.33924  0  -0.618214  0  -0.089874  -0.181016  0  1.365252  0
F  F124  1  0.77530529  0.48748526  0.33293531  1  0  -0.232131  0  1.20788  0  0  -0.181909  0  1.370342  0  0  -0.195902  0  1.360963  0  -0.620977  0  -0.086262  -0.174448  0  1.379804  0
F  F125  1  0.22469976  0.51250496  0.66707397  1  0  -0.23218  0  1.2078  0  0  -0.181877  0  1.370314  0  0  -0.195848  0  1.360844  0  -0.62073  0  -0.086213  -0.17441  0  1.379755  0
