# generated using pymatgen
data_CdH12C17NO5
_symmetry_space_group_name_H-M   'P 1'
_cell_length_a   9.98180028
_cell_length_b   10.96786179
_cell_length_c   15.44593191
_cell_angle_alpha   95.47234322
_cell_angle_beta   89.98388744
_cell_angle_gamma   117.06532160
_symmetry_Int_Tables_number   1
_chemical_formula_structural   CdH12C17NO5
_chemical_formula_sum   'Cd4 H48 C68 N4 O20'
_cell_volume   1497.18374549
_cell_formula_units_Z   4
loop_
 _symmetry_equiv_pos_site_id
 _symmetry_equiv_pos_as_xyz
  1  'x, y, z'
loop_
 _atom_site_type_symbol
 _atom_site_label
 _atom_site_symmetry_multiplicity
 _atom_site_fract_x
 _atom_site_fract_y
 _atom_site_fract_z
 _atom_site_occupancy
 _atom_site_hle17_bader_spin_density
 _atom_site_hle17_ddec_charge
 _atom_site_hle17_ddec_spin_density
 _atom_site_hle17_ddec_sum_bond_order
 _atom_site_hle17_magmom
 _atom_site_hse06_10hf_bader_spin_density
 _atom_site_hse06_10hf_ddec_charge
 _atom_site_hse06_10hf_ddec_spin_density
 _atom_site_hse06_10hf_ddec_sum_bond_order
 _atom_site_hse06_10hf_magmom
 _atom_site_hse06_bader_spin_density
 _atom_site_hse06_ddec_charge
 _atom_site_hse06_ddec_spin_density
 _atom_site_hse06_ddec_sum_bond_order
 _atom_site_hse06_magmom
 _atom_site_pbe_bader_spin_density
 _atom_site_pbe_cm5_charge
 _atom_site_pbe_ddec_charge
 _atom_site_pbe_ddec_spin_density
 _atom_site_pbe_ddec_sum_bond_order
 _atom_site_pbe_magmom
Cd  Cd0  1  0.96297293  0.04300959  0.37876073  1  0  1.191464  0  1.618689  0  0  1.004837  0  2.064917  0  0  1.0637  0  2.00749  0  0  0.785815  0.962764  0  2.104761  0
Cd  Cd1  1  0.91984688  0.95696601  0.12117401  1  0  1.191789  0  1.616662  0  0  1.005268  0  2.062854  0  0  1.064219  0  2.005393  0  0  0.78553  0.963156  0  2.102706  0
Cd  Cd2  1  0.03702868  0.95699272  0.62123938  1  0  1.191465  0  1.618722  0  0  1.004843  0  2.064955  0  0  1.063706  0  2.007528  0  0  0.785812  0.96277  0  2.104799  0
Cd  Cd3  1  0.08015370  0.04303423  0.87882661  1  0  1.191823  0  1.61664  0  0  1.005301  0  2.062832  0  0  1.06425  0  2.005371  0  0  0.785542  0.963189  0  2.102685  0
H  H4  1  0.09564636  0.60558586  0.48201477  1  0  0.099408  0  0.959476  0  0  0.107332  0  1.026341  0  0  0.110598  0  1.024393  0  0  0.104117  0.10493  0  1.027869  0
H  H5  1  0.49010727  0.39462515  0.01801475  1  0  0.09891  0  0.960496  0  0  0.107563  0  1.02654  0  0  0.110832  0  1.0246  0  0  0.104413  0.105152  0  1.028058  0
H  H6  1  0.90435370  0.39441336  0.51798448  1  0  0.099504  0  0.959395  0  0  0.107397  0  1.026289  0  0  0.110662  0  1.024341  0  0  0.104156  0.104994  0  1.027817  0
H  H7  1  0.50989230  0.60537510  0.98198523  1  0  0.098946  0  0.960495  0  0  0.107594  0  1.026532  0  0  0.110863  0  1.024593  0  0  0.10443  0.105185  0  1.028049  0
H  H8  1  0.11154687  0.42600590  0.37920424  1  0  0.107086  0  0.952943  0  0  0.116615  0  1.013167  0  0  0.119764  0  1.011619  0  0  0.103812  0.114334  0  1.01428  0
H  H9  1  0.68561829  0.57409640  0.12079548  1  0  0.106537  0  0.95311  0  0  0.11594  0  1.013615  0  0  0.119141  0  1.012014  0  0  0.103444  0.113629  0  1.014761  0
H  H10  1  0.88845220  0.57399332  0.62079631  1  0  0.10707  0  0.95297  0  0  0.116598  0  1.013195  0  0  0.119747  0  1.011646  0  0  0.103809  0.114318  0  1.014307  0
H  H11  1  0.31438129  0.42590385  0.87920449  1  0  0.106513  0  0.953178  0  0  0.115938  0  1.013649  0  0  0.11914  0  1.012043  0  0  0.103432  0.113627  0  1.014795  0
H  H12  1  0.06331570  0.42129455  0.21878784  1  0  0.096085  0  0.960568  0  0  0.105124  0  1.023277  0  0  0.107755  0  1.022638  0  0  0.09978  0.10304  0  1.024178  0
H  H13  1  0.64212430  0.57865707  0.28125010  1  0  0.096907  0  0.958984  0  0  0.105683  0  1.022042  0  0  0.108337  0  1.021346  0  0  0.100134  0.103584  0  1.022949  0
H  H14  1  0.93668387  0.57870570  0.78121278  1  0  0.09607  0  0.960572  0  0  0.105117  0  1.023278  0  0  0.10775  0  1.022634  0  0  0.099768  0.103032  0  1.024181  0
H  H15  1  0.35787528  0.42134318  0.71874923  1  0  0.096931  0  0.959001  0  0  0.105711  0  1.022045  0  0  0.108366  0  1.02135  0  0  0.10015  0.103615  0  1.022943  0
H  H16  1  0.99856452  0.59599039  0.16646160  1  0  0.097015  0  0.984328  0  0  0.104496  0  1.0504  0  0  0.106599  0  1.051193  0  0  0.100993  0.102985  0  1.049779  0
H  H17  1  0.40264074  0.40400525  0.33359199  1  0  0.097185  0  0.983558  0  0  0.104506  0  1.049808  0  0  0.106622  0  1.050601  0  0  0.101156  0.102986  0  1.049183  0
H  H18  1  0.00143506  0.40400986  0.83353902  1  0  0.097021  0  0.984321  0  0  0.104512  0  1.050381  0  0  0.106616  0  1.051175  0  0  0.100991  0.103001  0  1.04976  0
H  H19  1  0.59735936  0.59599603  0.66640806  1  0  0.097164  0  0.98357  0  0  0.104477  0  1.049834  0  0  0.106593  0  1.050624  0  0  0.101151  0.102957  0  1.049209  0
H  H20  1  0.65305736  0.79992902  0.30344515  1  0  0.090404  0  0.983058  0  0  0.097553  0  1.05064  0  0  0.099805  0  1.048521  0  0  0.114578  0.095549  0  1.052985  0
H  H21  1  0.85285906  0.19996555  0.19646258  1  0  0.090836  0  0.98245  0  0  0.098078  0  1.049811  0  0  0.100293  0  1.04778  0  0  0.114679  0.096119  0  1.052086  0
H  H22  1  0.34694422  0.20007123  0.69655482  1  0  0.090428  0  0.983043  0  0  0.097576  0  1.050627  0  0  0.099829  0  1.048507  0  0  0.114588  0.095573  0  1.052969  0
H  H23  1  0.14714206  0.80003778  0.80353760  1  0  0.090806  0  0.982478  0  0  0.098054  0  1.049826  0  0  0.100268  0  1.047795  0  0  0.114656  0.096095  0  1.052102  0
H  H24  1  0.37693430  0.73297979  0.29068865  1  0  0.107968  0  0.942979  0  0  0.120239  0  0.996503  0  0  0.122231  0  0.997788  0  0  0.111011  0.118685  0  0.995859  0
H  H25  1  0.64380412  0.26707512  0.20923190  1  0  0.107741  0  0.943145  0  0  0.120143  0  0.99661  0  0  0.122087  0  0.997965  0  0  0.110709  0.118618  0  0.995928  0
H  H26  1  0.62306576  0.26701943  0.70931125  1  0  0.107936  0  0.942968  0  0  0.120204  0  0.996501  0  0  0.122195  0  0.997788  0  0  0.111003  0.118654  0  0.995859  0
H  H27  1  0.35619598  0.73292616  0.79076879  1  0  0.107698  0  0.943168  0  0  0.120111  0  0.996624  0  0  0.122054  0  0.997979  0  0  0.110705  0.118604  0  0.995923  0
H  H28  1  0.29066948  0.90633836  0.34917972  1  0  0.106136  0  0.9624  0  0  0.115212  0  1.024482  0  0  0.117297  0  1.023769  0  0  0.108082  0.113588  0  1.025236  0
H  H29  1  0.38413189  0.09375976  0.15084700  1  0  0.10587  0  0.962968  0  0  0.115313  0  1.024671  0  0  0.117385  0  1.02396  0  0  0.107994  0.113742  0  1.025373  0
H  H30  1  0.70933108  0.09365983  0.65082076  1  0  0.106145  0  0.962374  0  0  0.115239  0  1.024437  0  0  0.117298  0  1.023757  0  0  0.108093  0.113615  0  1.025192  0
H  H31  1  0.61586921  0.90624152  0.84915239  1  0  0.105881  0  0.962975  0  0  0.115315  0  1.024684  0  0  0.117387  0  1.023974  0  0  0.107986  0.113744  0  1.025386  0
H  H32  1  0.75217673  0.18643811  0.42605213  1  0  0.090622  0  0.958353  0  0  0.096443  0  1.027874  0  0  0.098746  0  1.025814  0  0  0.116978  0.09477  0  1.029163  0
H  H33  1  0.56544035  0.81353131  0.07381303  1  0  0.089751  0  0.9584  0  0  0.095541  0  1.028139  0  0  0.09789  0  1.026007  0  0  0.116807  0.09384  0  1.029449  0
H  H34  1  0.24782233  0.81356111  0.57394713  1  0  0.090643  0  0.958309  0  0  0.096461  0  1.027838  0  0  0.098765  0  1.025777  0  0  0.11699  0.09479  0  1.029127  0
H  H35  1  0.43456327  0.18647100  0.92618708  1  0  0.089751  0  0.958436  0  0  0.09553  0  1.028181  0  0  0.097877  0  1.026048  0  0  0.116801  0.093829  0  1.029492  0
H  H36  1  0.37366050  0.15713915  0.38528988  1  0  0.086901  0  0.951218  0  0  0.09911  0  1.015107  0  0  0.100093  0  1.013666  0  0  0.10813  0.098353  0  1.016346  0
H  H37  1  0.21630271  0.84281725  0.11480676  1  0  0.087151  0  0.951198  0  0  0.099045  0  1.01516  0  0  0.099979  0  1.013681  0  0  0.108133  0.098324  0  1.016378  0
H  H38  1  0.62634005  0.84285904  0.61470931  1  0  0.0869  0  0.951221  0  0  0.099129  0  1.015102  0  0  0.100106  0  1.01366  0  0  0.108122  0.098372  0  1.016341  0
H  H39  1  0.78369790  0.15718506  0.88519335  1  0  0.08718  0  0.951226  0  0  0.099053  0  1.015172  0  0  0.09999  0  1.013694  0  0  0.108139  0.098332  0  1.016393  0
H  H40  1  0.39924440  0.11809707  0.49086854  1  0  0.060015  0  0.953682  0  0  0.071559  0  1.023984  0  0  0.070379  0  1.026177  0  0  0.099523  0.072249  0  1.023017  0
H  H41  1  0.28091640  0.88176599  0.00919544  1  0  0.06043  0  0.95383  0  0  0.071652  0  1.024054  0  0  0.070461  0  1.026135  0  0  0.099628  0.072354  0  1.023131  0
H  H42  1  0.60075415  0.88190112  0.50913064  1  0  0.060024  0  0.953657  0  0  0.07158  0  1.023951  0  0  0.070394  0  1.02614  0  0  0.099523  0.07227  0  1.022987  0
H  H43  1  0.71908570  0.11823529  0.99080395  1  0  0.060436  0  0.953888  0  0  0.071634  0  1.024097  0  0  0.070445  0  1.026181  0  0  0.099619  0.072337  0  1.023174  0
H  H44  1  0.75823284  0.54951408  0.45777947  1  0  0.112038  0  0.961341  0  0  0.120665  0  1.024433  0  0  0.123595  0  1.023554  0  0  0.10204  0.118795  0  1.024854  0
H  H45  1  0.20859219  0.45041011  0.04227563  1  0  0.111193  0  0.961632  0  0  0.119538  0  1.025255  0  0  0.122553  0  1.024275  0  0  0.101908  0.117617  0  1.025733  0
H  H46  1  0.24176619  0.45048308  0.54221835  1  0  0.112065  0  0.961268  0  0  0.120663  0  1.024407  0  0  0.123593  0  1.023527  0  0  0.102036  0.118793  0  1.024827  0
H  H47  1  0.79140787  0.54958910  0.95772492  1  0  0.111171  0  0.961702  0  0  0.119531  0  1.025306  0  0  0.122546  0  1.024327  0  0  0.101898  0.11761  0  1.025784  0
H  H48  1  0.29997918  0.25877779  0.49983968  1  0  0.110234  0  0.961848  0  0  0.12012  0  1.0251  0  0  0.123192  0  1.023402  0  0  0.103194  0.11787  0  1.026827  0
H  H49  1  0.04121758  0.74123128  0.00019117  1  0  0.109648  0  0.962496  0  0  0.119584  0  1.025645  0  0  0.12263  0  1.024001  0  0  0.103217  0.117339  0  1.027364  0
H  H50  1  0.70002037  0.74122040  0.50015756  1  0  0.110235  0  0.961908  0  0  0.12012  0  1.025151  0  0  0.123191  0  1.023453  0  0  0.1032  0.11787  0  1.026878  0
H  H51  1  0.95878148  0.25876793  0.99981068  1  0  0.109651  0  0.962522  0  0  0.119593  0  1.025661  0  0  0.12264  0  1.024016  0  0  0.103221  0.117349  0  1.027381  0
C  C52  1  0.03558875  0.80819963  0.45249548  1  0  0.654509  0  3.897934  0  0  0.600344  0  4.193339  0  0  0.636079  0  4.18535  0  0  0.207308  0.575881  0  4.197944  0
C  C53  1  0.22753979  0.19190333  0.04754170  1  0  0.653395  0  3.897877  0  0  0.598912  0  4.194026  0  0  0.634588  0  4.186069  0  0  0.206579  0.574475  0  4.198618  0
C  C54  1  0.96441134  0.19180164  0.54750521  1  0  0.654569  0  3.897761  0  0  0.600379  0  4.193195  0  0  0.636114  0  4.185204  0  0  0.207315  0.575916  0  4.1978  0
C  C55  1  0.77246030  0.80809795  0.95245834  1  0  0.653459  0  3.897964  0  0  0.59897  0  4.194096  0  0  0.634647  0  4.186138  0  0  0.206614  0.574533  0  4.198689  0
C  C56  1  0.03565460  0.70079932  0.38401038  1  0  -0.077841  0  3.717915  0  0  -0.060791  0  3.949563  0  0  -0.066583  0  3.970795  0  0  -0.012976  -0.057038  0  3.935261  0
C  C57  1  0.33492940  0.29934549  0.11602574  1  0  -0.076469  0  3.716445  0  0  -0.05948  0  3.948701  0  0  -0.06516  0  3.969801  0  0  -0.012222  -0.055747  0  3.934458  0
C  C58  1  0.96434249  0.29920196  0.61598967  1  0  -0.077875  0  3.717977  0  0  -0.0608  0  3.949589  0  0  -0.06659  0  3.970818  0  0  -0.012984  -0.057044  0  3.935282  0
C  C59  1  0.66507218  0.70065475  0.88397423  1  0  -0.076448  0  3.716463  0  0  -0.059424  0  3.948674  0  0  -0.065103  0  3.969777  0  0  -0.012194  -0.055692  0  3.93443  0
C  C60  1  0.07274068  0.60185874  0.41266367  1  0  -0.072589  0  3.723494  0  0  -0.098262  0  3.977577  0  0  -0.098741  0  3.996736  0  0  -0.083048  -0.097722  0  3.964354  0
C  C61  1  0.47094870  0.39834886  0.08737720  1  0  -0.073313  0  3.724576  0  0  -0.099706  0  3.97904  0  0  -0.100253  0  3.998211  0  0  -0.0835  -0.099132  0  3.96581  0
C  C62  1  0.92725590  0.39814151  0.58733630  1  0  -0.072736  0  3.723543  0  0  -0.098396  0  3.977631  0  0  -0.098875  0  3.996788  0  0  -0.083129  -0.097856  0  3.964408  0
C  C63  1  0.52905088  0.60165139  0.91262277  1  0  -0.073407  0  3.72466  0  0  -0.099812  0  3.979137  0  0  -0.100361  0  3.99831  0  0  -0.083542  -0.09924  0  3.965909  0
C  C64  1  0.08313273  0.50152485  0.35437782  1  0  -0.060473  0  3.735693  0  0  -0.075801  0  3.98763  0  0  -0.076673  0  4.006534  0  0  -0.086441  -0.075091  0  3.974286  0
C  C65  1  0.58166983  0.49862415  0.14565327  1  0  -0.059057  0  3.735009  0  0  -0.074162  0  3.986721  0  0  -0.075056  0  4.005662  0  0  -0.08609  -0.073437  0  3.973346  0
C  C66  1  0.91686585  0.49847540  0.64562151  1  0  -0.060429  0  3.7357  0  0  -0.075756  0  3.987632  0  0  -0.076628  0  4.006537  0  0  -0.086423  -0.075047  0  3.974287  0
C  C67  1  0.41833026  0.50137713  0.85434677  1  0  -0.059017  0  3.73507  0  0  -0.07413  0  3.986759  0  0  -0.075022  0  4.005699  0  0  -0.086077  -0.073405  0  3.973384  0
C  C68  1  0.05599346  0.49897563  0.26540815  1  0  -0.063303  0  3.75095  0  0  -0.075975  0  3.998536  0  0  -0.077299  0  4.017985  0  0  -0.08766  -0.075084  0  3.985543  0
C  C69  1  0.55710836  0.50104987  0.23463736  1  0  -0.064431  0  3.748318  0  0  -0.076919  0  3.996055  0  0  -0.078237  0  4.015494  0  0  -0.088007  -0.076016  0  3.983065  0
C  C70  1  0.94400509  0.50102255  0.73459169  1  0  -0.063263  0  3.750944  0  0  -0.075944  0  3.998525  0  0  -0.077268  0  4.017976  0  0  -0.087632  -0.075052  0  3.985531  0
C  C71  1  0.44289121  0.49895038  0.76536197  1  0  -0.064452  0  3.748341  0  0  -0.076945  0  3.996077  0  0  -0.078266  0  4.015517  0  0  -0.088019  -0.076041  0  3.983089  0
C  C72  1  0.02040066  0.59739793  0.23573605  1  0  -0.070807  0  3.722305  0  0  -0.09275  0  3.965016  0  0  -0.093116  0  3.985269  0  0  -0.083292  -0.092372  0  3.951495  0
C  C73  1  0.42304851  0.40263981  0.26431078  1  0  -0.071043  0  3.719798  0  0  -0.092775  0  3.962801  0  0  -0.093163  0  3.98305  0  0  -0.083526  -0.092365  0  3.949313  0
C  C74  1  0.97959840  0.40260129  0.76426450  1  0  -0.070824  0  3.722273  0  0  -0.092778  0  3.964982  0  0  -0.093146  0  3.985237  0  0  -0.083305  -0.092399  0  3.951461  0
C  C75  1  0.57695007  0.59736044  0.73568854  1  0  -0.071021  0  3.719764  0  0  -0.092755  0  3.962785  0  0  -0.093137  0  3.983028  0  0  -0.083531  -0.092347  0  3.949297  0
C  C76  1  0.01027363  0.69886691  0.29380448  1  0  -0.073172  0  3.71614  0  0  -0.05553  0  3.945972  0  0  -0.061521  0  3.967121  0  0  -0.012861  -0.051771  0  3.931875  0
C  C77  1  0.31144761  0.30121814  0.20625207  1  0  -0.072192  0  3.714705  0  0  -0.054806  0  3.945051  0  0  -0.060785  0  3.966081  0  0  -0.01224  -0.05114  0  3.931145  0
C  C78  1  0.98972492  0.30113128  0.70619535  1  0  -0.073134  0  3.716121  0  0  -0.055492  0  3.945949  0  0  -0.061482  0  3.967096  0  0  -0.012835  -0.051734  0  3.931851  0
C  C79  1  0.68855248  0.69878314  0.79374862  1  0  -0.07224  0  3.714665  0  0  -0.054856  0  3.945032  0  0  -0.06084  0  3.966068  0  0  -0.012264  -0.051187  0  3.931121  0
C  C80  1  0.96589524  0.79679946  0.25568791  1  0  0.665433  0  3.902555  0  0  0.609768  0  4.198764  0  0  0.645764  0  4.190152  0  0  0.20908  0.585425  0  4.203631  0
C  C81  1  0.16922195  0.20314854  0.24442929  1  0  0.665567  0  3.900173  0  0  0.609804  0  4.196252  0  0  0.645816  0  4.18756  0  0  0.208464  0.585466  0  4.20117  0
C  C82  1  0.03410734  0.20320078  0.74431271  1  0  0.665357  0  3.902664  0  0  0.609675  0  4.198898  0  0  0.645671  0  4.190288  0  0  0.209028  0.585332  0  4.203762  0
C  C83  1  0.83077814  0.79685274  0.75557075  1  0  0.6657  0  3.900005  0  0  0.609909  0  4.196127  0  0  0.645923  0  4.187434  0  0  0.208515  0.585571  0  4.201044  0
C  C84  1  0.60928048  0.87020623  0.32819466  1  0  0.113536  0  3.709801  0  0  0.077577  0  3.964909  0  0  0.084377  0  3.984337  0  0  0.038181  0.072526  0  3.953271  0
C  C85  1  0.73881254  0.12973409  0.17169165  1  0  0.113006  0  3.711727  0  0  0.0768  0  3.967196  0  0  0.083594  0  3.986603  0  0  0.037725  0.071574  0  3.955877  0
C  C86  1  0.39072059  0.12979299  0.67180524  1  0  0.113522  0  3.709783  0  0  0.077567  0  3.964888  0  0  0.084368  0  3.984317  0  0  0.038199  0.072515  0  3.953254  0
C  C87  1  0.26118807  0.87026821  0.82830911  1  0  0.113024  0  3.711716  0  0  0.076824  0  3.96716  0  0  0.083618  0  3.986568  0  0  0.037734  0.071605  0  3.955834  0
C  C88  1  0.45647826  0.83421604  0.32145928  1  0  -0.099945  0  3.732678  0  0  -0.109452  0  3.980058  0  0  -0.115812  0  4.00225  0  0  -0.078497  -0.105391  0  3.965769  0
C  C89  1  0.62205887  0.16581586  0.17845511  1  0  -0.098852  0  3.731277  0  0  -0.108466  0  3.978919  0  0  -0.114797  0  4.001137  0  0  -0.077136  -0.104381  0  3.964596  0
C  C90  1  0.54352229  0.16578215  0.67854185  1  0  -0.099875  0  3.732666  0  0  -0.109389  0  3.980072  0  0  -0.115749  0  4.002259  0  0  -0.078491  -0.105336  0  3.96579  0
C  C91  1  0.37794022  0.83418542  0.82154558  1  0  -0.098793  0  3.731261  0  0  -0.108414  0  3.978913  0  0  -0.114744  0  4.001132  0  0  -0.077132  -0.104347  0  3.964586  0
C  C92  1  0.40897336  0.92976923  0.35400379  1  0  -0.045942  0  3.671619  0  0  -0.070824  0  3.915279  0  0  -0.06883  0  3.934926  0  0  -0.062678  -0.072219  0  3.902395  0
C  C93  1  0.47897268  0.07029632  0.14597873  1  0  -0.045351  0  3.670855  0  0  -0.07058  0  3.914895  0  0  -0.068553  0  3.93456  0  0  -0.062757  -0.072004  0  3.901925  0
C  C94  1  0.59102670  0.07022998  0.64599676  1  0  -0.046015  0  3.671648  0  0  -0.070907  0  3.915311  0  0  -0.068896  0  3.934974  0  0  -0.062696  -0.072303  0  3.90243  0
C  C95  1  0.52102741  0.92970496  0.85402196  1  0  -0.045447  0  3.670961  0  0  -0.070657  0  3.915017  0  0  -0.06863  0  3.934679  0  0  -0.062783  -0.072086  0  3.902061  0
C  C96  1  0.51444341  0.05847244  0.39361176  1  0  0.031918  0  3.735053  0  0  0.054241  0  3.975075  0  0  0.049619  0  3.998632  0  0  -0.002006  0.057002  0  3.959812  0
C  C97  1  0.45572163  0.94155980  0.10638953  1  0  0.030485  0  3.735362  0  0  0.0523  0  3.975724  0  0  0.047605  0  3.999231  0  0  -0.003053  0.05509  0  3.960493  0
C  C98  1  0.48555765  0.94152678  0.60638879  1  0  0.031999  0  3.735005  0  0  0.054349  0  3.975018  0  0  0.049726  0  3.998559  0  0  -0.001981  0.057109  0  3.959754  0
C  C99  1  0.54427895  0.05844045  0.89360980  1  0  0.030617  0  3.735255  0  0  0.05234  0  3.975652  0  0  0.047646  0  3.999165  0  0  -0.003052  0.055129  0  3.960421  0
C  C100  1  0.66549529  0.08705118  0.39730159  1  0  0.070673  0  3.683433  0  0  0.028035  0  3.939151  0  0  0.035062  0  3.957377  0  0  0.038321  0.023717  0  3.926567  0
C  C101  1  0.57816985  0.91292957  0.10257557  1  0  0.073407  0  3.680704  0  0  0.031451  0  3.935335  0  0  0.038441  0  3.953602  0  0  0.038793  0.027182  0  3.922714  0
C  C102  1  0.33450630  0.91294907  0.60269838  1  0  0.070583  0  3.683384  0  0  0.027934  0  3.939122  0  0  0.03496  0  3.957351  0  0  0.038264  0.023618  0  3.926534  0
C  C103  1  0.42183176  0.08707274  0.89742454  1  0  0.073364  0  3.680601  0  0  0.031456  0  3.935209  0  0  0.038451  0  3.953471  0  0  0.038797  0.027187  0  3.922588  0
C  C104  1  0.45768928  0.15608684  0.43112701  1  0  0.041107  0  3.668658  0  0  -0.020318  0  3.926569  0  0  -0.012575  0  3.932411  0  0  -0.06587  -0.026028  0  3.923485  0
C  C105  1  0.30140192  0.84387795  0.06896133  1  0  0.039979  0  3.669398  0  0  -0.020343  0  3.926331  0  0  -0.012334  0  3.931769  0  0  -0.065812  -0.026138  0  3.923384  0
C  C106  1  0.54230975  0.84391032  0.56887340  1  0  0.040988  0  3.668568  0  0  -0.020532  0  3.926613  0  0  -0.012762  0  3.932422  0  0  -0.06598  -0.026244  0  3.923532  0
C  C107  1  0.69859968  0.15612436  0.93103813  1  0  0.039853  0  3.669576  0  0  -0.020306  0  3.926336  0  0  -0.012317  0  3.931791  0  0  -0.065783  -0.026104  0  3.923389  0
C  C108  1  0.53497569  0.39158039  0.47616842  1  0  0.237697  0  3.833873  0  0  0.229184  0  4.095285  0  0  0.238221  0  4.11203  0  0  0.067575  0.223346  0  4.083487  0
C  C109  1  0.14336907  0.60840944  0.02387198  1  0  0.235168  0  3.836544  0  0  0.226955  0  4.097678  0  0  0.235935  0  4.114564  0  0  0.066692  0.221169  0  4.085793  0
C  C110  1  0.46502486  0.60841780  0.52382947  1  0  0.237784  0  3.834086  0  0  0.229283  0  4.095453  0  0  0.238324  0  4.112199  0  0  0.067614  0.223444  0  4.083655  0
C  C111  1  0.85663151  0.39159081  0.97612929  1  0  0.235166  0  3.836576  0  0  0.226966  0  4.09773  0  0  0.235935  0  4.114616  0  0  0.066682  0.221177  0  4.085847  0
C  C112  1  0.64504207  0.52805465  0.47628926  1  0  -0.156851  0  3.762112  0  0  -0.17712  0  4.017472  0  0  -0.180038  0  4.035923  0  0  -0.105652  -0.175032  0  4.004186  0
C  C113  1  0.11691447  0.47192036  0.02374125  1  0  -0.154512  0  3.761092  0  0  -0.174677  0  4.016284  0  0  -0.17765  0  4.03475  0  0  -0.104927  -0.172555  0  4.002971  0
C  C114  1  0.35495848  0.47194354  0.52370798  1  0  -0.156864  0  3.762059  0  0  -0.177131  0  4.017445  0  0  -0.180049  0  4.035894  0  0  -0.105627  -0.175043  0  4.004159  0
C  C115  1  0.88308356  0.52807680  0.97625916  1  0  -0.154476  0  3.761069  0  0  -0.174649  0  4.016254  0  0  -0.177625  0  4.034727  0  0  -0.104908  -0.172528  0  4.002943  0
C  C116  1  0.38901988  0.36362446  0.50025140  1  0  -0.181619  0  3.779066  0  0  -0.202586  0  4.035149  0  0  -0.205494  0  4.054311  0  0  -0.110763  -0.200172  0  4.022428  0
C  C117  1  0.02542126  0.63638393  0.99975918  1  0  -0.181067  0  3.778408  0  0  -0.202255  0  4.034604  0  0  -0.205101  0  4.053713  0  0  -0.11083  -0.19987  0  4.021904  0
C  C118  1  0.61098019  0.63637476  0.49974591  1  0  -0.181592  0  3.779232  0  0  -0.202563  0  4.035291  0  0  -0.205472  0  4.054455  0  0  -0.110723  -0.200149  0  4.022568  0
C  C119  1  0.97457932  0.36361631  0.00024273  1  0  -0.181054  0  3.778588  0  0  -0.202248  0  4.034781  0  0  -0.205095  0  4.053892  0  0  -0.11082  -0.199863  0  4.022082  0
N  N120  1  0.71193125  0.99457770  0.36498274  1  0  -0.356668  0  3.306842  0  0  -0.272132  0  3.579802  0  0  -0.294864  0  3.600681  0  0  -0.33382  -0.256857  0  3.565406  0
N  N121  1  0.71708749  0.00536750  0.13487455  1  0  -0.35838  0  3.307991  0  0  -0.274035  0  3.581257  0  0  -0.296783  0  3.602121  0  0  -0.333479  -0.25873  0  3.566852  0
N  N122  1  0.28806933  0.00542255  0.63501658  1  0  -0.35663  0  3.306842  0  0  -0.272085  0  3.579792  0  0  -0.294818  0  3.600674  0  0  -0.333797  -0.256809  0  3.565395  0
N  N123  1  0.28291512  0.99463481  0.86512556  1  0  -0.358379  0  3.307915  0  0  -0.274044  0  3.581162  0  0  -0.29679  0  3.602023  0  0  -0.33348  -0.25874  0  3.566758  0
O  O124  1  0.98794255  0.76694196  0.52622078  1  0  -0.630114  0  2.010291  0  0  -0.559087  0  2.258414  0  0  -0.589604  0  2.248723  0  0  -0.313719  -0.537578  0  2.264373  0
O  O125  1  0.22117704  0.23312486  0.97380523  1  0  -0.630069  0  2.009973  0  0  -0.558712  0  2.257891  0  0  -0.589324  0  2.248401  0  0  -0.313624  -0.537135  0  2.263704  0
O  O126  1  0.01205654  0.23305932  0.47378056  1  0  -0.630119  0  2.010265  0  0  -0.559071  0  2.258391  0  0  -0.589587  0  2.248697  0  0  -0.313705  -0.537564  0  2.264352  0
O  O127  1  0.77882354  0.76687539  0.02619474  1  0  -0.630078  0  2.010004  0  0  -0.558726  0  2.257921  0  0  -0.589337  0  2.248428  0  0  -0.313642  -0.537149  0  2.263735  0
O  O128  1  0.09030774  0.93419273  0.43806685  1  0  -0.680793  0  2.030358  0  0  -0.614247  0  2.294059  0  0  -0.642813  0  2.280205  0  0  -0.339552  -0.593685  0  2.302858  0
O  O129  1  0.15624759  0.06592017  0.06200294  1  0  -0.68064  0  2.029799  0  0  -0.613984  0  2.293551  0  0  -0.642614  0  2.279864  0  0  -0.339565  -0.593418  0  2.302323  0
O  O130  1  0.90969284  0.06580752  0.56193312  1  0  -0.680819  0  2.0303  0  0  -0.61427  0  2.294005  0  0  -0.642834  0  2.280146  0  0  -0.339559  -0.593709  0  2.30281  0
O  O131  1  0.84375199  0.93408008  0.93799703  1  0  -0.680661  0  2.029859  0  0  -0.614011  0  2.293616  0  0  -0.642637  0  2.279921  0  0  -0.339566  -0.593443  0  2.302388  0
O  O132  1  0.87368638  0.83121033  0.29450842  1  0  -0.69089  0  2.077705  0  0  -0.62403  0  2.34075  0  0  -0.652538  0  2.326832  0  0  -0.33852  -0.603448  0  2.349736  0
O  O133  1  0.04248910  0.16850680  0.20569322  1  0  -0.69163  0  2.075531  0  0  -0.624833  0  2.338766  0  0  -0.653287  0  2.324623  0  0  -0.338544  -0.604248  0  2.347844  0
O  O134  1  0.12631572  0.16879095  0.70549227  1  0  -0.690865  0  2.077748  0  0  -0.624006  0  2.340805  0  0  -0.652512  0  2.326888  0  0  -0.33851  -0.603424  0  2.34979  0
O  O135  1  0.95751047  0.83149344  0.79430740  1  0  -0.691711  0  2.075473  0  0  -0.624895  0  2.338708  0  0  -0.653349  0  2.324561  0  0  -0.338575  -0.604316  0  2.347799  0
O  O136  1  0.01954599  0.83652788  0.18280268  1  0  -0.614518  0  2.023506  0  0  -0.542186  0  2.272382  0  0  -0.572257  0  2.261561  0  0  -0.310319  -0.521404  0  2.279223  0
O  O137  1  0.18328468  0.16355282  0.31731874  1  0  -0.615051  0  2.024096  0  0  -0.542187  0  2.272507  0  0  -0.572265  0  2.261692  0  0  -0.310077  -0.52139  0  2.279332  0
O  O138  1  0.98045660  0.16347237  0.81719794  1  0  -0.61451  0  2.023538  0  0  -0.54218  0  2.272451  0  0  -0.572252  0  2.261632  0  0  -0.310307  -0.521397  0  2.279291  0
O  O139  1  0.81671641  0.83644846  0.68268066  1  0  -0.61509  0  2.024093  0  0  -0.542218  0  2.272504  0  0  -0.572296  0  2.261689  0  0  -0.310085  -0.52142  0  2.27933  0
O  O140  1  0.57865479  0.29172235  0.45012751  1  0  -0.294512  0  2.30785  0  0  -0.227355  0  2.543939  0  0  -0.244141  0  2.546135  0  0  -0.190948  -0.214892  0  2.541985  0
O  O141  1  0.28684713  0.70825857  0.04997171  1  0  -0.293167  0  2.309613  0  0  -0.226221  0  2.545263  0  0  -0.243084  0  2.54744  0  0  -0.190563  -0.213787  0  2.543348  0
O  O142  1  0.42134421  0.70827275  0.54987211  1  0  -0.294474  0  2.307837  0  0  -0.227264  0  2.543899  0  0  -0.244065  0  2.546096  0  0  -0.190869  -0.214802  0  2.541945  0
O  O143  1  0.71315244  0.29174167  0.95002827  1  0  -0.293087  0  2.309669  0  0  -0.226226  0  2.545316  0  0  -0.243061  0  2.547484  0  0  -0.190534  -0.213785  0  2.543398  0
