# generated using pymatgen
data_CdH16C20(NO2)2
_symmetry_space_group_name_H-M   'P 1'
_cell_length_a   9.16093717
_cell_length_b   9.65778283
_cell_length_c   11.31102858
_cell_angle_alpha   93.03123683
_cell_angle_beta   110.98329135
_cell_angle_gamma   110.49410692
_symmetry_Int_Tables_number   1
_chemical_formula_structural   CdH16C20(NO2)2
_chemical_formula_sum   'Cd2 H32 C40 N4 O8'
_cell_volume   856.86237017
_cell_formula_units_Z   2
loop_
 _symmetry_equiv_pos_site_id
 _symmetry_equiv_pos_as_xyz
  1  'x, y, z'
loop_
 _atom_site_type_symbol
 _atom_site_label
 _atom_site_symmetry_multiplicity
 _atom_site_fract_x
 _atom_site_fract_y
 _atom_site_fract_z
 _atom_site_occupancy
 _atom_site_hle17_bader_spin_density
 _atom_site_hle17_ddec_charge
 _atom_site_hle17_ddec_spin_density
 _atom_site_hle17_ddec_sum_bond_order
 _atom_site_hle17_magmom
 _atom_site_hse06_10hf_bader_spin_density
 _atom_site_hse06_10hf_ddec_charge
 _atom_site_hse06_10hf_ddec_spin_density
 _atom_site_hse06_10hf_ddec_sum_bond_order
 _atom_site_hse06_10hf_magmom
 _atom_site_hse06_bader_spin_density
 _atom_site_hse06_ddec_charge
 _atom_site_hse06_ddec_spin_density
 _atom_site_hse06_ddec_sum_bond_order
 _atom_site_hse06_magmom
 _atom_site_pbe_bader_spin_density
 _atom_site_pbe_cm5_charge
 _atom_site_pbe_ddec_charge
 _atom_site_pbe_ddec_spin_density
 _atom_site_pbe_ddec_sum_bond_order
 _atom_site_pbe_magmom
Cd  Cd0  1  0.50104987  0.17103617  0.10292651  1  0  1.106031  0  1.679651  0  0  0.909889  0  2.122599  0  0  0.971734  0  2.070206  0  0  0.765948  0.866183  0  2.15887  0
Cd  Cd1  1  0.49895082  0.82896475  0.89707186  1  0  1.105971  0  1.67973  0  0  0.909811  0  2.12268  0  0  0.97166  0  2.070288  0  0  0.765913  0.866108  0  2.158949  0
H  H2  1  0.10276461  0.25239593  0.23792256  1  0  0.107048  0  0.928286  0  0  0.123867  0  0.986415  0  0  0.125671  0  0.986368  0  0  0.1008  0.122714  0  0.986543  0
H  H3  1  0.89723390  0.74760273  0.76207508  1  0  0.107049  0  0.928285  0  0  0.123871  0  0.986432  0  0  0.125674  0  0.986386  0  0  0.100799  0.122719  0  0.986558  0
H  H4  1  0.26515670  0.28702077  0.39223790  1  0  0.098587  0  0.939264  0  0  0.114  0  1.003707  0  0  0.116243  0  1.002873  0  0  0.097289  0.11242  0  1.004859  0
H  H5  1  0.73484082  0.71297562  0.60776023  1  0  0.098591  0  0.939276  0  0  0.114014  0  1.00372  0  0  0.116261  0  1.002885  0  0  0.097276  0.112433  0  1.00487  0
H  H6  1  0.40073818  0.53721723  0.52389347  1  0  0.089438  0  0.984856  0  0  0.098712  0  1.053135  0  0  0.101534  0  1.052097  0  0  0.093525  0.096681  0  1.054403  0
H  H7  1  0.59926151  0.46278143  0.47610362  1  0  0.089429  0  0.984838  0  0  0.098697  0  1.053127  0  0  0.101518  0  1.052089  0  0  0.093514  0.096666  0  1.054394  0
H  H8  1  0.45413343  0.80859595  0.54605326  1  0  0.081704  0  0.975236  0  0  0.093087  0  1.037282  0  0  0.095305  0  1.037176  0  0  0.092543  0.091522  0  1.037446  0
H  H9  1  0.54586693  0.19140158  0.45394574  1  0  0.081711  0  0.975285  0  0  0.093096  0  1.03733  0  0  0.095316  0  1.037222  0  0  0.09254  0.091531  0  1.037494  0
H  H10  1  0.34395905  0.91230912  0.35060187  1  0  0.090451  0  0.962986  0  0  0.102231  0  1.027117  0  0  0.105126  0  1.025737  0  0  0.095652  0.100202  0  1.028115  0
H  H11  1  0.65604046  0.08769179  0.64939793  1  0  0.090486  0  0.962955  0  0  0.10226  0  1.027093  0  0  0.105158  0  1.02571  0  0  0.095659  0.100231  0  1.028092  0
H  H12  1  0.14127822  0.47405135  0.11119605  1  0  0.097172  0  0.967997  0  0  0.109771  0  1.028799  0  0  0.112994  0  1.02672  0  0  0.09955  0.107444  0  1.030241  0
H  H13  1  0.85872246  0.52594957  0.88880321  1  0  0.097163  0  0.968037  0  0  0.109762  0  1.028849  0  0  0.112985  0  1.026772  0  0  0.099549  0.107436  0  1.030289  0
H  H14  1  0.16469852  0.86929025  0.12721389  1  0  0.119262  0  0.96509  0  0  0.130182  0  1.031844  0  0  0.13292  0  1.03038  0  0  0.097994  0.128113  0  1.033242  0
H  H15  1  0.83530618  0.13071180  0.87279011  1  0  0.11928  0  0.965108  0  0  0.130189  0  1.031872  0  0  0.132927  0  1.030408  0  0  0.097981  0.12812  0  1.03327  0
H  H16  1  0.02955987  0.67903072  0.04067868  1  0  0.113506  0  0.940196  0  0  0.128904  0  0.996604  0  0  0.131288  0  0.994928  0  0  0.101002  0.126903  0  0.998483  0
H  H17  1  0.97044048  0.32097470  0.95932422  1  0  0.113523  0  0.940268  0  0  0.128908  0  0.996668  0  0  0.131296  0  0.994986  0  0  0.100999  0.126908  0  0.998546  0
H  H18  1  0.87694237  0.38937763  0.30005881  1  0  0.091979  0  0.927845  0  0  0.101585  0  0.987747  0  0  0.104111  0  0.986067  0  0  0.121543  0.100031  0  0.988761  0
H  H19  1  0.12305380  0.61062102  0.69994080  1  0  0.091987  0  0.927777  0  0  0.101561  0  0.987726  0  0  0.104085  0  0.986046  0  0  0.121538  0.100007  0  0.988738  0
H  H20  1  0.09088158  0.41471015  0.51933528  1  0  0.103953  0  0.969375  0  0  0.113548  0  1.033549  0  0  0.116054  0  1.033803  0  0  0.108511  0.111828  0  1.033683  0
H  H21  1  0.90911643  0.58528737  0.48066393  1  0  0.103999  0  0.969399  0  0  0.113609  0  1.033538  0  0  0.116115  0  1.033793  0  0  0.108558  0.111896  0  1.033665  0
H  H22  1  0.78995895  0.94950630  0.50563289  1  0  0.10539  0  0.953579  0  0  0.116713  0  1.013573  0  0  0.11953  0  1.013188  0  0  0.108602  0.114595  0  1.014225  0
H  H23  1  0.21003839  0.05049235  0.49436530  1  0  0.105398  0  0.953561  0  0  0.116726  0  1.013552  0  0  0.119543  0  1.013165  0  0  0.108601  0.114598  0  1.014229  0
H  H24  1  0.58780815  0.94605994  0.28907735  1  0  0.08044  0  0.960257  0  0  0.086076  0  1.030061  0  0  0.087917  0  1.029576  0  0  0.114594  0.084784  0  1.030364  0
H  H25  1  0.41218920  0.05393871  0.71092083  1  0  0.080401  0  0.960336  0  0  0.086095  0  1.030075  0  0  0.087939  0  1.029587  0  0  0.114584  0.084799  0  1.030376  0
H  H26  1  0.29769058  0.38710025  0.67074988  1  0  0.1173  0  0.961401  0  0  0.125005  0  1.026556  0  0  0.128901  0  1.024381  0  0  0.108815  0.121971  0  1.028449  0
H  H27  1  0.70230944  0.61290179  0.32924923  1  0  0.117291  0  0.961431  0  0  0.124987  0  1.026596  0  0  0.128885  0  1.024419  0  0  0.108805  0.121948  0  1.028503  0
H  H28  1  0.48744524  0.38423256  0.88607865  1  0  0.095828  0  0.930842  0  0  0.102486  0  0.994725  0  0  0.104905  0  0.993102  0  0  0.121881  0.100672  0  0.996011  0
H  H29  1  0.51255829  0.61576949  0.11392237  1  0  0.095804  0  0.930907  0  0  0.102465  0  0.994777  0  0  0.104883  0  0.993154  0  0  0.121879  0.10065  0  0.996062  0
H  H30  1  0.10836994  0.02123706  0.92459877  1  0  0.084713  0  0.925907  0  0  0.094698  0  0.987186  0  0  0.097019  0  0.985352  0  0  0.119232  0.092748  0  0.989146  0
H  H31  1  0.89162840  0.97876384  0.07540246  1  0  0.084746  0  0.925865  0  0  0.094721  0  0.987152  0  0  0.09704  0  0.985319  0  0  0.119235  0.092771  0  0.989113  0
H  H32  1  0.89817257  0.00850877  0.71148457  1  0  0.111354  0  0.981129  0  0  0.117301  0  1.050742  0  0  0.121274  0  1.048301  0  0  0.106527  0.114041  0  1.053169  0
H  H33  1  0.10183046  0.99149216  0.28851449  1  0  0.111338  0  0.981129  0  0  0.117282  0  1.050761  0  0  0.121257  0  1.048314  0  0  0.106531  0.114023  0  1.053182  0
C  C34  1  0.34169766  0.27399223  0.23654253  1  0  0.677902  0  3.881521  0  0  0.636341  0  4.176131  0  0  0.668998  0  4.171474  0  0  0.189914  0.614199  0  4.178064  0
C  C35  1  0.65830153  0.72600529  0.76345879  1  0  0.678084  0  3.881327  0  0  0.636505  0  4.175975  0  0  0.669163  0  4.17132  0  0  0.189959  0.614361  0  4.177911  0
C  C36  1  0.23769206  0.32174860  0.29824140  1  0  -0.301606  0  3.712145  0  0  -0.345049  0  3.953627  0  0  -0.350806  0  3.961827  0  0  -0.161956  -0.34148  0  3.948447  0
C  C37  1  0.76230646  0.67825006  0.70175623  1  0  -0.301652  0  3.712049  0  0  -0.34512  0  3.953605  0  0  -0.350882  0  3.961807  0  0  -0.161939  -0.341548  0  3.948425  0
C  C38  1  0.26891479  0.48640707  0.31536821  1  0  0.122072  0  3.781665  0  0  0.142717  0  4.017704  0  0  0.144142  0  4.041582  0  0  -0.015203  0.142172  0  4.001522  0
C  C39  1  0.73108656  0.51359272  0.68463031  1  0  0.122112  0  3.781629  0  0  0.142754  0  4.017691  0  0  0.144184  0  4.041562  0  0  -0.015214  0.142205  0  4.001523  0
C  C40  1  0.35584212  0.58212568  0.43775382  1  0  -0.151835  0  3.763944  0  0  -0.171983  0  4.011682  0  0  -0.175458  0  4.033273  0  0  -0.107542  -0.170254  0  3.997684  0
C  C41  1  0.64415857  0.41787523  0.56224543  1  0  -0.151842  0  3.763883  0  0  -0.171975  0  4.011635  0  0  -0.175452  0  4.033226  0  0  -0.107543  -0.170244  0  3.997638  0
C  C42  1  0.38524188  0.73516713  0.45036801  1  0  -0.07432  0  3.823887  0  0  -0.087256  0  4.075384  0  0  -0.088607  0  4.098365  0  0  -0.106058  -0.086071  0  4.059615  0
C  C43  1  0.61475830  0.26483266  0.54963016  1  0  -0.074298  0  3.82389  0  0  -0.087237  0  4.075381  0  0  -0.088589  0  4.098366  0  0  -0.106043  -0.086051  0  4.05961  0
C  C44  1  0.32377374  0.79327813  0.34138166  1  0  -0.147444  0  3.764294  0  0  -0.166734  0  4.009917  0  0  -0.170007  0  4.031944  0  0  -0.105047  -0.164331  0  3.994167  0
C  C45  1  0.67622694  0.20672278  0.65861936  1  0  -0.147595  0  3.764249  0  0  -0.166877  0  4.00991  0  0  -0.17016  0  4.031934  0  0  -0.105105  -0.164472  0  3.994159  0
C  C46  1  0.23215752  0.69827561  0.21870661  1  0  0.129356  0  3.750267  0  0  0.152046  0  3.984597  0  0  0.152859  0  4.009066  0  0  -0.009107  0.151777  0  3.966737  0
C  C47  1  0.76784484  0.30172643  0.78129407  1  0  0.12948  0  3.750191  0  0  0.152132  0  3.984575  0  0  0.152963  0  4.009024  0  0  -0.009069  0.151862  0  3.966716  0
C  C48  1  0.20863647  0.54643343  0.20724871  1  0  -0.158969  0  3.680769  0  0  -0.187489  0  3.924333  0  0  -0.190669  0  3.944264  0  0  -0.091055  -0.184311  0  3.909647  0
C  C49  1  0.79136539  0.45356748  0.79275089  1  0  -0.15901  0  3.680789  0  0  -0.187529  0  3.92439  0  0  -0.190713  0  3.944307  0  0  -0.091059  -0.18435  0  3.909707  0
C  C50  1  0.16126271  0.75754480  0.09952582  1  0  -0.319508  0  3.694336  0  0  -0.362197  0  3.932483  0  0  -0.368023  0  3.939023  0  0  -0.166289  -0.358018  0  3.927809  0
C  C51  1  0.83874082  0.24245725  0.90047697  1  0  -0.319561  0  3.694399  0  0  -0.36219  0  3.932529  0  0  -0.368019  0  3.939061  0  0  -0.166227  -0.358015  0  3.927862  0
C  C52  1  0.26838806  0.77061325  0.02100920  1  0  0.698865  0  3.861312  0  0  0.653035  0  4.157907  0  0  0.686472  0  4.152438  0  0  0.197854  0.63064  0  4.160112  0
C  C53  1  0.73161196  0.22938879  0.97899169  1  0  0.698872  0  3.861302  0  0  0.652991  0  4.157971  0  0  0.686427  0  4.152502  0  0  0.197789  0.630595  0  4.160177  0
C  C54  1  0.86191989  0.29566542  0.35081909  1  0  0.13486  0  3.69762  0  0  0.103661  0  3.95133  0  0  0.110872  0  3.969621  0  0  0.052069  0.098691  0  3.93949  0
C  C55  1  0.13807929  0.70433211  0.64918134  1  0  0.134931  0  3.697452  0  0  0.103757  0  3.951175  0  0  0.11097  0  3.969462  0  0  0.052079  0.098787  0  3.939337  0
C  C56  1  0.98164190  0.30793950  0.47299024  1  0  -0.153908  0  3.690493  0  0  -0.171015  0  3.936697  0  0  -0.17859  0  3.958463  0  0  -0.077437  -0.165865  0  3.922788  0
C  C57  1  0.01835662  0.69205915  0.52700828  1  0  -0.154059  0  3.690527  0  0  -0.171182  0  3.936726  0  0  -0.17876  0  3.958493  0  0  -0.0775  -0.166037  0  3.922815  0
C  C58  1  0.95828452  0.18470452  0.53490291  1  0  0.099318  0  3.751129  0  0  0.110259  0  3.980179  0  0  0.114258  0  4.001732  0  0  0.016042  0.107007  0  3.96573  0
C  C59  1  0.04171751  0.81529414  0.46509751  1  0  0.099396  0  3.750994  0  0  0.110342  0  3.980014  0  0  0.114342  0  4.001566  0  0  0.016071  0.10709  0  3.965566  0
C  C60  1  0.81458094  0.05136217  0.46582732  1  0  -0.156189  0  3.709924  0  0  -0.174127  0  3.959639  0  0  -0.181858  0  3.981473  0  0  -0.078774  -0.168755  0  3.945207  0
C  C61  1  0.18542275  0.94863762  0.53417452  1  0  -0.156116  0  3.709779  0  0  -0.174072  0  3.959527  0  0  -0.181803  0  3.981363  0  0  -0.078735  -0.168703  0  3.945092  0
C  C62  1  0.70087582  0.04794474  0.34404922  1  0  0.131362  0  3.717787  0  0  0.09978  0  3.97376  0  0  0.107074  0  3.992785  0  0  0.047792  0.094377  0  3.961579  0
C  C63  1  0.29912436  0.95205505  0.65595250  1  0  0.131411  0  3.717854  0  0  0.099796  0  3.973821  0  0  0.107086  0  3.99285  0  0  0.047812  0.0944  0  3.961634  0
C  C64  1  0.07842604  0.19368932  0.66665105  1  0  0.082439  0  3.762645  0  0  0.096111  0  3.988852  0  0  0.099241  0  4.011497  0  0  0.010769  0.094091  0  3.973496  0
C  C65  1  0.92157247  0.80630934  0.33334924  1  0  0.082265  0  3.762757  0  0  0.095985  0  3.9889  0  0  0.099115  0  4.011545  0  0  0.010718  0.093964  0  3.973542  0
C  C66  1  0.24649296  0.30208972  0.72091255  1  0  -0.142837  0  3.659441  0  0  -0.159493  0  3.9008  0  0  -0.166419  0  3.920239  0  0  -0.074843  -0.154417  0  3.887831  0
C  C67  1  0.75350589  0.69791231  0.27908888  1  0  -0.14278  0  3.659595  0  0  -0.159452  0  3.900961  0  0  -0.166375  0  3.920391  0  0  -0.074805  -0.15438  0  3.887992  0
C  C68  1  0.35591303  0.30182208  0.84361186  1  0  0.147513  0  3.665886  0  0  0.118248  0  3.915058  0  0  0.125858  0  3.932592  0  0  0.056013  0.112612  0  3.903703  0
C  C69  1  0.64408816  0.69817997  0.15639112  1  0  0.147552  0  3.665988  0  0  0.118274  0  3.915152  0  0  0.125885  0  3.93269  0  0  0.055999  0.112639  0  3.903796  0
C  C70  1  0.14505195  0.09925187  0.86407576  1  0  0.13218  0  3.70613  0  0  0.101682  0  3.959787  0  0  0.108388  0  3.97897  0  0  0.047751  0.096791  0  3.947579  0
C  C71  1  0.85494824  0.90074791  0.13592418  1  0  0.132077  0  3.706058  0  0  0.101584  0  3.959717  0  0  0.108287  0  3.978902  0  0  0.047705  0.096691  0  3.947508  0
C  C72  1  0.02798552  0.09184579  0.74249531  1  0  -0.151983  0  3.698935  0  0  -0.17157  0  3.949494  0  0  -0.178977  0  3.970895  0  0  -0.079785  -0.166298  0  3.93523  0
C  C73  1  0.97201399  0.90815512  0.25750449  1  0  -0.151881  0  3.698884  0  0  -0.171489  0  3.949435  0  0  -0.178896  0  3.970833  0  0  -0.07977  -0.166215  0  3.935165  0
N  N74  1  0.72216744  0.16846060  0.28771114  1  0  -0.326834  0  3.247917  0  0  -0.250592  0  3.514201  0  0  -0.270829  0  3.532819  0  0  -0.326049  -0.236895  0  3.502057  0
N  N75  1  0.27783107  0.83153805  0.71228916  1  0  -0.326889  0  3.247905  0  0  -0.250662  0  3.514214  0  0  -0.270899  0  3.532831  0  0  -0.326074  -0.236963  0  3.502068  0
N  N76  1  0.30710987  0.20099443  0.91392788  1  0  -0.324684  0  3.242063  0  0  -0.247992  0  3.50304  0  0  -0.268094  0  3.522281  0  0  -0.323035  -0.234369  0  3.490463  0
N  N77  1  0.69288847  0.79900648  0.08607423  1  0  -0.324658  0  3.241934  0  0  -0.247934  0  3.502875  0  0  -0.268036  0  3.52212  0  0  -0.323012  -0.23431  0  3.490296  0
O  O78  1  0.29518690  0.13180822  0.20091543  1  0  -0.67071  0  1.933398  0  0  -0.611063  0  2.177802  0  0  -0.639464  0  2.168892  0  0  -0.345633  -0.591061  0  2.183923  0
O  O79  1  0.70481161  0.86819044  0.79908309  1  0  -0.670795  0  1.933356  0  0  -0.611132  0  2.177763  0  0  -0.639534  0  2.168853  0  0  -0.345667  -0.591128  0  2.183886  0
O  O80  1  0.46690831  0.37239599  0.22396950  1  0  -0.643137  0  1.93129  0  0  -0.582403  0  2.164369  0  0  -0.61025  0  2.157402  0  0  -0.327849  -0.562362  0  2.168764  0
O  O81  1  0.53309155  0.62760041  0.77602931  1  0  -0.643192  0  1.931239  0  0  -0.582451  0  2.164337  0  0  -0.610295  0  2.157367  0  0  -0.327848  -0.562417  0  2.168749  0
O  O82  1  0.24587681  0.65703522  0.94561677  1  0  -0.633865  0  1.876001  0  0  -0.58157  0  2.102358  0  0  -0.607555  0  2.094127  0  0  -0.331074  -0.563239  0  2.107266  0
O  O83  1  0.75412153  0.34296569  0.05438446  1  0  -0.633843  0  1.876079  0  0  -0.58154  0  2.102471  0  0  -0.60753  0  2.094239  0  0  -0.331037  -0.56321  0  2.107378  0
O  O84  1  0.38723152  0.90101463  0.03981052  1  0  -0.692179  0  2.077185  0  0  -0.611367  0  2.346518  0  0  -0.64505  0  2.336487  0  0  -0.34547  -0.587441  0  2.352139  0
O  O85  1  0.61276917  0.09898629  0.96018873  1  0  -0.69219  0  2.07713  0  0  -0.61137  0  2.346499  0  0  -0.645053  0  2.336468  0  0  -0.345454  -0.587442  0  2.352118  0
