# generated using pymatgen
data_NdH8(C3O5)2
_symmetry_space_group_name_H-M   'P 1'
_cell_length_a   6.15865267
_cell_length_b   7.49908215
_cell_length_c   23.60089435
_cell_angle_alpha   90.00014306
_cell_angle_beta   93.92077840
_cell_angle_gamma   90.00014268
_symmetry_Int_Tables_number   1
_chemical_formula_structural   NdH8(C3O5)2
_chemical_formula_sum   'Nd4 H32 C24 O40'
_cell_volume   1087.43835394
_cell_formula_units_Z   4
loop_
 _symmetry_equiv_pos_site_id
 _symmetry_equiv_pos_as_xyz
  1  'x, y, z'
loop_
 _atom_site_type_symbol
 _atom_site_label
 _atom_site_symmetry_multiplicity
 _atom_site_fract_x
 _atom_site_fract_y
 _atom_site_fract_z
 _atom_site_occupancy
 _atom_site_hle17_bader_spin_density
 _atom_site_hle17_ddec_charge
 _atom_site_hle17_ddec_spin_density
 _atom_site_hle17_ddec_sum_bond_order
 _atom_site_hle17_magmom
 _atom_site_hse06_10hf_bader_spin_density
 _atom_site_hse06_10hf_ddec_charge
 _atom_site_hse06_10hf_ddec_spin_density
 _atom_site_hse06_10hf_ddec_sum_bond_order
 _atom_site_hse06_10hf_magmom
 _atom_site_hse06_bader_spin_density
 _atom_site_hse06_ddec_charge
 _atom_site_hse06_ddec_spin_density
 _atom_site_hse06_ddec_sum_bond_order
 _atom_site_hse06_magmom
 _atom_site_pbe_bader_spin_density
 _atom_site_pbe_cm5_charge
 _atom_site_pbe_ddec_charge
 _atom_site_pbe_ddec_spin_density
 _atom_site_pbe_ddec_sum_bond_order
 _atom_site_pbe_magmom
Nd  Nd0  1  0.69651708  0.88613114  0.85061429  1  0  2.273064  0  1.644824  0  0  2.095692  0  2.127587  0  0  2.196647  0  1.970356  0  0  1.483584  2.064125  0  2.160183  0
Nd  Nd1  1  0.80347390  0.38613861  0.64938231  1  0  2.273081  0  1.644756  0  0  2.095701  0  2.127545  0  0  2.196679  0  1.970285  0  0  1.48362  2.064136  0  2.160137  0
Nd  Nd2  1  0.30348528  0.11386416  0.14938888  1  0  2.273015  0  1.644815  0  0  2.095624  0  2.127585  0  0  2.196592  0  1.970347  0  0  1.483563  2.064056  0  2.160186  0
Nd  Nd3  1  0.19652685  0.61386336  0.35061490  1  0  2.273078  0  1.644744  0  0  2.095712  0  2.127505  0  0  2.196673  0  1.970268  0  0  1.483614  2.064147  0  2.160099  0
H  H4  1  0.79060995  0.08098946  0.02109645  1  0  0.078664  0  0.892698  0  0  0.087827  0  0.947512  0  0  0.09021  0  0.945791  0  0  0.122324  0.086166  0  0.948737  0
H  H5  1  0.70939492  0.58097902  0.47890060  1  0  0.078654  0  0.892819  0  0  0.087817  0  0.947609  0  0  0.090202  0  0.945889  0  0  0.12236  0.086159  0  0.948831  0
H  H6  1  0.20940056  0.91901118  0.97890348  1  0  0.078693  0  0.892742  0  0  0.087863  0  0.947528  0  0  0.09025  0  0.945806  0  0  0.122351  0.086201  0  0.948755  0
H  H7  1  0.29060583  0.41901094  0.52109746  1  0  0.078635  0  0.892871  0  0  0.087799  0  0.947662  0  0  0.090179  0  0.945943  0  0  0.122348  0.086139  0  0.948887  0
H  H8  1  0.27888850  0.84362098  0.71268379  1  0  0.106716  0  0.877961  0  0  0.115367  0  0.931388  0  0  0.117837  0  0.929412  0  0  0.134083  0.113675  0  0.932663  0
H  H9  1  0.22108997  0.34361869  0.78731234  1  0  0.106795  0  0.877908  0  0  0.115496  0  0.931325  0  0  0.117965  0  0.929348  0  0  0.134109  0.113782  0  0.932618  0
H  H10  1  0.72110898  0.15638366  0.28731632  1  0  0.106709  0  0.877946  0  0  0.115358  0  0.931379  0  0  0.117834  0  0.929397  0  0  0.134077  0.11365  0  0.932674  0
H  H11  1  0.77890426  0.65637795  0.21268771  1  0  0.106705  0  0.878003  0  0  0.115394  0  0.931434  0  0  0.117861  0  0.929459  0  0  0.134116  0.113716  0  0.932689  0
H  H12  1  0.36762971  0.92683223  0.62151503  1  0  0.101267  0  0.925876  0  0  0.107366  0  0.987936  0  0  0.110159  0  0.985059  0  0  0.127585  0.105412  0  0.989764  0
H  H13  1  0.13235392  0.42682380  0.87848211  1  0  0.10107  0  0.926031  0  0  0.107203  0  0.988114  0  0  0.109998  0  0.985239  0  0  0.127531  0.105268  0  0.989922  0
H  H14  1  0.63236615  0.07317107  0.37848463  1  0  0.101194  0  0.925948  0  0  0.107286  0  0.988028  0  0  0.110077  0  0.985152  0  0  0.127579  0.105346  0  0.989838  0
H  H15  1  0.86764845  0.57317416  0.12151724  1  0  0.101171  0  0.92588  0  0  0.107251  0  0.987991  0  0  0.110044  0  0.985119  0  0  0.127548  0.105316  0  0.989797  0
H  H16  1  0.96027114  0.16184842  0.93040917  1  0  0.391093  0  0.878812  0  0  0.365213  0  0.951787  0  0  0.376405  0  0.939436  0  0  0.312132  0.357299  0  0.960836  0
H  H17  1  0.53974026  0.66184777  0.56958846  1  0  0.39106  0  0.878968  0  0  0.365169  0  0.951957  0  0  0.376361  0  0.939608  0  0  0.31213  0.357255  0  0.961007  0
H  H18  1  0.03973449  0.83815622  0.06959109  1  0  0.391113  0  0.878853  0  0  0.365219  0  0.951845  0  0  0.37641  0  0.939493  0  0  0.312156  0.357305  0  0.960895  0
H  H19  1  0.46025723  0.33814753  0.43040826  1  0  0.391054  0  0.878883  0  0  0.365145  0  0.95192  0  0  0.376339  0  0.939568  0  0  0.312103  0.357231  0  0.96097  0
H  H20  1  0.56556559  0.12275188  0.75373711  1  0  0.376733  0  0.927554  0  0  0.351282  0  0.999068  0  0  0.362164  0  0.988428  0  0  0.303858  0.343287  0  1.007828  0
H  H21  1  0.93440662  0.62274808  0.74626360  1  0  0.376573  0  0.927784  0  0  0.35114  0  0.999265  0  0  0.362017  0  0.988632  0  0  0.303843  0.343143  0  1.008027  0
H  H22  1  0.43442864  0.87725009  0.24626464  1  0  0.376718  0  0.927569  0  0  0.351289  0  0.999044  0  0  0.362164  0  0.988413  0  0  0.303856  0.343294  0  1.007806  0
H  H23  1  0.06558273  0.37724589  0.25373722  1  0  0.376636  0  0.927606  0  0  0.351201  0  0.999095  0  0  0.362078  0  0.988466  0  0  0.303849  0.343204  0  1.007854  0
H  H24  1  0.68492218  0.03695691  0.60378326  1  0  0.403388  0  0.828274  0  0  0.38774  0  0.88184  0  0  0.397069  0  0.872118  0  0  0.333433  0.380869  0  0.889845  0
H  H25  1  0.81506601  0.53695271  0.89621851  1  0  0.403306  0  0.828326  0  0  0.38768  0  0.88186  0  0  0.397009  0  0.872142  0  0  0.333404  0.380808  0  0.889861  0
H  H26  1  0.31507693  0.96304106  0.39621857  1  0  0.403252  0  0.828398  0  0  0.387619  0  0.881944  0  0  0.396948  0  0.872225  0  0  0.33338  0.380748  0  0.889943  0
H  H27  1  0.18494124  0.46304926  0.10378347  1  0  0.403285  0  0.828294  0  0  0.387648  0  0.881857  0  0  0.396978  0  0.872135  0  0  0.333379  0.380773  0  0.88986  0
H  H28  1  0.35310145  0.15243190  0.90966446  1  0  0.445192  0  0.843923  0  0  0.417606  0  0.900681  0  0  0.427655  0  0.886075  0  0  0.304939  0.410706  0  0.910722  0
H  H29  1  0.14689428  0.65243430  0.59033607  1  0  0.445209  0  0.843896  0  0  0.417647  0  0.900613  0  0  0.427693  0  0.88601  0  0  0.304943  0.410762  0  0.910638  0
H  H30  1  0.64689766  0.84756607  0.09033569  1  0  0.44519  0  0.843912  0  0  0.417598  0  0.900681  0  0  0.427646  0  0.886075  0  0  0.304942  0.410698  0  0.910723  0
H  H31  1  0.85310483  0.34756633  0.40966449  1  0  0.445183  0  0.843938  0  0  0.417601  0  0.900691  0  0  0.427649  0  0.886086  0  0  0.304922  0.410716  0  0.910717  0
H  H32  1  0.26113793  0.00511894  0.86585064  1  0  0.432378  0  0.874016  0  0  0.400058  0  0.941268  0  0  0.411416  0  0.924819  0  0  0.299528  0.391755  0  0.953512  0
H  H33  1  0.23885896  0.50512321  0.63414894  1  0  0.432362  0  0.87404  0  0  0.400041  0  0.9413  0  0  0.411398  0  0.924851  0  0  0.299504  0.391737  0  0.953549  0
H  H34  1  0.73886282  0.99488303  0.13414826  1  0  0.43233  0  0.874091  0  0  0.399986  0  0.941373  0  0  0.411343  0  0.924925  0  0  0.2995  0.391687  0  0.95361  0
H  H35  1  0.76114015  0.49488676  0.36585374  1  0  0.432396  0  0.873994  0  0  0.400057  0  0.941272  0  0  0.411415  0  0.924822  0  0  0.299518  0.391754  0  0.953518  0
C  C36  1  0.78924705  0.80876899  0.99175932  1  0  0.665651  0  3.85643  0  0  0.613812  0  4.165683  0  0  0.646461  0  4.159341  0  0  0.218423  0.591656  0  4.170686  0
C  C37  1  0.71075344  0.30875783  0.50823950  1  0  0.665747  0  3.856791  0  0  0.613946  0  4.165933  0  0  0.646594  0  4.159591  0  0  0.218501  0.591795  0  4.170931  0
C  C38  1  0.21076021  0.19123298  0.00823843  1  0  0.665637  0  3.856762  0  0  0.613811  0  4.165968  0  0  0.646462  0  4.159623  0  0  0.218359  0.591655  0  4.170971  0
C  C39  1  0.28925218  0.69123214  0.49176160  1  0  0.665536  0  3.856864  0  0  0.613741  0  4.166021  0  0  0.646386  0  4.159682  0  0  0.218413  0.59159  0  4.171019  0
C  C40  1  0.87663487  0.00037547  0.99041077  1  0  0.05789  0  3.639881  0  0  0.033758  0  3.895685  0  0  0.035045  0  3.904074  0  0  0.001484  0.032825  0  3.890964  0
C  C41  1  0.62336949  0.50037319  0.50958746  1  0  0.057861  0  3.639966  0  0  0.033756  0  3.895686  0  0  0.035039  0  3.904072  0  0  0.001483  0.03282  0  3.890961  0
C  C42  1  0.12336913  0.99962916  0.00958819  1  0  0.057795  0  3.64016  0  0  0.033686  0  3.895947  0  0  0.034964  0  3.904344  0  0  0.001504  0.032755  0  3.891225  0
C  C43  1  0.37662800  0.49961944  0.49041181  1  0  0.057969  0  3.640027  0  0  0.033863  0  3.895757  0  0  0.035162  0  3.904129  0  0  0.001466  0.032927  0  3.891032  0
C  C44  1  0.61572315  0.76940957  0.71335712  1  0  0.707522  0  3.801915  0  0  0.654029  0  4.106813  0  0  0.688684  0  4.099734  0  0  0.243765  0.630345  0  4.114137  0
C  C45  1  0.88425442  0.26940494  0.78663872  1  0  0.707325  0  3.80204  0  0  0.654058  0  4.106636  0  0  0.688714  0  4.09955  0  0  0.243723  0.630367  0  4.113972  0
C  C46  1  0.38427271  0.23059106  0.28664085  1  0  0.707078  0  3.802398  0  0  0.653737  0  4.107082  0  0  0.688391  0  4.100009  0  0  0.243643  0.630055  0  4.1144  0
C  C47  1  0.11573005  0.73059970  0.21335946  1  0  0.707219  0  3.802181  0  0  0.65385  0  4.106949  0  0  0.688503  0  4.09987  0  0  0.243709  0.630162  0  4.114283  0
C  C48  1  0.43692745  0.91190016  0.71197722  1  0  0.07737  0  3.603114  0  0  0.051052  0  3.858095  0  0  0.052684  0  3.865022  0  0  0.010236  0.049873  0  3.854175  0
C  C49  1  0.06305287  0.41189889  0.78802028  1  0  0.077147  0  3.603105  0  0  0.050596  0  3.858393  0  0  0.052234  0  3.865322  0  0  0.010105  0.04945  0  3.854448  0
C  C50  1  0.56307004  0.08810181  0.28802247  1  0  0.077455  0  3.603238  0  0  0.051088  0  3.858206  0  0  0.052713  0  3.865137  0  0  0.010169  0.049913  0  3.854294  0
C  C51  1  0.93693973  0.58810308  0.21198017  1  0  0.077389  0  3.603122  0  0  0.050897  0  3.858323  0  0  0.052536  0  3.865252  0  0  0.010164  0.049715  0  3.854399  0
C  C52  1  0.44129043  0.01322596  0.65519141  1  0  0.056442  0  3.581377  0  0  0.030194  0  3.833706  0  0  0.03215  0  3.8397  0  0  0.00624  0.02912  0  3.829677  0
C  C53  1  0.05870160  0.51321017  0.84480725  1  0  0.056997  0  3.581043  0  0  0.030653  0  3.833619  0  0  0.032599  0  3.83966  0  0  0.006338  0.029561  0  3.829583  0
C  C54  1  0.55871520  0.98678534  0.34480758  1  0  0.056579  0  3.581308  0  0  0.030325  0  3.833686  0  0  0.032289  0  3.839682  0  0  0.006268  0.029244  0  3.829652  0
C  C55  1  0.94130077  0.48678113  0.15519380  1  0  0.056844  0  3.581187  0  0  0.030619  0  3.833579  0  0  0.032559  0  3.839618  0  0  0.006316  0.02953  0  3.829551  0
C  C56  1  0.30756078  0.18600297  0.65489402  1  0  0.698311  0  3.82039  0  0  0.648728  0  4.121406  0  0  0.682832  0  4.115211  0  0  0.236843  0.625538  0  4.127787  0
C  C57  1  0.19242205  0.68599812  0.84510546  1  0  0.69825  0  3.820523  0  0  0.648666  0  4.121601  0  0  0.682749  0  4.115442  0  0  0.236821  0.625479  0  4.127982  0
C  C58  1  0.69244159  0.81400033  0.34510788  1  0  0.698363  0  3.820176  0  0  0.64875  0  4.121239  0  0  0.682841  0  4.115063  0  0  0.236853  0.625563  0  4.127622  0
C  C59  1  0.80757869  0.31399985  0.15489471  1  0  0.698064  0  3.82079  0  0  0.648486  0  4.121791  0  0  0.682586  0  4.115607  0  0  0.236752  0.625296  0  4.128175  0
O  O60  1  0.71451626  0.74031902  0.94523327  1  0  -0.705391  0  2.006617  0  0  -0.656393  0  2.249535  0  0  -0.686394  0  2.233762  0  0  -0.38061  -0.640286  0  2.258448  0
O  O61  1  0.78547587  0.24031771  0.55476281  1  0  -0.705454  0  2.006894  0  0  -0.656465  0  2.24979  0  0  -0.68647  0  2.234015  0  0  -0.380661  -0.64036  0  2.258703  0
O  O62  1  0.28548287  0.25968028  0.05476264  1  0  -0.705392  0  2.006815  0  0  -0.656398  0  2.249716  0  0  -0.686402  0  2.233943  0  0  -0.380578  -0.64029  0  2.25863  0
O  O63  1  0.21452812  0.75967893  0.44523743  1  0  -0.705369  0  2.006899  0  0  -0.656384  0  2.249783  0  0  -0.686386  0  2.234012  0  0  -0.380603  -0.640281  0  2.258697  0
O  O64  1  0.80309038  0.73233459  0.03991718  1  0  -0.618582  0  1.9267  0  0  -0.56825  0  2.139862  0  0  -0.5906  0  2.126112  0  0  -0.316828  -0.552376  0  2.148457  0
O  O65  1  0.69690522  0.23232694  0.46008490  1  0  -0.618654  0  1.926861  0  0  -0.568317  0  2.139981  0  0  -0.590669  0  2.126235  0  0  -0.316895  -0.552446  0  2.148577  0
O  O66  1  0.19691037  0.26766471  0.96008257  1  0  -0.618556  0  1.926792  0  0  -0.568232  0  2.139945  0  0  -0.590582  0  2.126194  0  0  -0.316813  -0.552358  0  2.14854  0
O  O67  1  0.30309715  0.76766436  0.53991700  1  0  -0.618532  0  1.926845  0  0  -0.568239  0  2.139997  0  0  -0.590586  0  2.126249  0  0  -0.316844  -0.552366  0  2.148592  0
O  O68  1  0.84303126  0.07166128  0.93481966  1  0  -0.618352  0  2.203791  0  0  -0.564229  0  2.437093  0  0  -0.586255  0  2.424067  0  0  -0.440097  -0.552874  0  2.445364  0
O  O69  1  0.65698310  0.57166350  0.56517753  1  0  -0.618364  0  2.204037  0  0  -0.564232  0  2.437314  0  0  -0.586265  0  2.424294  0  0  -0.440133  -0.552875  0  2.445581  0
O  O70  1  0.15697437  0.92834069  0.06517806  1  0  -0.618367  0  2.20401  0  0  -0.564229  0  2.437316  0  0  -0.586255  0  2.424295  0  0  -0.440134  -0.552876  0  2.445587  0
O  O71  1  0.34301927  0.42833580  0.43482225  1  0  -0.618333  0  2.203931  0  0  -0.564212  0  2.437223  0  0  -0.586247  0  2.424199  0  0  -0.440098  -0.552854  0  2.44549  0
O  O72  1  0.75869151  0.77309967  0.75535315  1  0  -0.705333  0  2.087257  0  0  -0.644118  0  2.328927  0  0  -0.676766  0  2.31673  0  0  -0.370548  -0.626211  0  2.336187  0
O  O73  1  0.74128444  0.27311442  0.74464648  1  0  -0.705361  0  2.087349  0  0  -0.644203  0  2.328925  0  0  -0.67686  0  2.316729  0  0  -0.37052  -0.626296  0  2.33619  0
O  O74  1  0.24129621  0.22688630  0.24464764  1  0  -0.705194  0  2.087331  0  0  -0.644027  0  2.328938  0  0  -0.676678  0  2.316742  0  0  -0.370505  -0.62612  0  2.336197  0
O  O75  1  0.25870816  0.72689288  0.25535355  1  0  -0.70529  0  2.087201  0  0  -0.644129  0  2.328851  0  0  -0.67678  0  2.316658  0  0  -0.370524  -0.626221  0  2.336113  0
O  O76  1  0.61326413  0.65782376  0.67358551  1  0  -0.685943  0  2.04124  0  0  -0.632958  0  2.298393  0  0  -0.664163  0  2.284208  0  0  -0.380009  -0.616136  0  2.306256  0
O  O77  1  0.88672936  0.15781144  0.82640798  1  0  -0.685872  0  2.041422  0  0  -0.632921  0  2.298431  0  0  -0.664122  0  2.284243  0  0  -0.379979  -0.616103  0  2.306306  0
O  O78  1  0.38673987  0.34218754  0.32641133  1  0  -0.685811  0  2.041509  0  0  -0.632863  0  2.298561  0  0  -0.664065  0  2.284379  0  0  -0.379954  -0.616042  0  2.306423  0
O  O79  1  0.11326813  0.84218519  0.17359213  1  0  -0.685798  0  2.041553  0  0  -0.632841  0  2.298648  0  0  -0.664043  0  2.284464  0  0  -0.380013  -0.616025  0  2.30652  0
O  O80  1  0.46100939  0.02207948  0.76118165  1  0  -0.612035  0  2.1194  0  0  -0.56642  0  2.352695  0  0  -0.586996  0  2.340433  0  0  -0.421564  -0.555413  0  2.360728  0
O  O81  1  0.03896639  0.52208415  0.73881842  1  0  -0.611876  0  2.119681  0  0  -0.566166  0  2.352961  0  0  -0.586733  0  2.340693  0  0  -0.42151  -0.55519  0  2.361027  0
O  O82  1  0.53898972  0.97791716  0.23881977  1  0  -0.612038  0  2.119454  0  0  -0.566431  0  2.352757  0  0  -0.586995  0  2.340483  0  0  -0.421526  -0.55543  0  2.3608  0
O  O83  1  0.96102784  0.47791781  0.26118206  1  0  -0.611956  0  2.11952  0  0  -0.566273  0  2.352791  0  0  -0.586841  0  2.340517  0  0  -0.421514  -0.555291  0  2.360867  0
O  O84  1  0.66348452  0.05196688  0.64429217  1  0  -0.591011  0  2.135371  0  0  -0.544533  0  2.36244  0  0  -0.564192  0  2.349624  0  0  -0.413766  -0.533978  0  2.370516  0
O  O85  1  0.83650535  0.55195574  0.85570668  1  0  -0.591067  0  2.135233  0  0  -0.544563  0  2.362327  0  0  -0.564217  0  2.34952  0  0  -0.413743  -0.534003  0  2.370407  0
O  O86  1  0.33651622  0.94803509  0.35570715  1  0  -0.590911  0  2.135358  0  0  -0.544434  0  2.362425  0  0  -0.564095  0  2.349617  0  0  -0.413712  -0.533875  0  2.370503  0
O  O87  1  0.16349376  0.44803956  0.14429643  1  0  -0.591027  0  2.135326  0  0  -0.544552  0  2.36239  0  0  -0.564209  0  2.349587  0  0  -0.413698  -0.533992  0  2.370468  0
O  O88  1  0.40985268  0.33112480  0.64687996  1  0  -0.725357  0  2.096692  0  0  -0.66583  0  2.344438  0  0  -0.698498  0  2.331702  0  0  -0.376171  -0.64804  0  2.352132  0
O  O89  1  0.09014202  0.83111047  0.85311773  1  0  -0.725319  0  2.097014  0  0  -0.665766  0  2.344735  0  0  -0.69842  0  2.332012  0  0  -0.376114  -0.647978  0  2.352426  0
O  O90  1  0.59015456  0.66888517  0.35312456  1  0  -0.725368  0  2.096599  0  0  -0.665807  0  2.34435  0  0  -0.69847  0  2.331621  0  0  -0.376118  -0.648019  0  2.352046  0
O  O91  1  0.90985873  0.16888750  0.14687694  1  0  -0.725312  0  2.096924  0  0  -0.665729  0  2.344618  0  0  -0.698392  0  2.331887  0  0  -0.376108  -0.647941  0  2.35231  0
O  O92  1  0.10686392  0.17508145  0.66150144  1  0  -0.675824  0  1.978259  0  0  -0.629322  0  2.227309  0  0  -0.66016  0  2.212747  0  0  -0.378523  -0.612688  0  2.234297  0
O  O93  1  0.39312538  0.67506629  0.83850069  1  0  -0.67591  0  1.978211  0  0  -0.629399  0  2.227252  0  0  -0.660229  0  2.212709  0  0  -0.37857  -0.612766  0  2.23424  0
O  O94  1  0.89313520  0.82492718  0.33849997  1  0  -0.675884  0  1.978221  0  0  -0.629391  0  2.227308  0  0  -0.66022  0  2.212747  0  0  -0.378595  -0.61276  0  2.234299  0
O  O95  1  0.60688186  0.32492368  0.16150257  1  0  -0.67576  0  1.978395  0  0  -0.62928  0  2.227452  0  0  -0.660109  0  2.212883  0  0  -0.378513  -0.612647  0  2.234444  0
O  O96  1  0.39589801  0.07128190  0.87943990  1  0  -0.933721  0  1.842271  0  0  -0.887592  0  2.037541  0  0  -0.913321  0  1.999147  0  0  -0.66032  -0.87456  0  2.060785  0
O  O97  1  0.10409746  0.57129111  0.62055887  1  0  -0.933709  0  1.842214  0  0  -0.887609  0  2.03748  0  0  -0.913338  0  1.999095  0  0  -0.660297  -0.87459  0  2.060691  0
O  O98  1  0.60410598  0.92872007  0.12056076  1  0  -0.933662  0  1.842289  0  0  -0.887487  0  2.037571  0  0  -0.91322  0  1.99918  0  0  -0.660292  -0.874453  0  2.060817  0
O  O99  1  0.89590165  0.42871886  0.37944212  1  0  -0.933711  0  1.842205  0  0  -0.88757  0  2.037492  0  0  -0.9133  0  1.999099  0  0  -0.660282  -0.874551  0  2.060703  0
