# generated using pymatgen
data_ZnH6C2SeN
_symmetry_space_group_name_H-M   'P 1'
_cell_length_a   6.43179311
_cell_length_b   6.55827723
_cell_length_c   22.05166052
_cell_angle_alpha   90.00022247
_cell_angle_beta   89.99956139
_cell_angle_gamma   90.00025417
_symmetry_Int_Tables_number   1
_chemical_formula_structural   ZnH6C2SeN
_chemical_formula_sum   'Zn8 H48 C16 Se8 N8'
_cell_volume   930.17172758
_cell_formula_units_Z   8
loop_
 _symmetry_equiv_pos_site_id
 _symmetry_equiv_pos_as_xyz
  1  'x, y, z'
loop_
 _atom_site_type_symbol
 _atom_site_label
 _atom_site_symmetry_multiplicity
 _atom_site_fract_x
 _atom_site_fract_y
 _atom_site_fract_z
 _atom_site_occupancy
 _atom_site_hle17_bader_spin_density
 _atom_site_hle17_ddec_charge
 _atom_site_hle17_ddec_spin_density
 _atom_site_hle17_ddec_sum_bond_order
 _atom_site_hle17_magmom
 _atom_site_hse06_10hf_bader_spin_density
 _atom_site_hse06_10hf_ddec_charge
 _atom_site_hse06_10hf_ddec_spin_density
 _atom_site_hse06_10hf_ddec_sum_bond_order
 _atom_site_hse06_10hf_magmom
 _atom_site_hse06_bader_spin_density
 _atom_site_hse06_ddec_charge
 _atom_site_hse06_ddec_spin_density
 _atom_site_hse06_ddec_sum_bond_order
 _atom_site_hse06_magmom
 _atom_site_pbe_bader_spin_density
 _atom_site_pbe_cm5_charge
 _atom_site_pbe_ddec_charge
 _atom_site_pbe_ddec_spin_density
 _atom_site_pbe_ddec_sum_bond_order
 _atom_site_pbe_magmom
Zn  Zn0  1  0.76957386  0.59164237  0.28760062  1  0  0.698291  0  2.214514  0  0  0.554774  0  2.670365  0  0  0.592168  0  2.637132  0  0  0.372809  0.528883  0  2.693128  0
Zn  Zn1  1  0.26957396  0.90836000  0.28760083  1  0  0.698315  0  2.21451  0  0  0.554803  0  2.670364  0  0  0.592196  0  2.63713  0  0  0.37282  0.528911  0  2.693128  0
Zn  Zn2  1  0.73042643  0.59164251  0.78760155  1  0  0.698271  0  2.214564  0  0  0.554734  0  2.670427  0  0  0.592128  0  2.637194  0  0  0.372802  0.528843  0  2.693186  0
Zn  Zn3  1  0.76957399  0.09164014  0.21239919  1  0  0.698335  0  2.214548  0  0  0.554813  0  2.670397  0  0  0.592207  0  2.63716  0  0  0.372838  0.528917  0  2.693158  0
Zn  Zn4  1  0.23042199  0.40835486  0.71239852  1  0  0.698313  0  2.214539  0  0  0.554814  0  2.67036  0  0  0.592205  0  2.637125  0  0  0.372814  0.528923  0  2.693114  0
Zn  Zn5  1  0.73042344  0.09164638  0.71239922  1  0  0.698325  0  2.214466  0  0  0.55481  0  2.670276  0  0  0.5922  0  2.637047  0  0  0.372802  0.528916  0  2.693032  0
Zn  Zn6  1  0.26957253  0.40836082  0.21239759  1  0  0.698297  0  2.214563  0  0  0.554785  0  2.670375  0  0  0.592182  0  2.637138  0  0  0.372813  0.528893  0  2.693138  0
Zn  Zn7  1  0.23042652  0.90835709  0.78760176  1  0  0.698312  0  2.214512  0  0  0.554783  0  2.670342  0  0  0.592178  0  2.637108  0  0  0.37281  0.528892  0  2.693097  0
H  H8  1  0.07182323  0.45520281  0.34928319  1  0  0.269431  0  0.960885  0  0  0.260483  0  1.019802  0  0  0.266767  0  1.016037  0  0  0.253731  0.255865  0  1.022712  0
H  H9  1  0.57182606  0.04481118  0.34928338  1  0  0.269452  0  0.960813  0  0  0.26052  0  1.019726  0  0  0.266805  0  1.015961  0  0  0.253727  0.255902  0  1.022638  0
H  H10  1  0.42816737  0.45520239  0.84928374  1  0  0.269439  0  0.960858  0  0  0.260506  0  1.019754  0  0  0.266791  0  1.015987  0  0  0.253724  0.255887  0  1.022665  0
H  H11  1  0.07182565  0.95519866  0.15071702  1  0  0.269444  0  0.96087  0  0  0.260507  0  1.019775  0  0  0.266791  0  1.016008  0  0  0.253714  0.255887  0  1.022686  0
H  H12  1  0.92816329  0.54479442  0.65071777  1  0  0.269451  0  0.960791  0  0  0.260472  0  1.019763  0  0  0.266755  0  1.016  0  0  0.253738  0.255852  0  1.022674  0
H  H13  1  0.42816513  0.95520434  0.65071712  1  0  0.269414  0  0.960932  0  0  0.260474  0  1.019839  0  0  0.266758  0  1.016076  0  0  0.253714  0.255853  0  1.02275  0
H  H14  1  0.57182692  0.54479942  0.15071495  1  0  0.26938  0  0.960926  0  0  0.260427  0  1.019847  0  0  0.26671  0  1.016082  0  0  0.253692  0.255807  0  1.022758  0
H  H15  1  0.92817020  0.04478332  0.84928711  1  0  0.269367  0  0.9609  0  0  0.260399  0  1.019833  0  0  0.266683  0  1.016068  0  0  0.253705  0.255781  0  1.022743  0
H  H16  1  0.88632658  0.28358965  0.35749938  1  0  0.273084  0  0.941443  0  0  0.262825  0  1.002841  0  0  0.269342  0  0.998319  0  0  0.259574  0.257738  0  1.00683  0
H  H17  1  0.38632124  0.21641531  0.35749982  1  0  0.273094  0  0.941506  0  0  0.262851  0  1.002885  0  0  0.269366  0  0.99837  0  0  0.259597  0.257765  0  1.006873  0
H  H18  1  0.61366106  0.28358770  0.85749645  1  0  0.273135  0  0.941497  0  0  0.262878  0  1.00287  0  0  0.269396  0  0.998348  0  0  0.259598  0.257791  0  1.006858  0
H  H19  1  0.88633235  0.78358082  0.14250225  1  0  0.273123  0  0.941485  0  0  0.262864  0  1.002869  0  0  0.269382  0  0.998347  0  0  0.259576  0.257778  0  1.006856  0
H  H20  1  0.11366461  0.71640301  0.64250112  1  0  0.273135  0  0.941446  0  0  0.262882  0  1.002819  0  0  0.269398  0  0.9983  0  0  0.259611  0.257795  0  1.006809  0
H  H21  1  0.61366839  0.78360022  0.64249796  1  0  0.273193  0  0.941413  0  0  0.262921  0  1.002798  0  0  0.269437  0  0.998279  0  0  0.259653  0.257833  0  1.006789  0
H  H22  1  0.38633169  0.71641410  0.14249861  1  0  0.273083  0  0.941439  0  0  0.262823  0  1.002836  0  0  0.269339  0  0.998317  0  0  0.259585  0.257737  0  1.006821  0
H  H23  1  0.11366039  0.21640726  0.85749961  1  0  0.273117  0  0.941489  0  0  0.262854  0  1.002871  0  0  0.26937  0  0.998353  0  0  0.259622  0.257768  0  1.006861  0
H  H24  1  0.71070456  0.49128602  0.43150951  1  0  0.044714  0  0.930804  0  0  0.062431  0  0.996769  0  0  0.062864  0  0.996542  0  0  0.09295  0.061982  0  0.997133  0
H  H25  1  0.21070773  0.00871753  0.43151016  1  0  0.044628  0  0.930869  0  0  0.062369  0  0.996843  0  0  0.062801  0  0.996619  0  0  0.092917  0.061919  0  0.997206  0
H  H26  1  0.78930189  0.49127730  0.93150534  1  0  0.044706  0  0.930743  0  0  0.062449  0  0.9967  0  0  0.062878  0  0.996478  0  0  0.092988  0.062  0  0.997064  0
H  H27  1  0.71071256  0.99126707  0.06849087  1  0  0.044626  0  0.930872  0  0  0.062374  0  0.996831  0  0  0.062805  0  0.996608  0  0  0.092902  0.061925  0  0.997194  0
H  H28  1  0.28928352  0.50870968  0.56848963  1  0  0.04464  0  0.930907  0  0  0.062388  0  0.996872  0  0  0.062818  0  0.996654  0  0  0.092945  0.061941  0  0.997235  0
H  H29  1  0.78928813  0.99131325  0.56849124  1  0  0.04468  0  0.930881  0  0  0.062425  0  0.99684  0  0  0.062858  0  0.996616  0  0  0.092993  0.061978  0  0.997203  0
H  H30  1  0.21070484  0.50871078  0.06848972  1  0  0.044687  0  0.930838  0  0  0.062399  0  0.996819  0  0  0.062831  0  0.996593  0  0  0.092953  0.061944  0  0.997179  0
H  H31  1  0.28930972  0.00872406  0.93150781  1  0  0.044765  0  0.930686  0  0  0.062423  0  0.996693  0  0  0.062856  0  0.996467  0  0  0.09299  0.061971  0  0.997057  0
H  H32  1  0.88710390  0.69088907  0.41584896  1  0  0.051411  0  0.942012  0  0  0.069134  0  1.0073  0  0  0.06979  0  1.007291  0  0  0.089273  0.068545  0  1.007457  0
H  H33  1  0.38711449  0.80911860  0.41584950  1  0  0.051348  0  0.942024  0  0  0.069129  0  1.007287  0  0  0.069782  0  1.007277  0  0  0.089279  0.068536  0  1.007444  0
H  H34  1  0.61289138  0.69087797  0.91584921  1  0  0.051372  0  0.942033  0  0  0.06917  0  1.007294  0  0  0.069824  0  1.007282  0  0  0.089257  0.068579  0  1.00745  0
H  H35  1  0.88710477  0.19087753  0.08415120  1  0  0.051352  0  0.941927  0  0  0.069132  0  1.007197  0  0  0.06979  0  1.007187  0  0  0.089258  0.068542  0  1.007354  0
H  H36  1  0.11287640  0.30910663  0.58414973  1  0  0.051588  0  0.941645  0  0  0.069204  0  1.00709  0  0  0.069857  0  1.007078  0  0  0.089332  0.068611  0  1.00725  0
H  H37  1  0.61287203  0.19090607  0.58415326  1  0  0.051553  0  0.941613  0  0  0.069205  0  1.007015  0  0  0.06986  0  1.007009  0  0  0.089299  0.068609  0  1.007182  0
H  H38  1  0.38710913  0.30911163  0.08415084  1  0  0.051471  0  0.941949  0  0  0.069156  0  1.00728  0  0  0.069811  0  1.00727  0  0  0.089273  0.068563  0  1.007434  0
H  H39  1  0.11290974  0.80911055  0.91585066  1  0  0.051363  0  0.942027  0  0  0.069087  0  1.007304  0  0  0.069746  0  1.007294  0  0  0.089237  0.068496  0  1.007459  0
H  H40  1  0.18175060  0.47588603  0.45508283  1  0  0.062435  0  0.937556  0  0  0.080516  0  1.001658  0  0  0.081578  0  1.001558  0  0  0.086047  0.079624  0  1.001928  0
H  H41  1  0.68175645  0.02414056  0.45508300  1  0  0.062349  0  0.93754  0  0  0.080474  0  1.001618  0  0  0.081536  0  1.001518  0  0  0.086008  0.079567  0  1.001906  0
H  H42  1  0.31825247  0.47584696  0.95508269  1  0  0.062365  0  0.937511  0  0  0.080502  0  1.001539  0  0  0.081565  0  1.001438  0  0  0.086034  0.079591  0  1.001831  0
H  H43  1  0.18176086  0.97586830  0.04492036  1  0  0.062339  0  0.937564  0  0  0.080461  0  1.001652  0  0  0.081524  0  1.001552  0  0  0.086004  0.079566  0  1.001926  0
H  H44  1  0.81823437  0.52412949  0.54491676  1  0  0.062466  0  0.937563  0  0  0.080513  0  1.001654  0  0  0.081573  0  1.001555  0  0  0.086031  0.079625  0  1.001919  0
H  H45  1  0.31824096  0.97586734  0.54491568  1  0  0.062544  0  0.93753  0  0  0.080598  0  1.001581  0  0  0.08166  0  1.001484  0  0  0.086072  0.079709  0  1.001849  0
H  H46  1  0.68175582  0.52412435  0.04491690  1  0  0.062459  0  0.937602  0  0  0.080556  0  1.001648  0  0  0.08162  0  1.001548  0  0  0.086067  0.079665  0  1.001918  0
H  H47  1  0.81826143  0.02411978  0.95508513  1  0  0.062391  0  0.937448  0  0  0.08051  0  1.001524  0  0  0.081573  0  1.001421  0  0  0.086034  0.079612  0  1.001803  0
H  H48  1  0.00347148  0.28140783  0.47471906  1  0  0.058272  0  0.940227  0  0  0.078801  0  1.000066  0  0  0.079491  0  1.00045  0  0  0.086277  0.078219  0  0.999927  0
H  H49  1  0.50346567  0.21861053  0.47472081  1  0  0.058288  0  0.94025  0  0  0.078814  0  1.000134  0  0  0.079504  0  1.000515  0  0  0.086266  0.078232  0  0.999991  0
H  H50  1  0.49655043  0.28138944  0.97472129  1  0  0.05832  0  0.940291  0  0  0.078833  0  1.000153  0  0  0.079524  0  1.000533  0  0  0.086273  0.07825  0  1.000011  0
H  H51  1  0.00347922  0.78139441  0.02527972  1  0  0.058277  0  0.940233  0  0  0.078833  0  1.000087  0  0  0.079525  0  1.000469  0  0  0.086285  0.078248  0  0.999948  0
H  H52  1  0.99652904  0.71859855  0.52528099  1  0  0.058334  0  0.940231  0  0  0.078807  0  1.000112  0  0  0.079496  0  1.000497  0  0  0.086269  0.078224  0  0.999975  0
H  H53  1  0.49654728  0.78141719  0.52527878  1  0  0.05836  0  0.940281  0  0  0.078866  0  1.000086  0  0  0.079559  0  1.000467  0  0  0.086299  0.078284  0  0.999949  0
H  H54  1  0.50347341  0.71858644  0.02527603  1  0  0.058361  0  0.940207  0  0  0.078842  0  1.000076  0  0  0.079532  0  1.000459  0  0  0.086281  0.078257  0  0.999937  0
H  H55  1  0.99653995  0.21859062  0.97472395  1  0  0.058357  0  0.940185  0  0  0.078866  0  1.000049  0  0  0.079557  0  1.000432  0  0  0.086298  0.078284  0  0.99991  0
C  C56  1  0.87391123  0.52395041  0.41995786  1  0  0.084494  0  3.656824  0  0  0.027403  0  3.921745  0  0  0.031653  0  3.934893  0  0  -0.079753  0.02458  0  3.912523  0
C  C57  1  0.37391782  0.97605878  0.41995905  1  0  0.084542  0  3.656689  0  0  0.027342  0  3.921812  0  0  0.031595  0  3.934956  0  0  -0.079813  0.024532  0  3.912569  0
C  C58  1  0.62608948  0.52394090  0.91995627  1  0  0.084522  0  3.656704  0  0  0.027254  0  3.921862  0  0  0.0315  0  3.935022  0  0  -0.079809  0.024438  0  3.912626  0
C  C59  1  0.87391533  0.02393576  0.08004258  1  0  0.084613  0  3.656596  0  0  0.027423  0  3.921651  0  0  0.031672  0  3.9348  0  0  -0.079736  0.024602  0  3.912425  0
C  C60  1  0.12607374  0.47604377  0.58004173  1  0  0.084538  0  3.656387  0  0  0.027412  0  3.921468  0  0  0.031672  0  3.934594  0  0  -0.079795  0.02458  0  3.912269  0
C  C61  1  0.62607492  0.02396894  0.58004145  1  0  0.084627  0  3.656599  0  0  0.02748  0  3.921568  0  0  0.031725  0  3.934728  0  0  -0.079792  0.024661  0  3.912339  0
C  C62  1  0.37391103  0.47604871  0.08004151  1  0  0.08455  0  3.656768  0  0  0.027442  0  3.921695  0  0  0.031691  0  3.934849  0  0  -0.079746  0.024636  0  3.91245  0
C  C63  1  0.12609918  0.97605079  0.91995928  1  0  0.084577  0  3.656672  0  0  0.027541  0  3.921526  0  0  0.031789  0  3.934672  0  0  -0.079705  0.024729  0  3.912286  0
C  C64  1  0.01989499  0.44797292  0.46956986  1  0  -0.136175  0  3.705315  0  0  -0.174731  0  3.966133  0  0  -0.176825  0  3.981854  0  0  -0.168593  -0.173043  0  3.955027  0
C  C65  1  0.51990096  0.05204851  0.46957052  1  0  -0.135996  0  3.705116  0  0  -0.174634  0  3.966028  0  0  -0.17673  0  3.981757  0  0  -0.168521  -0.172941  0  3.954919  0
C  C66  1  0.48011219  0.44794835  0.96956987  1  0  -0.136168  0  3.705171  0  0  -0.174733  0  3.966063  0  0  -0.176828  0  3.981786  0  0  -0.16859  -0.173036  0  3.954958  0
C  C67  1  0.01990724  0.94795347  0.03043043  1  0  -0.136085  0  3.705001  0  0  -0.174728  0  3.966043  0  0  -0.17682  0  3.981753  0  0  -0.168575  -0.173042  0  3.954936  0
C  C68  1  0.98009153  0.55203651  0.53042973  1  0  -0.136414  0  3.705381  0  0  -0.174819  0  3.966137  0  0  -0.176914  0  3.981864  0  0  -0.1686  -0.173132  0  3.955035  0
C  C69  1  0.48010111  0.94797617  0.53042862  1  0  -0.136544  0  3.705521  0  0  -0.174941  0  3.966244  0  0  -0.177032  0  3.981953  0  0  -0.1686  -0.173253  0  3.955136  0
C  C70  1  0.51990077  0.55202601  0.03042837  1  0  -0.13638  0  3.705339  0  0  -0.174885  0  3.966157  0  0  -0.176976  0  3.981868  0  0  -0.168616  -0.173199  0  3.955045  0
C  C71  1  0.98011815  0.05202699  0.96957188  1  0  -0.136192  0  3.704988  0  0  -0.174778  0  3.965904  0  0  -0.176873  0  3.981632  0  0  -0.16856  -0.173089  0  3.954796  0
Se  Se72  1  0.89568219  0.94127120  0.30657523  1  0  -0.817725  0  2.190537  0  0  -0.700583  0  2.659129  0  0  -0.735757  0  2.629324  0  0  -0.356624  -0.675318  0  2.679812  0
Se  Se73  1  0.39568089  0.55873203  0.30657504  1  0  -0.817686  0  2.190505  0  0  -0.700558  0  2.659096  0  0  -0.73574  0  2.62931  0  0  -0.356607  -0.675291  0  2.67978  0
Se  Se74  1  0.60431893  0.94127073  0.80657550  1  0  -0.817666  0  2.190497  0  0  -0.700536  0  2.659089  0  0  -0.73572  0  2.629308  0  0  -0.35658  -0.675264  0  2.679757  0
Se  Se75  1  0.89568289  0.44126872  0.19342429  1  0  -0.81771  0  2.190498  0  0  -0.700597  0  2.65911  0  0  -0.735787  0  2.629336  0  0  -0.356624  -0.675323  0  2.679778  0
Se  Se76  1  0.10431833  0.05873060  0.69342481  1  0  -0.817728  0  2.190564  0  0  -0.700565  0  2.659133  0  0  -0.735735  0  2.629323  0  0  -0.356593  -0.675295  0  2.679802  0
Se  Se77  1  0.60431030  0.44127283  0.69342319  1  0  -0.817731  0  2.190507  0  0  -0.700558  0  2.65906  0  0  -0.735724  0  2.629246  0  0  -0.356619  -0.675296  0  2.679745  0
Se  Se78  1  0.39568159  0.05873107  0.19342409  1  0  -0.817727  0  2.190518  0  0  -0.700606  0  2.659121  0  0  -0.735788  0  2.629336  0  0  -0.35661  -0.675329  0  2.679788  0
Se  Se79  1  0.10431763  0.55872851  0.80657576  1  0  -0.817679  0  2.190485  0  0  -0.700548  0  2.659078  0  0  -0.735738  0  2.629307  0  0  -0.356597  -0.675279  0  2.679746  0
N  N80  1  0.91593757  0.43793362  0.35962082  1  0  -0.588215  0  3.170971  0  0  -0.521046  0  3.406861  0  0  -0.541056  0  3.406943  0  0  -0.635695  -0.507066  0  3.407058  0
N  N81  1  0.41593628  0.06207303  0.35962108  1  0  -0.588282  0  3.170948  0  0  -0.521106  0  3.406815  0  0  -0.541116  0  3.406895  0  0  -0.635707  -0.507129  0  3.407013  0
N  N82  1  0.58405684  0.43792848  0.85961931  1  0  -0.588307  0  3.171071  0  0  -0.521066  0  3.406939  0  0  -0.541077  0  3.407013  0  0  -0.635705  -0.507089  0  3.407138  0
N  N83  1  0.91594030  0.93792782  0.14038093  1  0  -0.588329  0  3.171076  0  0  -0.521112  0  3.406912  0  0  -0.541124  0  3.406989  0  0  -0.635686  -0.507135  0  3.40711  0
N  N84  1  0.08405517  0.56206208  0.64037923  1  0  -0.588347  0  3.1708  0  0  -0.521143  0  3.406812  0  0  -0.541154  0  3.406898  0  0  -0.635762  -0.507162  0  3.407008  0
N  N85  1  0.58405646  0.93794097  0.64037806  1  0  -0.588461  0  3.171006  0  0  -0.521254  0  3.406885  0  0  -0.54127  0  3.406974  0  0  -0.635801  -0.507271  0  3.40708  0
N  N86  1  0.41594212  0.56206875  0.14037847  1  0  -0.588217  0  3.17112  0  0  -0.520958  0  3.406891  0  0  -0.540968  0  3.406969  0  0  -0.635663  -0.506983  0  3.407087  0
N  N87  1  0.08405866  0.06206331  0.85962365  1  0  -0.588321  0  3.171129  0  0  -0.521081  0  3.406971  0  0  -0.541091  0  3.407053  0  0  -0.635781  -0.507108  0  3.407169  0
