# generated using pymatgen
data_SmCuH14C16N2O13
_symmetry_space_group_name_H-M   'P 1'
_cell_length_a   8.12036280
_cell_length_b   10.93008421
_cell_length_c   12.18056334
_cell_angle_alpha   108.66329641
_cell_angle_beta   101.12933664
_cell_angle_gamma   98.54831273
_symmetry_Int_Tables_number   1
_chemical_formula_structural   SmCuH14C16N2O13
_chemical_formula_sum   'Sm2 Cu2 H28 C32 N4 O26'
_cell_volume   978.90689922
_cell_formula_units_Z   2
loop_
 _symmetry_equiv_pos_site_id
 _symmetry_equiv_pos_as_xyz
  1  'x, y, z'
loop_
 _atom_site_type_symbol
 _atom_site_label
 _atom_site_symmetry_multiplicity
 _atom_site_fract_x
 _atom_site_fract_y
 _atom_site_fract_z
 _atom_site_occupancy
 _atom_site_hle17_ddec_charge
 _atom_site_hle17_ddec_spin_density
 _atom_site_hle17_ddec_sum_bond_order
 _atom_site_hle17_magmom
 _atom_site_hse06_10hf_ddec_charge
 _atom_site_hse06_10hf_ddec_spin_density
 _atom_site_hse06_10hf_ddec_sum_bond_order
 _atom_site_hse06_10hf_magmom
 _atom_site_hse06_ddec_charge
 _atom_site_hse06_ddec_spin_density
 _atom_site_hse06_ddec_sum_bond_order
 _atom_site_hse06_magmom
 _atom_site_pbe_cm5_charge
 _atom_site_pbe_ddec_charge
 _atom_site_pbe_ddec_spin_density
 _atom_site_pbe_ddec_sum_bond_order
 _atom_site_pbe_magmom
Sm  Sm0  1  0.04701593  0.26337981  0.07640174  1  2.303967  -0.000111  1.582673  0.0  2.218355  -0.000203  1.920465  0.0  2.260022  -7.6e-05  1.880542  0.0  1.479053  2.120554  -0.000375  2.075877  0.0
Sm  Sm1  1  0.95298214  0.73662062  0.92359792  1  2.303977  -0.000113  1.582648  0.0  2.218375  -0.000204  1.920437  0.0  2.260042  -7.8e-05  1.880516  0.0  1.479065  2.120582  -0.000376  2.075834  0.0
Cu  Cu2  1  0.98835552  0.76049882  0.45671131  1  0.823879  -0.689517  1.889798  -0.509  0.7921  -0.772082  2.297348  -0.618  0.879844  -0.837148  2.229587  -0.703  0.75405  0.738901  -0.725128  2.344566  -0.562
Cu  Cu3  1  0.01164323  0.23949962  0.54328786  1  0.823788  -0.689519  1.889893  -0.509  0.79204  -0.772082  2.297417  -0.618  0.879756  -0.837151  2.229679  -0.703  0.754046  0.738865  -0.72513  2.3446  -0.562
H  H4  1  0.03900456  0.34291684  0.84621582  1  0.433231  -4.6e-05  0.860625  0.0  0.405939  -3e-05  0.918119  0.0  0.416796  -2.6e-05  0.902283  0.0  0.297932  0.398036  -4.1e-05  0.929456  0.0
H  H5  1  0.96099505  0.65708457  0.15378515  1  0.433195  -4.3e-05  0.860666  0.0  0.405903  -3e-05  0.918159  0.0  0.416761  -2.6e-05  0.902322  0.0  0.29791  0.398002  -4.1e-05  0.929494  0.0
H  H6  1  0.88477766  0.38161158  0.89620242  1  0.448429  3e-06  0.845271  0.0  0.419418  1e-06  0.905576  0.0  0.431148  2e-06  0.88838  0.0  0.300528  0.410892  0.0  0.917825  0.0
H  H7  1  0.11522195  0.61838984  0.10379774  1  0.448437  3e-06  0.845263  0.0  0.419427  1e-06  0.905566  0.0  0.431156  2e-06  0.888372  0.0  0.300522  0.410901  0.0  0.917815  0.0
H  H8  1  0.75372814  0.02800311  0.92696779  1  0.436731  3e-06  0.846127  0.0  0.411029  4e-06  0.907411  0.0  0.420898  1e-06  0.892813  0.0  0.307485  0.403793  5e-06  0.917923  0.0
H  H9  1  0.24627118  0.97199730  0.07303285  1  0.436834  3e-06  0.84598  0.0  0.411099  4e-06  0.907332  0.0  0.420973  1e-06  0.892724  0.0  0.307498  0.403865  5e-06  0.917844  0.0
H  H10  1  0.77631185  0.12591512  0.86130606  1  0.42481  9.4e-05  0.858099  0.0  0.397975  5.5e-05  0.927618  0.0  0.406949  4.1e-05  0.914432  0.0  0.305584  0.391723  6.2e-05  0.936567  0.0
H  H11  1  0.22368845  0.87408433  0.13869360  1  0.424817  8.9e-05  0.858098  0.0  0.397984  5.5e-05  0.927606  0.0  0.40696  4.1e-05  0.914419  0.0  0.305578  0.391729  6.2e-05  0.936558  0.0
H  H12  1  0.37220981  0.21441917  0.20686850  1  0.428078  6.6e-05  0.837528  0.0  0.404484  4.4e-05  0.903988  0.0  0.41149  4.1e-05  0.89372  0.0  0.31979  0.399647  4.3e-05  0.909984  0.0
H  H13  1  0.62778828  0.78558130  0.79312789  1  0.428061  6.4e-05  0.837542  0.0  0.404469  4.4e-05  0.904008  0.0  0.411475  4.1e-05  0.893738  0.0  0.319787  0.399631  4.3e-05  0.909999  0.0
H  H14  1  0.23564320  0.11995967  0.23918416  1  0.448945  -0.000195  0.840798  0.0  0.418633  -0.000187  0.903161  0.0  0.428342  -0.000104  0.888944  0.0  0.312062  0.411514  -0.00028  0.913441  0.0
H  H15  1  0.76435670  0.88004275  0.76081551  1  0.448926  -0.000195  0.840824  0.0  0.41861  -0.000187  0.903193  0.0  0.42832  -0.000104  0.888975  0.0  0.312049  0.411494  -0.00028  0.913469  0.0
H  H16  1  0.54065048  0.46486470  0.28772229  1  0.1152  -0.000142  0.927988  0.0  0.12781  7.2e-05  0.982298  0.0  0.130719  7.8e-05  0.980155  0.0  0.121377  0.125413  5.5e-05  0.984435  0.0
H  H17  1  0.45935164  0.53513671  0.71227982  1  0.115191  -0.000143  0.927982  0.0  0.127798  7.2e-05  0.982291  0.0  0.130706  7.8e-05  0.98015  0.0  0.121354  0.125401  5.5e-05  0.984428  0.0
H  H18  1  0.44163402  0.36616605  0.42919401  1  0.122956  -0.000605  0.967388  0.0  0.128987  -0.00061  1.031668  0.0  0.13376  -0.000451  1.028872  0.0  0.111221  0.125449  -0.000737  1.034024  -0.001
H  H19  1  0.55836569  0.63383140  0.57080580  1  0.122953  -0.000602  0.967428  0.0  0.128992  -0.00061  1.031689  0.0  0.133764  -0.000451  1.028893  0.0  0.111227  0.125457  -0.000737  1.034039  -0.001
H  H20  1  0.65295399  0.27366298  0.54524856  1  0.099221  -0.000907  0.931465  -0.002  0.110119  -0.000769  0.987953  -0.002  0.113224  -0.00056  0.984648  -0.001  0.127555  0.107613  -0.000934  0.990705  -0.002
H  H21  1  0.34704824  0.72633448  0.45475076  1  0.09925  -0.000908  0.931476  -0.002  0.110143  -0.000769  0.987965  -0.002  0.113248  -0.000559  0.98466  -0.001  0.127543  0.107635  -0.000934  0.990717  -0.002
H  H22  1  0.55847014  0.00167032  0.19272317  1  0.113399  -9.3e-05  0.924099  0.0  0.126889  5.6e-05  0.975809  0.0  0.130663  6.1e-05  0.972858  0.0  0.118622  0.12381  4e-05  0.978684  0.0
H  H23  1  0.44152763  0.99832910  0.80727698  1  0.113441  -9.5e-05  0.92405  0.0  0.126899  5.6e-05  0.975804  0.0  0.130674  6.1e-05  0.972854  0.0  0.11863  0.123824  4e-05  0.97868  0.0
H  H24  1  0.43821991  0.91184705  0.33316103  1  0.121321  -0.000521  0.968759  0.0  0.126697  -0.000518  1.032134  0.0  0.132329  -0.000381  1.028062  0.0  0.109893  0.122538  -0.000634  1.035339  -0.001
H  H25  1  0.56177872  0.08815533  0.66684174  1  0.121342  -0.000516  0.968756  0.0  0.126731  -0.000518  1.032126  0.0  0.132362  -0.00038  1.028056  0.0  0.109913  0.122574  -0.000634  1.035331  -0.001
H  H26  1  0.62853382  0.81386224  0.45617011  1  0.090171  -0.000931  0.930271  -0.002  0.099632  -0.00082  0.991707  -0.001  0.102026  -0.000609  0.989022  -0.001  0.123699  0.097646  -0.000977  0.993987  -0.002
H  H27  1  0.37146521  0.18613718  0.54383020  1  0.090207  -0.00093  0.930263  -0.002  0.099652  -0.00082  0.991719  -0.001  0.102047  -0.00061  0.989033  -0.001  0.123702  0.097659  -0.000977  0.994  -0.002
H  H28  1  0.56959014  0.59364339  0.13176903  1  0.10504  -1.9e-05  0.925012  0.0  0.120491  -1.2e-05  0.983488  0.0  0.121986  -1.7e-05  0.984186  0.0  0.100688  0.119511  -6e-06  0.983199  0.0
H  H29  1  0.43040958  0.40635408  0.86822914  1  0.105023  -1.3e-05  0.924989  0.0  0.120505  -1.2e-05  0.983462  0.0  0.121998  -1.7e-05  0.98416  0.0  0.100694  0.119521  -6e-06  0.983177  0.0
H  H30  1  0.40691838  0.61603668  0.02580000  1  0.125687  3e-06  0.92703  0.0  0.140073  3e-06  0.982245  0.0  0.143094  2e-06  0.980925  0.0  0.107245  0.137688  3e-06  0.98391  0.0
H  H31  1  0.59308192  0.38396277  0.97419883  1  0.125671  9e-06  0.927057  0.0  0.140069  3e-06  0.982278  0.0  0.143088  3e-06  0.98096  0.0  0.107239  0.137688  3e-06  0.983943  0.0
C  C32  1  0.89688203  0.36206442  0.38387392  1  0.071881  0.00869  3.706085  0.006  0.066584  0.002562  3.954076  0.001  0.070486  0.003931  3.973112  0.002  0.115696  0.063709  0.001618  3.942733  0.001
C  C33  1  0.10311798  0.63793404  0.61612459  1  0.07202  0.008705  3.705978  0.006  0.066701  0.002562  3.954001  0.001  0.070602  0.00393  3.973041  0.002  0.11576  0.063828  0.001618  3.942657  0.001
C  C34  1  0.79157339  0.41869664  0.31862137  1  -0.067905  -0.006042  3.654006  -0.006  -0.0569  -0.002177  3.894689  -0.002  -0.063983  -0.002215  3.911749  -0.002  0.014881  -0.053264  -0.002207  3.884577  -0.002
C  C35  1  0.20842748  0.58130478  0.68137976  1  -0.067946  -0.006054  3.653937  -0.006  -0.056929  -0.002177  3.894634  -0.002  -0.064009  -0.002214  3.911693  -0.002  0.014895  -0.053295  -0.002207  3.884526  -0.002
C  C36  1  0.62624946  0.42108831  0.33654207  1  -0.010861  0.012435  3.646001  0.008  -0.037706  0.004836  3.893395  0.003  -0.031015  0.00545  3.90553  0.003  -0.053977  -0.042697  0.004353  3.886835  0.002
C  C37  1  0.37375266  0.57891311  0.66345922  1  -0.010856  0.012454  3.645945  0.008  -0.03769  0.004836  3.89332  0.003  -0.030999  0.005447  3.905451  0.003  -0.053959  -0.042681  0.004353  3.886762  0.002
C  C38  1  0.57084235  0.36708449  0.41591090  1  -0.112599  -0.009352  3.697062  -0.01  -0.123268  -0.004003  3.947747  -0.005  -0.128669  -0.003671  3.962435  -0.005  -0.074595  -0.120012  -0.004221  3.938616  -0.005
C  C39  1  0.42915920  0.63291495  0.58408892  1  -0.11262  -0.009369  3.697091  -0.01  -0.123294  -0.004004  3.94776  -0.005  -0.128695  -0.003669  3.962446  -0.005  -0.074616  -0.120037  -0.004221  3.938634  -0.005
C  C40  1  0.68446794  0.31469760  0.47941300  1  0.154199  0.011381  3.647239  0.008  0.122634  0.003226  3.90153  0.002  0.133585  0.004892  3.916393  0.003  0.059506  0.115421  0.001942  3.89226  0.001
C  C41  1  0.31553361  0.68530184  0.52058764  1  0.154222  0.011396  3.647255  0.008  0.122664  0.003227  3.901532  0.002  0.133616  0.004888  3.916397  0.003  0.059576  0.115451  0.001943  3.892261  0.001
C  C42  1  0.07737422  0.34967042  0.37611267  1  0.635065  0.006331  3.90578  0.005  0.587221  0.000953  4.213225  0.001  0.62387  0.001019  4.204681  0.001  0.214953  0.562155  0.000861  4.215656  0.001
C  C43  1  0.92262607  0.65032901  0.62388781  1  0.63501  0.006326  3.905703  0.005  0.587171  0.000953  4.213147  0.001  0.623821  0.001019  4.204604  0.001  0.214936  0.562105  0.00086  4.215582  0.001
C  C44  1  0.84596536  0.47608591  0.22995648  1  0.704987  -0.000365  3.892127  0.0  0.653132  -0.000394  4.197783  -0.001  0.689645  -0.000158  4.186267  0.0  0.230184  0.628633  -0.000661  4.201342  -0.001
C  C45  1  0.15403424  0.52391550  0.77004449  1  0.705097  -0.000354  3.89194  0.0  0.653204  -0.000394  4.197664  -0.001  0.689715  -0.000157  4.18615  0.0  0.230189  0.62871  -0.000661  4.201224  -0.001
C  C46  1  0.90887667  0.91679611  0.32415027  1  0.064292  0.004786  3.716588  0.002  0.054397  0.000864  3.973445  0.0  0.057827  0.002171  3.99148  0.001  0.111981  0.0515  -0.000357  3.963347  -0.001
C  C47  1  0.09112208  0.08320233  0.67584889  1  0.064299  0.004768  3.716534  0.002  0.054409  0.000862  3.973395  0.0  0.057839  0.002174  3.991434  0.001  0.112  0.05151  -0.000358  3.963304  -0.001
C  C48  1  0.81047325  0.96557056  0.24761164  1  -0.065545  -0.003562  3.661291  -0.004  -0.052764  -0.001119  3.90059  -0.001  -0.059028  -0.001111  3.917476  -0.001  0.016437  -0.049835  -0.001156  3.891781  -0.001
C  C49  1  0.18952617  0.03442589  0.75238867  1  -0.065623  -0.003537  3.661367  -0.004  -0.052812  -0.001117  3.900623  -0.001  -0.05908  -0.001114  3.917513  -0.001  0.016409  -0.049888  -0.001157  3.891822  -0.001
C  C50  1  0.63883116  0.96419619  0.25122559  1  0.001031  0.008734  3.634633  0.005  -0.027402  0.003064  3.880414  0.002  -0.022457  0.003572  3.894564  0.002  -0.050837  -0.031087  0.002531  3.872304  0.001
C  C51  1  0.36116759  0.03580225  0.74877439  1  0.000999  0.008721  3.634679  0.005  -0.027406  0.003063  3.880465  0.002  -0.022462  0.003576  3.894617  0.002  -0.050834  -0.031089  0.002531  3.872356  0.001
C  C52  1  0.57057253  0.91202096  0.32743743  1  -0.084012  -0.007199  3.672133  -0.008  -0.095441  -0.003076  3.921282  -0.004  -0.100706  -0.002707  3.936564  -0.003  -0.067743  -0.092123  -0.003313  3.911367  -0.004
C  C53  1  0.42942553  0.08797946  0.67256223  1  -0.083986  -0.007196  3.672168  -0.008  -0.095456  -0.003075  3.921354  -0.004  -0.100718  -0.002709  3.936632  -0.003  -0.067751  -0.092138  -0.003313  3.911436  -0.004
C  C54  1  0.67424466  0.85873368  0.39646683  1  0.144349  0.008558  3.663417  0.006  0.110781  0.002083  3.923087  0.001  0.121646  0.003415  3.938294  0.002  0.054796  0.103722  0.000958  3.913266  0.0
C  C55  1  0.32575157  0.14126475  0.60353283  1  0.144318  0.008536  3.663546  0.006  0.110777  0.002081  3.923236  0.001  0.121643  0.003418  3.938445  0.002  0.054819  0.103725  0.000958  3.913408  0.0
C  C56  1  0.09853711  0.92192090  0.33902122  1  0.619333  0.007986  3.913595  0.007  0.566802  0.001588  4.228867  0.002  0.602673  0.001623  4.222534  0.001  0.213187  0.542078  0.001398  4.233392  0.002
C  C57  1  0.90146260  0.07807654  0.66097859  1  0.619303  0.007992  3.913608  0.007  0.566766  0.001589  4.228886  0.002  0.602636  0.001623  4.222553  0.001  0.213152  0.542047  0.001397  4.233417  0.002
C  C58  1  0.88131148  0.01122644  0.15824771  1  0.733984  -0.00076  3.882798  -0.001  0.687807  -0.000686  4.174311  -0.001  0.723501  -0.000411  4.162284  -0.001  0.237966  0.662993  -0.000991  4.178195  -0.001
C  C59  1  0.11868687  0.98877498  0.84175228  1  0.734097  -0.000762  3.882632  -0.001  0.687911  -0.000685  4.174147  -0.001  0.723605  -0.00041  4.162123  -0.001  0.238073  0.663107  -0.000991  4.17803  -0.001
C  C60  1  0.33217609  0.45434070  0.08132217  1  0.692052  4e-05  3.876736  0.0  0.64587  1.3e-05  4.189172  0.0  0.678479  -4e-06  4.181352  0.0  0.193194  0.624979  9e-06  4.186219  0.0
C  C61  1  0.66782421  0.54565875  0.91867667  1  0.692094  4.3e-05  3.876664  0.0  0.645925  1.3e-05  4.189112  0.0  0.678533  -4e-06  4.181287  0.0  0.193226  0.625034  8e-06  4.18616  0.0
C  C62  1  0.46401659  0.54042167  0.04989042  1  -0.235426  9e-06  3.657931  0.0  -0.271614  6e-06  3.902994  0.0  -0.277162  9e-06  3.911519  0.0  -0.163132  -0.268603  3e-06  3.898849  0.0
C  C63  1  0.53598216  0.45957680  0.95010710  1  -0.235359  -1.1e-05  3.657891  0.0  -0.271638  6e-06  3.903024  0.0  -0.277183  9e-06  3.911544  0.0  -0.163111  -0.268627  3e-06  3.898885  0.0
N  N64  1  0.84245842  0.31338616  0.46287400  1  -0.306768  -0.073707  3.386156  -0.095  -0.266178  -0.050596  3.690029  -0.069  -0.295448  -0.041713  3.71055  -0.061  -0.355453  -0.249256  -0.055278  3.679152  -0.072
N  N65  1  0.15754312  0.68661327  0.53712663  1  -0.306937  -0.07371  3.38621  -0.095  -0.266345  -0.050596  3.690097  -0.069  -0.295623  -0.041711  3.710624  -0.061  -0.355562  -0.249415  -0.055277  3.679222  -0.072
N  N66  1  0.83878373  0.86177486  0.39414184  1  -0.304446  -0.066505  3.392787  -0.085  -0.262352  -0.046054  3.694371  -0.062  -0.290987  -0.037531  3.71553  -0.055  -0.351916  -0.245448  -0.050713  3.682462  -0.065
N  N67  1  0.16121376  0.13822359  0.60585716  1  -0.30443  -0.066495  3.392839  -0.085  -0.262365  -0.046052  3.694447  -0.062  -0.290999  -0.037532  3.715609  -0.055  -0.351953  -0.245467  -0.050711  3.682531  -0.065
O  O68  1  0.15770517  0.30293642  0.45001543  1  -0.57733  -0.079342  2.038896  -0.11  -0.552724  -0.054856  2.328549  -0.083  -0.593416  -0.041695  2.31977  -0.068  -0.31641  -0.526093  -0.063543  2.33525  -0.091
O  O69  1  0.84229414  0.69706399  0.54998603  1  -0.577358  -0.079335  2.038878  -0.11  -0.552756  -0.054855  2.328538  -0.083  -0.593455  -0.041694  2.319761  -0.068  -0.316426  -0.526119  -0.063539  2.33525  -0.091
O  O70  1  0.96316895  0.31819685  0.89438847  1  -0.925197  1.8e-05  1.844352  0.0  -0.88173  3e-05  2.027428  0.0  -0.900476  3.7e-05  1.994093  0.0  -0.640675  -0.85979  -1.1e-05  2.055313  0.0
O  O71  1  0.03682758  0.68180259  0.10560987  1  -0.925161  1.5e-05  1.844376  0.0  -0.881714  3e-05  2.027486  0.0  -0.900458  3.7e-05  1.994153  0.0  -0.64066  -0.859777  -1e-05  2.055364  0.0
O  O72  1  0.14189733  0.38492304  0.30229084  1  -0.663384  -0.013866  2.019594  -0.019  -0.629307  -0.007377  2.263474  -0.011  -0.654273  -0.003427  2.255126  -0.005  -0.348122  -0.603075  -0.011818  2.269381  -0.016
O  O73  1  0.85810324  0.61507737  0.69771078  1  -0.663328  -0.01387  2.019575  -0.019  -0.629248  -0.007376  2.263454  -0.011  -0.654217  -0.003428  2.255107  -0.005  -0.348088  -0.603016  -0.011817  2.269363  -0.016
O  O74  1  0.76144793  0.12240662  0.93844499  1  -0.86557  8.3e-05  1.843709  0.0  -0.828033  9e-05  2.021996  0.0  -0.845383  7e-05  1.993002  0.0  -0.625239  -0.808488  0.0001  2.046429  0.0
O  O75  1  0.23855168  0.87759480  0.06155516  1  -0.865659  9.3e-05  1.843557  0.0  -0.828125  9e-05  2.021874  0.0  -0.845477  7e-05  1.992876  0.0  -0.625248  -0.808587  0.0001  2.046309  0.0
O  O76  1  0.87363698  0.60090450  0.25992240  1  -0.626479  -5.7e-05  1.994859  -0.002  -0.578876  0.000559  2.23653  -0.001  -0.61041  0.001043  2.225979  0.0  -0.299156  -0.557126  -0.000117  2.24393  -0.001
O  O77  1  0.12636640  0.39909693  0.74007825  1  -0.626501  -6.6e-05  1.99474  -0.002  -0.578888  0.000557  2.23643  -0.001  -0.610418  0.001043  2.225879  0.0  -0.299145  -0.557144  -0.000117  2.243831  -0.001
O  O78  1  0.26126959  0.15119305  0.17518003  1  -0.879381  -0.000268  1.926395  0.0  -0.835383  -0.000181  2.111466  0.0  -0.851966  -9.2e-05  2.08311  0.0  -0.592746  -0.816695  -0.00029  2.133578  0.0
O  O79  1  0.73872848  0.84880739  0.82481881  1  -0.879331  -0.000265  1.926407  0.0  -0.835372  -0.000181  2.111523  0.0  -0.851949  -9.1e-05  2.083167  0.0  -0.59275  -0.816683  -0.000291  2.133626  0.0
O  O80  1  0.84817947  0.39518821  0.12954058  1  -0.70165  -0.001417  2.017611  -0.002  -0.656081  -0.000689  2.264274  -0.001  -0.681264  -0.000388  2.252257  0.0  -0.390643  -0.628533  -0.001059  2.273738  -0.001
O  O81  1  0.15181956  0.60481121  0.87046055  1  -0.701728  -0.001415  2.017581  -0.002  -0.656133  -0.000689  2.26424  -0.001  -0.681307  -0.000388  2.252207  0.0  -0.390663  -0.628582  -0.001059  2.273693  -0.001
O  O82  1  0.16073845  0.85328795  0.39843654  1  -0.570852  -0.095834  2.053407  -0.132  -0.548136  -0.064296  2.338985  -0.096  -0.591504  -0.048592  2.332891  -0.079  -0.317575  -0.51975  -0.074192  2.343754  -0.105
O  O83  1  0.83926183  0.14671147  0.60156475  1  -0.570807  -0.095843  2.053389  -0.132  -0.548123  -0.064297  2.338994  -0.096  -0.591484  -0.048592  2.3329  -0.079  -0.317551  -0.519739  -0.074189  2.343758  -0.105
O  O84  1  0.18802710  0.99225263  0.29891768  1  -0.597115  -0.015641  2.000715  -0.021  -0.545598  -0.008292  2.226736  -0.012  -0.57193  -0.003824  2.218227  -0.006  -0.291843  -0.52668  -0.013168  2.23227  -0.018
O  O85  1  0.81197347  0.00774778  0.70108394  1  -0.597118  -0.015641  2.00074  -0.021  -0.545578  -0.008292  2.226744  -0.012  -0.57191  -0.003823  2.218234  -0.006  -0.291826  -0.526663  -0.013165  2.232286  -0.018
O  O86  1  0.90456819  0.13391743  0.17575749  1  -0.714451  -0.00051  2.032006  -0.001  -0.670898  -0.000203  2.276204  0.0  -0.698014  -5.1e-05  2.267677  0.0  -0.373827  -0.643436  -0.000455  2.283547  -0.001
O  O87  1  0.09543044  0.86608496  0.82424446  1  -0.714521  -0.000512  2.031991  -0.001  -0.670971  -0.000204  2.276192  0.0  -0.698091  -5.1e-05  2.267664  0.0  -0.373897  -0.643511  -0.000455  2.283536  -0.001
O  O88  1  0.90478068  0.92307870  0.07030320  1  -0.728853  -0.001529  2.082584  -0.002  -0.689053  -0.000836  2.340492  -0.001  -0.71418  -0.000508  2.328256  -0.001  -0.384404  -0.660833  -0.001208  2.349568  -0.002
O  O89  1  0.09522541  0.07692774  0.92969517  1  -0.728862  -0.001529  2.082425  -0.002  -0.689041  -0.000837  2.340293  -0.001  -0.714151  -0.000508  2.328023  -0.001  -0.384427  -0.660823  -0.001208  2.349378  -0.002
O  O90  1  0.34067002  0.33428837  0.06629092  1  -0.711835  -3.7e-05  1.934615  0.0  -0.670288  0.0  2.173051  0.0  -0.694104  2.3e-05  2.163804  0.0  -0.399401  -0.646356  -2.9e-05  2.178969  0.0
O  O91  1  0.65932902  0.66571107  0.93370857  1  -0.711855  -3.7e-05  1.934615  0.0  -0.670291  -0.0  2.173026  0.0  -0.694114  2.4e-05  2.163793  0.0  -0.399401  -0.646361  -3e-05  2.178944  0.0
O  O92  1  0.21130127  0.49998017  0.12257015  1  -0.712576  -0.000138  2.014148  0.0  -0.664076  -4.4e-05  2.247479  0.0  -0.688571  -1.4e-05  2.236319  0.0  -0.361889  -0.640707  -8.2e-05  2.254333  0.0
O  O93  1  0.78869903  0.50001928  0.87742869  1  -0.712592  -0.000138  2.014117  0.0  -0.664101  -4.4e-05  2.247451  0.0  -0.688593  -1.4e-05  2.236287  0.0  -0.361909  -0.640732  -8.3e-05  2.254308  0.0
