# generated using pymatgen
data_TbH15C21O8
_symmetry_space_group_name_H-M   'P 1'
_cell_length_a   12.80533125
_cell_length_b   14.02536578
_cell_length_c   17.86371944
_cell_angle_alpha   100.51904033
_cell_angle_beta   111.03803488
_cell_angle_gamma   89.98842188
_symmetry_Int_Tables_number   1
_chemical_formula_structural   TbH15C21O8
_chemical_formula_sum   'Tb4 H60 C84 O32'
_cell_volume   2936.65990456
_cell_formula_units_Z   4
loop_
 _symmetry_equiv_pos_site_id
 _symmetry_equiv_pos_as_xyz
  1  'x, y, z'
loop_
 _atom_site_type_symbol
 _atom_site_label
 _atom_site_symmetry_multiplicity
 _atom_site_fract_x
 _atom_site_fract_y
 _atom_site_fract_z
 _atom_site_occupancy
 _atom_site_pbe_bader_charge
 _atom_site_pbe_bader_spin_density
 _atom_site_pbe_cm5_charge
 _atom_site_pbe_ddec_charge
 _atom_site_pbe_ddec_spin_density
 _atom_site_pbe_ddec_sum_bond_order
 _atom_site_pbe_magmom
Tb  Tb0  1  0.48589957  0.95441992  0.38611729  1  2.154566  0  1.50053  2.045806  0  2.152007  0
Tb  Tb1  1  0.10004340  0.54548456  0.61400932  1  2.157019  0  1.498777  2.034941  0  2.17093  0
Tb  Tb2  1  0.51409379  0.04557488  0.61388229  1  2.154614  0  1.500466  2.04566  0  2.152072  0
Tb  Tb3  1  0.89994365  0.45451970  0.38598987  1  2.157109  0  1.498821  2.03493  0  2.170999  0
H  H4  1  0.79429965  0.18714499  0.45717268  1  0.111468  0  0.115325  0.129583  0  0.988373  0
H  H5  1  0.33720027  0.31283465  0.54277243  1  0.109571  0  0.115425  0.129832  0  0.987188  0
H  H6  1  0.20568182  0.81284981  0.54282519  1  0.111182  0  0.115283  0.129555  0  0.988403  0
H  H7  1  0.66278793  0.68715579  0.45722669  1  0.109535  0  0.115369  0.129621  0  0.987207  0
H  H8  1  0.05291103  0.29431837  0.69081602  1  0.088854  0  0.110351  0.115353  0  1.020607  0
H  H9  1  0.36132274  0.20521949  0.30902302  1  0.08597  0  0.110272  0.115303  0  1.021203  0
H  H10  1  0.94707690  0.70568444  0.30917410  1  0.088861  0  0.110346  0.115389  0  1.020375  0
H  H11  1  0.63868373  0.79478913  0.69097900  1  0.085984  0  0.110281  0.115316  0  1.021267  0
H  H12  1  0.81202509  0.06248838  0.66433447  1  0.134001  0  0.114495  0.129705  0  1.029052  0
H  H13  1  0.14749019  0.43756320  0.33564043  1  0.108456  0  0.114148  0.128592  0  1.02924  0
H  H14  1  0.18797780  0.93750860  0.33567045  1  0.134031  0  0.114463  0.129623  0  1.029231  0
H  H15  1  0.85252871  0.56245268  0.66436607  1  0.10867  0  0.114098  0.128636  0  1.029155  0
H  H16  1  0.16569303  0.20929885  0.77663948  1  0.054134  0  0.102211  0.102139  0  1.005174  0
H  H17  1  0.38927874  0.29063572  0.22365653  1  0.06758  0  0.10212  0.102257  0  1.004135  0
H  H18  1  0.83432363  0.79070904  0.22336090  1  0.054627  0  0.102202  0.102198  0  1.005136  0
H  H19  1  0.61074122  0.70939760  0.77636147  1  0.068202  0  0.102125  0.102245  0  1.004104  0
H  H20  1  0.26876004  0.17973740  0.91425463  1  0.052201  0  0.100095  0.096854  0  1.008676  0
H  H21  1  0.35470474  0.32006697  0.08597303  1  0.059768  0  0.100117  0.096575  0  1.007299  0
H  H22  1  0.73125375  0.82027339  0.08574894  1  0.052319  0  0.100139  0.096856  0  1.008646  0
H  H23  1  0.64531278  0.67995690  0.91404017  1  0.060191  0  0.100065  0.096575  0  1.007278  0
H  H24  1  0.95774068  0.09054097  0.93221841  1  0.084857  0  0.098311  0.096968  0  1.032494  0
H  H25  1  0.02557899  0.40944517  0.06770262  1  0.061672  0  0.098277  0.09617  0  1.032306  0
H  H26  1  0.04227012  0.90945021  0.06777243  1  0.084729  0  0.098341  0.096961  0  1.032388  0
H  H27  1  0.97443623  0.59057071  0.93230603  1  0.061134  0  0.09822  0.096141  0  1.032191  0
H  H28  1  0.85434491  0.12159029  0.79557647  1  0.062172  0  0.10082  0.109262  0  1.03271  0
H  H29  1  0.05911699  0.37906547  0.20455342  1  0.06981  0  0.100751  0.10902  0  1.033001  0
H  H30  1  0.14567349  0.87840016  0.20441677  1  0.06193  0  0.100821  0.10918  0  1.03256  0
H  H31  1  0.94088719  0.62093878  0.79545091  1  0.069862  0  0.100774  0.109096  0  1.03305  0
H  H32  1  0.32981846  0.06440306  0.98164420  1  0.047676  0  0.10016  0.099321  0  1.00894  0
H  H33  1  0.34842538  0.43506194  0.01864939  1  0.065447  0  0.100117  0.099055  0  1.010495  0
H  H34  1  0.67018751  0.93558592  0.01835647  1  0.048025  0  0.100219  0.099366  0  1.008874  0
H  H35  1  0.65157881  0.56493941  0.98134899  1  0.065546  0  0.100134  0.09905  0  1.010441  0
H  H36  1  0.43373619  0.01090146  0.11202452  1  0.085202  0  0.104276  0.108446  0  0.99632  0
H  H37  1  0.32236728  0.48869225  0.88846976  1  0.073714  0  0.103975  0.107881  0  0.996613  0
H  H38  1  0.56625664  0.98908826  0.88797657  1  0.08499  0  0.104286  0.108471  0  0.996236  0
H  H39  1  0.67763374  0.51128948  0.11151979  1  0.073432  0  0.104008  0.108023  0  0.99658  0
H  H40  1  0.15713777  0.07299702  0.19097299  1  0.098833  0  0.106726  0.109823  0  0.993068  0
H  H41  1  0.96655813  0.42697930  0.80893866  1  0.080377  0  0.106901  0.109836  0  0.994352  0
H  H42  1  0.84285483  0.92699125  0.80901713  1  0.098201  0  0.106713  0.109807  0  0.992948  0
H  H43  1  0.03343848  0.57300750  0.19106583  1  0.080439  0  0.106854  0.109842  0  0.994268  0
H  H44  1  0.05526446  0.13286176  0.06364698  1  0.068271  0  0.10345  0.105189  0  0.999512  0
H  H45  1  0.99159536  0.36734192  0.93622505  1  0.062053  0  0.103303  0.104857  0  1.000404  0
H  H46  1  0.94473586  0.86714178  0.93634866  1  0.068254  0  0.103459  0.105179  0  0.999538  0
H  H47  1  0.00841701  0.63265650  0.06378507  1  0.065719  0  0.103296  0.104828  0  1.000454  0
H  H48  1  0.56889465  0.87928069  0.26867422  1  0.626715  0  0.31846  0.411879  0  0.892323  0
H  H49  1  0.30123009  0.62053970  0.73167067  1  0.619154  0  0.31861  0.412347  0  0.891271  0
H  H50  1  0.43110257  0.12071265  0.73132979  1  0.626566  0  0.318482  0.411896  0  0.892291  0
H  H51  1  0.69876309  0.37946674  0.26832973  1  0.618835  0  0.318629  0.412371  0  0.891274  0
H  H52  1  0.67398254  0.88392274  0.34757796  1  0.620028  0  0.329111  0.416924  0  0.872525  0
H  H53  1  0.32685988  0.61582514  0.65259673  1  0.616427  0  0.3289  0.416766  0  0.872763  0
H  H54  1  0.32601929  0.11607351  0.65242260  1  0.62  0  0.329111  0.416914  0  0.872542  0
H  H55  1  0.67312894  0.38418494  0.34740140  1  0.616397  0  0.328821  0.416627  0  0.872971  0
H  H56  1  0.30011776  0.79721593  0.32130438  1  0.618618  0  0.319324  0.397051  0  0.910837  0
H  H57  1  0.97887718  0.70257988  0.67896491  1  0.63074  0  0.318875  0.397116  0  0.910812  0
H  H58  1  0.69987702  0.20278398  0.67868722  1  0.618629  0  0.319257  0.396988  0  0.910895  0
H  H59  1  0.02110801  0.29741493  0.32103003  1  0.630648  0  0.318839  0.397071  0  0.910877  0
H  H60  1  0.41898605  0.75832908  0.35847191  1  0.628044  0  0.327009  0.417198  0  0.877145  0
H  H61  1  0.06043869  0.74148937  0.64177303  1  0.640003  0  0.327176  0.418231  0  0.876019  0
H  H62  1  0.58100491  0.24166572  0.64152780  1  0.628195  0  0.327001  0.417173  0  0.877187  0
H  H63  1  0.93954449  0.25851053  0.35822367  1  0.640261  0  0.32726  0.418377  0  0.875839  0
C  C64  1  0.69313731  0.05347728  0.50330760  1  1.555489  0  0.219868  0.639018  0  4.16304  0
C  C65  1  0.18975386  0.44662717  0.49659741  1  1.558269  0  0.220042  0.639765  0  4.161543  0
C  C66  1  0.30685556  0.94651971  0.49669414  1  1.55591  0  0.219741  0.63883  0  4.163247  0
C  C67  1  0.81024033  0.55337199  0.50340580  1  1.558224  0  0.220003  0.63981  0  4.161299  0
C  C68  1  0.79325941  0.11937403  0.55628095  1  -0.06349  0  -0.016549  -0.035747  0  4.006805  0
C  C69  1  0.23684447  0.38066141  0.44365534  1  -0.002807  0  -0.016648  -0.035697  0  4.006481  0
C  C70  1  0.20673263  0.88062514  0.44371691  1  -0.063109  0  -0.01656  -0.035677  0  4.00661  0
C  C71  1  0.76315560  0.61934212  0.55634577  1  -0.002773  0  -0.016603  -0.035822  0  4.006609  0
C  C72  1  0.83511970  0.18469574  0.52172246  1  -0.084374  0  -0.072876  -0.10221  0  3.914356  0
C  C73  1  0.31325996  0.31526372  0.47820981  1  -0.017904  0  -0.072799  -0.10155  0  3.912228  0
C  C74  1  0.16486821  0.81530343  0.47827386  1  -0.084059  0  -0.072886  -0.102278  0  3.914017  0
C  C75  1  0.68673624  0.68473107  0.52179333  1  -0.017802  0  -0.072685  -0.101162  0  3.912071  0
C  C76  1  0.92801259  0.24829833  0.57134760  1  0.007573  0  -0.015382  -0.033875  0  3.974796  0
C  C77  1  0.35626062  0.25149518  0.42853951  1  -0.04349  0  -0.015631  -0.036032  0  3.975293  0
C  C78  1  0.07196385  0.75170158  0.42863931  1  0.006958  0  -0.015448  -0.034078  0  3.974657  0
C  C79  1  0.64374097  0.74851199  0.57146174  1  -0.043501  0  -0.015583  -0.035993  0  3.975239  0
C  C80  1  0.98080045  0.24358035  0.65394525  1  0.01888  0  -0.071369  -0.121622  0  3.895345  0
C  C81  1  0.32639047  0.25619421  0.34593948  1  -0.02325  0  -0.07098  -0.120852  0  3.895049  0
C  C82  1  0.01919269  0.75642101  0.34604571  1  0.019432  0  -0.071228  -0.1214  0  3.895113  0
C  C83  1  0.67361406  0.74381295  0.65406299  1  -0.023327  0  -0.07098  -0.120852  0  3.894904  0
C  C84  1  0.94146939  0.17659459  0.68906627  1  -0.004923  0  -0.00537  0.066724  0  4.013164  0
C  C85  1  0.25226353  0.32345781  0.31091451  1  -0.042896  0  -0.006253  0.065466  0  4.014595  0
C  C86  1  0.05853839  0.82340386  0.31092635  1  -0.005133  0  -0.005466  0.066766  0  4.013128  0
C  C87  1  0.74775220  0.67655007  0.68909314  1  -0.043224  0  -0.006221  0.065516  0  4.014495  0
C  C88  1  0.84483808  0.11584578  0.63938028  1  -0.072599  0  -0.080506  -0.164743  0  3.91886  0
C  C89  1  0.20531080  0.38418533  0.36056834  1  -0.06719  0  -0.079949  -0.163222  0  3.918601  0
C  C90  1  0.15515865  0.88415121  0.36061541  1  -0.072679  0  -0.080492  -0.164755  0  3.919024  0
C  C91  1  0.79469971  0.61582473  0.63944015  1  -0.06704  0  -0.079972  -0.163361  0  3.918554  0
C  C92  1  0.96931042  0.32417397  0.53731306  1  1.590175  0  0.232623  0.650722  0  4.148132  0
C  C93  1  0.43158076  0.17557129  0.46254327  1  1.587999  0  0.233107  0.651744  0  4.147324  0
C  C94  1  0.03067296  0.67582884  0.46268490  1  1.589775  0  0.232711  0.651004  0  4.147873  0
C  C95  1  0.56841690  0.82443296  0.53745964  1  1.587527  0  0.233063  0.651669  0  4.147606  0
C  C96  1  0.00201801  0.16656649  0.77460765  1  0.036834  0  -0.011127  0.061283  0  4.00742  0
C  C97  1  0.22752509  0.33363386  0.22550180  1  0.00964  0  -0.011065  0.062406  0  4.008426  0
C  C98  1  0.99799591  0.83342832  0.22538734  1  0.036604  0  -0.011169  0.060999  0  4.007614  0
C  C99  1  0.77248512  0.66637839  0.77450416  1  0.009146  0  -0.01113  0.062372  0  4.008734  0
C  C100  1  0.11931402  0.18361685  0.81059781  1  -0.089176  0  -0.089145  -0.122056  0  3.992064  0
C  C101  1  0.30890603  0.31641226  0.18963530  1  -0.043597  0  -0.089189  -0.123014  0  3.991466  0
C  C102  1  0.88070162  0.81638522  0.18940028  1  -0.08955  0  -0.089059  -0.121979  0  3.992221  0
C  C103  1  0.69110814  0.68360580  0.81037417  1  -0.043622  0  -0.089161  -0.122888  0  3.991333  0
C  C104  1  0.17784677  0.16574506  0.88826470  1  -0.078428  0  -0.090133  -0.12473  0  3.999231  0
C  C105  1  0.28976146  0.33416789  0.11192615  1  -0.048366  0  -0.089623  -0.123526  0  3.994858  0
C  C106  1  0.82216595  0.83425847  0.11173476  1  -0.077907  0  -0.09024  -0.124857  0  3.999266  0
C  C107  1  0.71025502  0.66584944  0.88808385  1  -0.048723  0  -0.089468  -0.123543  0  3.994692  0
C  C108  1  0.12186375  0.13037155  0.93359811  1  -0.018261  0  -0.007841  0.062508  0  4.001893  0
C  C109  1  0.18837706  0.36952508  0.06647052  1  -0.053881  0  -0.008553  0.060866  0  3.999565  0
C  C110  1  0.87814542  0.86963198  0.06640037  1  -0.018328  0  -0.007819  0.06253  0  4.001725  0
C  C111  1  0.81163559  0.63048063  0.93353478  1  -0.053742  0  -0.008728  0.060893  0  3.999481  0
C  C112  1  0.00413908  0.11816572  0.89915680  1  -0.059418  0  -0.09006  -0.121684  0  3.981226  0
C  C113  1  0.10510972  0.38192245  0.10087595  1  -0.055599  0  -0.089369  -0.118865  0  3.979378  0
C  C114  1  0.99587247  0.88182764  0.10083495  1  -0.060349  0  -0.090112  -0.121767  0  3.981076  0
C  C115  1  0.89490408  0.61808980  0.89913021  1  -0.055116  0  -0.089237  -0.118741  0  3.979145  0
C  C116  1  0.94537763  0.13539554  0.82121128  1  5.7e-05  0  -0.09266  -0.128121  0  3.971118  0
C  C117  1  0.12436720  0.36498230  0.17888077  1  0.001296  0  -0.09236  -0.128829  0  3.971536  0
C  C118  1  0.05463482  0.86459491  0.17878110  1  0.000836  0  -0.09251  -0.127706  0  3.970746  0
C  C119  1  0.87564020  0.63502486  0.82112447  1  0.000966  0  -0.092451  -0.129096  0  3.972009  0
C  C120  1  0.18417147  0.10194793  0.01240280  1  -0.016139  0  -0.000581  0.077455  0  3.994062  0
C  C121  1  0.17191437  0.39783445  0.98765403  1  0.017815  0  -0.001122  0.077127  0  3.993907  0
C  C122  1  0.81583648  0.89805560  0.98759614  1  -0.016427  0  -0.000507  0.077627  0  3.994076  0
C  C123  1  0.82809586  0.60217198  0.01235309  1  0.017643  0  -0.001141  0.077108  0  3.993783  0
C  C124  1  0.29229891  0.06843072  0.02804170  1  -0.025629  0  -0.092659  -0.139722  0  3.989357  0
C  C125  1  0.26455345  0.43115560  0.97215656  1  -0.078091  0  -0.092709  -0.139785  0  3.990892  0
C  C126  1  0.70770971  0.93156262  0.97196191  1  -0.025447  0  -0.092843  -0.139808  0  3.989293  0
C  C127  1  0.73545137  0.56884210  0.02784702  1  -0.078079  0  -0.092726  -0.139759  0  3.990717  0
C  C128  1  0.35032642  0.03718130  0.10032517  1  -0.062652  0  -0.083892  -0.083732  0  3.986297  0
C  C129  1  0.25048119  0.46242744  0.89993859  1  -0.039424  0  -0.083333  -0.082253  0  3.986542  0
C  C130  1  0.64967617  0.96281204  0.89967914  1  -0.06279  0  -0.083854  -0.08384  0  3.986401  0
C  C131  1  0.74951845  0.53756228  0.10005765  1  -0.039281  0  -0.083338  -0.08247  0  3.98674  0
C  C132  1  0.30117028  0.03690307  0.15893278  1  -0.035496  0  -0.022388  -0.045109  0  3.981118  0
C  C133  1  0.14273259  0.46278462  0.84119024  1  -0.016857  0  -0.02189  -0.044957  0  3.980709  0
C  C134  1  0.69882342  0.96308882  0.84106688  1  -0.035891  0  -0.022426  -0.045126  0  3.981173  0
C  C135  1  0.85726163  0.53720582  0.15880817  1  -0.017134  0  -0.021933  -0.04487  0  3.980931  0
C  C136  1  0.19434577  0.07157584  0.14470374  1  -0.110025  0  -0.078667  -0.080872  0  3.978172  0
C  C137  1  0.04999644  0.42829399  0.85531672  1  -0.017673  0  -0.079428  -0.081584  0  3.979582  0
C  C138  1  0.80565358  0.92841896  0.85529592  1  -0.109101  0  -0.07862  -0.080828  0  3.977905  0
C  C139  1  0.95000079  0.57169426  0.14469014  1  -0.017179  0  -0.079355  -0.081495  0  3.97942  0
C  C140  1  0.13706897  0.10404425  0.07276259  1  0.038085  0  -0.087059  -0.131884  0  3.970833  0
C  C141  1  0.06445820  0.39591287  0.92723462  1  -0.049377  0  -0.086671  -0.131245  0  3.971743  0
C  C142  1  0.86293455  0.89595855  0.92724016  1  0.038044  0  -0.087094  -0.131947  0  3.970991  0
C  C143  1  0.93554568  0.60408338  0.07277363  1  -0.053118  0  -0.0866  -0.13127  0  3.971877  0
C  C144  1  0.36177170  0.99918511  0.23442682  1  1.514675  0  0.192675  0.579724  0  4.227057  0
C  C145  1  0.12786781  0.50043038  0.76563314  1  1.51602  0  0.192887  0.57987  0  4.223359  0
C  C146  1  0.63821460  0.00080098  0.76556600  1  1.514884  0  0.192613  0.579577  0  4.226832  0
C  C147  1  0.87212858  0.49956298  0.23436272  1  1.515596  0  0.19265  0.579421  0  4.22343  0
O  O148  1  0.60002650  0.84997867  0.31736408  1  -1.205235  0  -0.606999  -0.790524  0  1.936246  0
O  O149  1  0.28335336  0.64982604  0.68295973  1  -1.194538  0  -0.606366  -0.789515  0  1.935243  0
O  O150  1  0.39997521  0.15001831  0.68264051  1  -1.20506  0  -0.606995  -0.790533  0  1.936211  0
O  O151  1  0.71662820  0.35017604  0.31703723  1  -1.194226  0  -0.606339  -0.789424  0  1.93539  0
O  O152  1  0.37494369  0.79633254  0.31854088  1  -1.213422  0  -0.604862  -0.787809  0  1.996014  0
O  O153  1  0.05644307  0.70341051  0.68166302  1  -1.236668  0  -0.604717  -0.788123  0  1.994852  0
O  O154  1  0.62505674  0.20366880  0.68146120  1  -1.213651  0  -0.604797  -0.787723  0  1.996016  0
O  O155  1  0.94354321  0.29659230  0.31833694  1  -1.236831  0  -0.604779  -0.788219  0  1.994861  0
O  O156  1  0.67513345  0.02458266  0.42789437  1  -1.173293  0  -0.373475  -0.628196  0  2.1714  0
O  O157  1  0.24738289  0.47566375  0.57198218  1  -1.180354  0  -0.373524  -0.627295  0  2.171692  0
O  O158  1  0.32485752  0.97541142  0.57210366  1  -1.173949  0  -0.373396  -0.628096  0  2.17159  0
O  O159  1  0.75260344  0.52433833  0.42801531  1  -1.180199  0  -0.373581  -0.62738  0  2.171367  0
O  O160  1  0.62382465  0.02765857  0.53438093  1  -1.211575  0  -0.437272  -0.75638  0  2.457075  0
O  O161  1  0.08928790  0.47237673  0.46550537  1  -1.212478  0  -0.436573  -0.753777  0  2.458046  0
O  O162  1  0.37616253  0.97234424  0.46561254  1  -1.211357  0  -0.437202  -0.756274  0  2.456928  0
O  O163  1  0.91070337  0.52762536  0.53448873  1  -1.212451  0  -0.436562  -0.753696  0  2.457948  0
O  O164  1  0.31152098  0.98481918  0.28206283  1  -1.178182  0  -0.378749  -0.631996  0  2.234023  0
O  O165  1  0.02987652  0.51470978  0.71793474  1  -1.186008  0  -0.379275  -0.631152  0  2.232834  0
O  O166  1  0.68847320  0.01517781  0.71793611  1  -1.177875  0  -0.378781  -0.631972  0  2.233843  0
O  O167  1  0.97011839  0.48529156  0.28207017  1  -1.185836  0  -0.379145  -0.630891  0  2.232937  0
O  O168  1  0.46586571  0.98234263  0.25219582  1  -1.194409  0  -0.396117  -0.663666  0  2.181525  0
O  O169  1  0.21423145  0.51731502  0.74795724  1  -1.193505  0  -0.396149  -0.662887  0  2.179133  0
O  O170  1  0.53411136  0.01762674  0.74779562  1  -1.194614  0  -0.39597  -0.663454  0  2.181225  0
O  O171  1  0.78576292  0.48266815  0.25203662  1  -1.19337  0  -0.396022  -0.66269  0  2.178878  0
O  O172  1  0.05381114  0.37983224  0.58557279  1  -1.1909  0  -0.397571  -0.648756  0  2.311852  0
O  O173  1  0.46770567  0.11991074  0.41424901  1  -1.187111  0  -0.397834  -0.649725  0  2.31102  0
O  O174  1  0.94616008  0.62017131  0.41441755  1  -1.190322  0  -0.397624  -0.648929  0  2.311416  0
O  O175  1  0.53229698  0.88008843  0.58575258  1  -1.187198  0  -0.39779  -0.649601  0  2.311349  0
O  O176  1  0.91579595  0.32875976  0.46238126  1  -1.211388  0  -0.391546  -0.682836  0  2.286225  0
O  O177  1  0.45309261  0.17104839  0.53747582  1  -1.206246  0  -0.39272  -0.684826  0  2.288316  0
O  O178  1  0.08418635  0.67124305  0.53761403  1  -1.211457  0  -0.391551  -0.682882  0  2.286348  0
O  O179  1  0.54691368  0.82895805  0.46252584  1  -1.205721  0  -0.392805  -0.68493  0  2.28826  0
