# generated using pymatgen
data_CdH14(C5N3)4
_symmetry_space_group_name_H-M   'P 1'
_cell_length_a   11.58312860
_cell_length_b   11.60169430
_cell_length_c   11.41240000
_cell_angle_alpha   98.84144622
_cell_angle_beta   98.85573133
_cell_angle_gamma   99.02383394
_symmetry_Int_Tables_number   1
_chemical_formula_structural   CdH14(C5N3)4
_chemical_formula_sum   'Cd3 H42 C60 N36'
_cell_volume   1471.54106669
_cell_formula_units_Z   3
loop_
 _symmetry_equiv_pos_site_id
 _symmetry_equiv_pos_as_xyz
  1  'x, y, z'
loop_
 _atom_site_type_symbol
 _atom_site_label
 _atom_site_symmetry_multiplicity
 _atom_site_fract_x
 _atom_site_fract_y
 _atom_site_fract_z
 _atom_site_occupancy
 _atom_site_hle17_bader_spin_density
 _atom_site_hle17_ddec_charge
 _atom_site_hle17_ddec_spin_density
 _atom_site_hle17_ddec_sum_bond_order
 _atom_site_hle17_magmom
 _atom_site_hse06_10hf_bader_spin_density
 _atom_site_hse06_10hf_ddec_charge
 _atom_site_hse06_10hf_ddec_spin_density
 _atom_site_hse06_10hf_ddec_sum_bond_order
 _atom_site_hse06_10hf_magmom
 _atom_site_hse06_bader_spin_density
 _atom_site_hse06_ddec_charge
 _atom_site_hse06_ddec_spin_density
 _atom_site_hse06_ddec_sum_bond_order
 _atom_site_hse06_magmom
 _atom_site_pbe_bader_charge
 _atom_site_pbe_bader_spin_density
 _atom_site_pbe_cm5_charge
 _atom_site_pbe_ddec_charge
 _atom_site_pbe_ddec_spin_density
 _atom_site_pbe_ddec_sum_bond_order
 _atom_site_pbe_magmom
Cd  Cd0  1  0.99999936  0.00000000  0.99999972  1  0  0.892038  0  1.819853  0  0  0.638934  0  2.291246  0  0  0.692505  0  2.250308  0  1.251176  0  0.794672  0.601044  0  2.319123  0
Cd  Cd1  1  0.24752673  0.24986399  0.24832035  1  0  0.921303  0  1.952341  0  0  0.697095  0  2.419989  0  0  0.744258  0  2.383344  0  1.242978  0  0.811607  0.664056  0  2.444777  0
Cd  Cd2  1  0.75247399  0.75013697  0.75168044  1  0  0.921342  0  1.952283  0  0  0.697158  0  2.41991  0  0  0.744326  0  2.38326  0  1.242974  0  0.811619  0.66412  0  2.444697  0
H  H3  1  0.34138459  0.24313946  0.54560884  1  0  0.091861  0  0.950539  0  0  0.09938  0  1.02089  0  0  0.102116  0  1.016886  0  0.130001  0  0.132964  0.097406  0  1.023672  0
H  H4  1  0.54461866  0.33944426  0.24188342  1  0  0.091345  0  0.955321  0  0  0.098335  0  1.026339  0  0  0.101041  0  1.022407  0  0.150605  0  0.132545  0.096385  0  1.029068  0
H  H5  1  0.24457205  0.54558813  0.33939699  1  0  0.092477  0  0.953056  0  0  0.099345  0  1.024248  0  0  0.102058  0  1.020282  0  0.159769  0  0.132838  0.097321  0  1.027105  0
H  H6  1  0.65861302  0.75685884  0.45439193  1  0  0.091807  0  0.950553  0  0  0.099372  0  1.020863  0  0  0.102109  0  1.016858  0  0.129965  0  0.13296  0.097384  0  1.02366  0
H  H7  1  0.45538485  0.66055760  0.75811882  1  0  0.091366  0  0.955325  0  0  0.098354  0  1.026346  0  0  0.101059  0  1.022414  0  0.150633  0  0.132565  0.096404  0  1.029075  0
H  H8  1  0.75542867  0.45441283  0.66060380  1  0  0.092451  0  0.953102  0  0  0.099316  0  1.02429  0  0  0.102028  0  1.020325  0  0.159761  0  0.132824  0.097292  0  1.027147  0
H  H9  1  0.51527860  0.13448179  0.26087194  1  0  0.107218  0  0.961653  0  0  0.11231  0  1.029132  0  0  0.115036  0  1.027783  0  0.136969  0  0.115294  0.110325  0  1.030211  0
H  H10  1  0.26809297  0.51848585  0.13380603  1  0  0.107752  0  0.955469  0  0  0.114102  0  1.020804  0  0  0.116714  0  1.019654  0  0.13623  0  0.11624  0.112211  0  1.021713  0
H  H11  1  0.13385153  0.26834137  0.51949945  1  0  0.109114  0  0.954053  0  0  0.115305  0  1.019512  0  0  0.11792  0  1.01836  0  0.13912  0  0.116526  0.113391  0  1.020442  0
H  H12  1  0.48471705  0.86552006  0.73912469  1  0  0.107228  0  0.961624  0  0  0.112328  0  1.029093  0  0  0.115055  0  1.027742  0  0.137011  0  0.115307  0.110346  0  1.030167  0
H  H13  1  0.73191158  0.48151689  0.86619476  1  0  0.107757  0  0.955408  0  0  0.114087  0  1.02077  0  0  0.116698  0  1.01962  0  0.136112  0  0.11622  0.112194  0  1.02168  0
H  H14  1  0.86614920  0.73165960  0.48050221  1  0  0.109121  0  0.954066  0  0  0.11533  0  1.01949  0  0  0.117954  0  1.018341  0  0.13911  0  0.116546  0.113417  0  1.020421  0
H  H15  1  0.63802844  0.08995040  0.47421779  1  0  0.114955  0  0.968658  0  0  0.124137  0  1.031114  0  0  0.126059  0  1.031423  0  0.140066  0  0.120401  0.122718  0  1.031067  0
H  H16  1  0.47982011  0.64016209  0.09094396  1  0  0.115018  0  0.970533  0  0  0.123496  0  1.034002  0  0  0.125453  0  1.034368  0  0.140264  0  0.120028  0.12205  0  1.033914  0
H  H17  1  0.08721710  0.47883276  0.63961510  1  0  0.115864  0  0.970715  0  0  0.12448  0  1.03374  0  0  0.126493  0  1.033947  0  0.138917  0  0.120696  0.123004  0  1.033744  0
H  H18  1  0.36197004  0.91004791  0.52577697  1  0  0.114964  0  0.968746  0  0  0.124159  0  1.031182  0  0  0.126079  0  1.031492  0  0.140055  0  0.120418  0.12274  0  1.031131  0
H  H19  1  0.52018395  0.35983799  0.90905546  1  0  0.114992  0  0.970546  0  0  0.123521  0  1.033954  0  0  0.125481  0  1.034315  0  0.14026  0  0.120024  0.122076  0  1.033867  0
H  H20  1  0.91278084  0.52116732  0.36038512  1  0  0.115902  0  0.970713  0  0  0.124514  0  1.033748  0  0  0.126525  0  1.033957  0  0.139033  0  0.120708  0.12304  0  1.033743  0
H  H21  1  0.71454144  0.18848754  0.67236168  1  0  0.090869  0  1.006542  0  0  0.099782  0  1.074911  0  0  0.102186  0  1.074529  0  0.072522  0  0.098008  0.09805  0  1.075262  0
H  H22  1  0.67404421  0.71389053  0.19003002  1  0  0.091821  0  0.999421  0  0  0.100411  0  1.068386  0  0  0.102823  0  1.067897  0  0.079701  0  0.098211  0.098662  0  1.068824  0
H  H23  1  0.18939614  0.67197404  0.71636947  1  0  0.090836  0  1.00784  0  0  0.099163  0  1.076867  0  0  0.101473  0  1.076519  0  0.080508  0  0.097967  0.097488  0  1.077199  0
H  H24  1  0.28545639  0.81150722  0.32763506  1  0  0.090902  0  1.006526  0  0  0.0998  0  1.074903  0  0  0.102203  0  1.07452  0  0.072549  0  0.098017  0.098066  0  1.075253  0
H  H25  1  0.32595843  0.28611132  0.80997121  1  0  0.091819  0  0.999404  0  0  0.100404  0  1.068383  0  0  0.102817  0  1.067893  0  0.079981  0  0.098214  0.098655  0  1.068821  0
H  H26  1  0.81060147  0.32802427  0.28363042  1  0  0.090883  0  1.007769  0  0  0.099192  0  1.07682  0  0  0.101501  0  1.076473  0  0.080508  0  0.09799  0.097526  0  1.077144  0
H  H27  1  0.76627759  0.17013975  0.88835023  1  0  0.098494  0  0.996437  0  0  0.097634  0  1.073083  0  0  0.101152  0  1.070706  0  0.144522  0  0.099693  0.095023  0  1.074907  0
H  H28  1  0.88673359  0.76583791  0.17073058  1  0  0.097787  0  0.993339  0  0  0.097039  0  1.070272  0  0  0.100592  0  1.067912  0  0.149393  0  0.099473  0.094481  0  1.071998  0
H  H29  1  0.17115147  0.88410839  0.77063604  1  0  0.097224  0  0.993948  0  0  0.096942  0  1.070209  0  0  0.10032  0  1.068013  0  0.128904  0  0.099457  0.094493  0  1.071843  0
H  H30  1  0.23372056  0.82985678  0.11164596  1  0  0.098463  0  0.996462  0  0  0.097623  0  1.073107  0  0  0.101138  0  1.070732  0  0.144729  0  0.099692  0.095043  0  1.074909  0
H  H31  1  0.11326921  0.23416484  0.82927081  1  0  0.097708  0  0.993337  0  0  0.096965  0  1.070276  0  0  0.100518  0  1.067915  0  0.149455  0  0.099419  0.094406  0  1.072004  0
H  H32  1  0.82884455  0.11589080  0.22936549  1  0  0.097256  0  0.993914  0  0  0.096975  0  1.070174  0  0  0.100353  0  1.067979  0  0.129015  0  0.099478  0.094525  0  1.071811  0
H  H33  1  0.60754784  0.13079022  0.00649868  1  0  0.101769  0  0.942838  0  0  0.109946  0  1.008343  0  0  0.113216  0  1.00646  0  0.096064  0  0.103818  0.107563  0  1.009859  0
H  H34  1  0.00282292  0.60770308  0.13008418  1  0  0.102555  0  0.943627  0  0  0.111125  0  1.008773  0  0  0.114307  0  1.006964  0  0.080751  0  0.104504  0.108803  0  1.010226  0
H  H35  1  0.13132534  0.00147432  0.61080901  1  0  0.103457  0  0.943655  0  0  0.111099  0  1.009962  0  0  0.114484  0  1.007904  0  0.090238  0  0.104289  0.10862  0  1.011607  0
H  H36  1  0.39245081  0.86920897  0.99349975  1  0  0.10183  0  0.942798  0  0  0.110003  0  1.008292  0  0  0.113273  0  1.006408  0  0.096034  0  0.103863  0.107617  0  1.009812  0
H  H37  1  0.99718092  0.39230055  0.86991839  1  0  0.10257  0  0.94367  0  0  0.111126  0  1.008837  0  0  0.114308  0  1.007028  0  0.080831  0  0.104516  0.108803  0  1.010291  0
H  H38  1  0.86867364  0.99852665  0.38919238  1  0  0.103475  0  0.943652  0  0  0.111118  0  1.009952  0  0  0.114503  0  1.007893  0  0.090254  0  0.104299  0.10864  0  1.011596  0
H  H39  1  0.34227987  0.11194360  0.69100503  1  0  0.112888  0  0.952778  0  0  0.12273  0  1.017982  0  0  0.125829  0  1.016098  0  0.058316  0  0.109972  0.120494  0  1.019424  0
H  H40  1  0.69161654  0.34222692  0.11099044  1  0  0.111975  0  0.953632  0  0  0.1222  0  1.01816  0  0  0.125191  0  1.016486  0  0.088601  0  0.109637  0.120029  0  1.019461  0
H  H41  1  0.11152610  0.69239617  0.33941717  1  0  0.112648  0  0.952168  0  0  0.122643  0  1.01676  0  0  0.125755  0  1.014893  0  0.075297  0  0.109597  0.1204  0  1.018187  0
H  H42  1  0.65771774  0.88805470  0.30899223  1  0  0.112881  0  0.95273  0  0  0.12272  0  1.017934  0  0  0.12582  0  1.016049  0  0.058382  0  0.109963  0.120477  0  1.019386  0
H  H43  1  0.30838784  0.65777494  0.88901106  1  0  0.112036  0  0.95375  0  0  0.122265  0  1.018261  0  0  0.125249  0  1.016585  0  0.088544  0  0.109665  0.120094  0  1.01956  0
H  H44  1  0.88847566  0.30760569  0.66058304  1  0  0.112693  0  0.952217  0  0  0.122689  0  1.016798  0  0  0.1258  0  1.014931  0  0.075289  0  0.109628  0.120445  0  1.018225  0
C  C45  1  0.40407878  0.20796436  0.49535400  1  0  0.172069  0  3.656293  0  0  0.110045  0  3.921016  0  0  0.125069  0  3.931156  0  0.984208  0  0.139463  0.100287  0  3.913875  0
C  C46  1  0.49647488  0.40332023  0.20690511  1  0  0.173767  0  3.649952  0  0  0.112234  0  3.915137  0  0  0.127284  0  3.925208  0  0.953901  0  0.139757  0.10246  0  3.908019  0
C  C47  1  0.20855634  0.49707492  0.40341849  1  0  0.173103  0  3.65255  0  0  0.111138  0  3.917806  0  0  0.1263  0  3.92775  0  0.969894  0  0.139606  0.101324  0  3.910785  0
C  C48  1  0.59591899  0.79203483  0.50464517  1  0  0.172139  0  3.65618  0  0  0.11006  0  3.920909  0  0  0.125085  0  3.931049  0  0.984267  0  0.139468  0.100314  0  3.913772  0
C  C49  1  0.50352743  0.59667985  0.79309492  1  0  0.173752  0  3.649872  0  0  0.112246  0  3.915076  0  0  0.127295  0  3.925145  0  0.953974  0  0.139754  0.102473  0  3.907959  0
C  C50  1  0.79144422  0.50292516  0.59658301  1  0  0.173191  0  3.652521  0  0  0.11124  0  3.917768  0  0  0.126403  0  3.927709  0  0.969899  0  0.139649  0.101425  0  3.910748  0
C  C51  1  0.49922912  0.15293609  0.35252210  1  0  0.001432  0  3.738553  0  0  -0.030088  0  4.005627  0  0  -0.028844  0  4.025769  0  0.394273  0  -0.004718  -0.030911  0  3.992052  0
C  C52  1  0.35786762  0.50110645  0.15260351  1  0  -0.001495  0  3.739652  0  0  -0.032802  0  4.006727  0  0  -0.031621  0  4.026962  0  0.383714  0  -0.005742  -0.033569  0  3.993043  0
C  C53  1  0.15235368  0.35800507  0.50164870  1  0  -0.000102  0  3.737882  0  0  -0.031701  0  4.004956  0  0  -0.030458  0  4.025184  0  0.39459  0  -0.005145  -0.032507  0  3.991281  0
C  C54  1  0.50076794  0.84706399  0.64747535  1  0  0.001383  0  3.738446  0  0  -0.030135  0  4.005528  0  0  -0.028893  0  4.025671  0  0.394342  0  -0.004769  -0.030958  0  3.991955  0
C  C55  1  0.64213573  0.49889452  0.84739682  1  0  -0.001499  0  3.739583  0  0  -0.032773  0  4.006662  0  0  -0.031594  0  4.0269  0  0.383923  0  -0.005758  -0.033539  0  3.992976  0
C  C56  1  0.84764775  0.64199501  0.49835294  1  0  -7.7e-05  0  3.737894  0  0  -0.03168  0  4.004957  0  0  -0.030453  0  4.025203  0  0.394578  0  -0.005143  -0.032486  0  3.991281  0
C  C57  1  0.55991397  0.12936916  0.45656754  1  0  -0.052167  0  3.659688  0  0  -0.094678  0  3.920772  0  0  -0.09266  0  3.939938  0  0.262584  0  -0.001401  -0.095989  0  3.907881  0
C  C58  1  0.46136115  0.56142310  0.12989876  1  0  -0.05606  0  3.662794  0  0  -0.098353  0  3.925242  0  0  -0.096414  0  3.944356  0  0.284579  0  -0.003362  -0.099605  0  3.912391  0
C  C59  1  0.12776503  0.46079652  0.56111825  1  0  -0.056315  0  3.666008  0  0  -0.098904  0  3.928453  0  0  -0.096992  0  3.947647  0  0.280621  0  -0.003745  -0.100147  0  3.915559  0
C  C60  1  0.44008189  0.87062914  0.54342944  1  0  -0.052189  0  3.659666  0  0  -0.094737  0  3.920774  0  0  -0.092718  0  3.939941  0  0.262616  0  -0.001394  -0.096047  0  3.907884  0
C  C61  1  0.53864307  0.43857787  0.87010170  1  0  -0.056086  0  3.662749  0  0  -0.098397  0  3.925181  0  0  -0.09646  0  3.944294  0  0.284462  0  -0.003338  -0.099648  0  3.912332  0
C  C62  1  0.87223362  0.53920267  0.43888194  1  0  -0.056375  0  3.666089  0  0  -0.098974  0  3.928536  0  0  -0.097063  0  3.947733  0  0.280547  0  -0.003778  -0.100216  0  3.915643  0
C  C63  1  0.52601881  0.15318107  0.66997749  1  0  0.177071  0  3.82513  0  0  0.169537  0  4.074707  0  0  0.17519  0  4.097424  0  0.317904  0  0.090326  0.16572  0  4.05932  0
C  C64  1  0.67097112  0.52552992  0.15354845  1  0  0.174616  0  3.818487  0  0  0.167979  0  4.067136  0  0  0.173576  0  4.089939  0  0.329184  0  0.090315  0.164198  0  4.051685  0
C  C65  1  0.15309506  0.67037101  0.52542890  1  0  0.174495  0  3.819138  0  0  0.166846  0  4.069271  0  0  0.172384  0  4.09205  0  0.266046  0  0.089371  0.163103  0  4.053841  0
C  C66  1  0.47398038  0.84681634  0.33001988  1  0  0.17714  0  3.825119  0  0  0.169607  0  4.07468  0  0  0.175263  0  4.097394  0  0.318123  0  0.090343  0.16579  0  4.059291  0
C  C67  1  0.32903222  0.47447104  0.84645363  1  0  0.174653  0  3.818351  0  0  0.168041  0  4.067006  0  0  0.173637  0  4.089808  0  0.329157  0  0.090323  0.16426  0  4.051559  0
C  C68  1  0.84690271  0.32962818  0.47457027  1  0  0.17453  0  3.819161  0  0  0.166878  0  4.069283  0  0  0.172398  0  4.092087  0  0.266062  0  0.089411  0.163134  0  4.053856  0
C  C69  1  0.64511472  0.16812754  0.72414337  1  0  -0.145488  0  3.729366  0  0  -0.168531  0  3.978562  0  0  -0.17211  0  3.998869  0  0.010274  0  -0.095903  -0.166076  0  3.964804  0
C  C70  1  0.72476483  0.64454245  0.16909873  1  0  -0.14445  0  3.72757  0  0  -0.167471  0  3.976755  0  0  -0.170973  0  3.997181  0  -0.064395  0  -0.095075  -0.165065  0  3.962959  0
C  C71  1  0.16870979  0.72329565  0.64646905  1  0  -0.145111  0  3.731289  0  0  -0.168218  0  3.981587  0  0  -0.171669  0  4.002078  0  0.0185  0  -0.09574  -0.165849  0  3.96776  0
C  C72  1  0.35488414  0.83186810  0.27585367  1  0  -0.145627  0  3.729414  0  0  -0.168654  0  3.978633  0  0  -0.172236  0  3.998941  0  0.010128  0  -0.095906  -0.166199  0  3.964882  0
C  C73  1  0.27523677  0.35545852  0.83090308  1  0  -0.144398  0  3.727575  0  0  -0.16743  0  3.976754  0  0  -0.170932  0  3.997183  0  -0.064641  0  -0.095068  -0.165023  0  3.962957  0
C  C74  1  0.83128798  0.27670355  0.35353100  1  0  -0.14516  0  3.731297  0  0  -0.168252  0  3.981616  0  0  -0.171697  0  4.00211  0  0.018501  0  -0.095766  -0.165889  0  3.967782  0
C  C75  1  0.67380210  0.15813837  0.84462394  1  0  -0.033288  0  3.750194  0  0  -0.046148  0  4.004715  0  0  -0.046627  0  4.024732  0  -0.075667  0  -0.086597  -0.045659  0  3.99113  0
C  C76  1  0.84352244  0.67342084  0.15869537  1  0  -0.032814  0  3.746157  0  0  -0.04557  0  4.000923  0  0  -0.046235  0  4.021069  0  -0.023217  0  -0.086109  -0.045013  0  3.987213  0
C  C77  1  0.15897348  0.84172590  0.67661974  1  0  -0.033686  0  3.753032  0  0  -0.046749  0  4.007945  0  0  -0.047316  0  4.028074  0  -0.043434  0  -0.086565  -0.046273  0  3.994269  0
C  C78  1  0.32619605  0.84185815  0.15537312  1  0  -0.033193  0  3.75018  0  0  -0.046082  0  4.004692  0  0  -0.046566  0  4.024727  0  -0.076043  0  -0.086632  -0.045621  0  3.991084  0
C  C79  1  0.15647966  0.32658279  0.84130693  1  0  -0.032879  0  3.746324  0  0  -0.045634  0  4.001093  0  0  -0.046301  0  4.021246  0  -0.02317  0  -0.08612  -0.045077  0  3.98738  0
C  C80  1  0.84102533  0.15827418  0.32338149  1  0  -0.033672  0  3.753059  0  0  -0.046741  0  4.00797  0  0  -0.047307  0  4.028096  0  -0.0436  0  -0.086576  -0.046263  0  3.994293  0
C  C81  1  0.58453753  0.13686059  0.91172571  1  0  -0.09527  0  3.705049  0  0  -0.122822  0  3.960371  0  0  -0.125667  0  3.980318  0  -0.058525  0  -0.086611  -0.120907  0  3.946934  0
C  C82  1  0.90947324  0.58447344  0.13658983  1  0  -0.095108  0  3.700799  0  0  -0.123488  0  3.95634  0  0  -0.126185  0  3.976328  0  0.011856  0  -0.087222  -0.121669  0  3.942898  0
C  C83  1  0.13730908  0.90830908  0.58677699  1  0  -0.095587  0  3.705128  0  0  -0.123513  0  3.960605  0  0  -0.12629  0  3.980581  0  -0.003366  0  -0.087339  -0.121613  0  3.947169  0
C  C84  1  0.41545976  0.86313594  0.08827210  1  0  -0.095402  0  3.705078  0  0  -0.122943  0  3.960399  0  0  -0.125789  0  3.980344  0  -0.058284  0  -0.086665  -0.121027  0  3.946969  0
C  C85  1  0.09053043  0.41552930  0.86341432  1  0  -0.094935  0  3.700795  0  0  -0.12332  0  3.956262  0  0  -0.126019  0  3.976251  0  0.011737  0  -0.087168  -0.121499  0  3.942818  0
C  C86  1  0.86268869  0.09169011  0.41322218  1  0  -0.095661  0  3.705167  0  0  -0.123587  0  3.960662  0  0  -0.126363  0  3.980638  0  -0.003359  0  -0.087384  -0.121687  0  3.947224  0
C  C87  1  0.46443550  0.12199667  0.85760303  1  0  0.021502  0  3.814559  0  0  0.042152  0  4.044994  0  0  0.042487  0  4.066468  0  -0.000938  0  -0.002588  0.041892  0  4.030474  0
C  C88  1  0.85622567  0.46438069  0.12149674  1  0  0.019214  0  3.804983  0  0  0.040296  0  4.03599  0  0  0.040641  0  4.057299  0  -0.076262  0  -0.002236  0.040019  0  4.021586  0
C  C89  1  0.12222376  0.85586997  0.46466344  1  0  0.02117  0  3.805135  0  0  0.041825  0  4.036307  0  0  0.042006  0  4.057924  0  -0.061419  0  -0.001511  0.041637  0  4.021733  0
C  C90  1  0.53556157  0.87800341  0.14239442  1  0  0.021606  0  3.814393  0  0  0.042307  0  4.044779  0  0  0.042645  0  4.066251  0  -0.001069  0  -0.002521  0.042046  0  4.030257  0
C  C91  1  0.14377888  0.53562205  0.87850492  1  0  0.018998  0  3.80492  0  0  0.04017  0  4.035819  0  0  0.040517  0  4.057125  0  -0.076441  0  -0.002282  0.039893  0  4.021415  0
C  C92  1  0.87777506  0.14413011  0.53533517  1  0  0.021218  0  3.805049  0  0  0.041864  0  4.036222  0  0  0.042045  0  4.057837  0  -0.06138  0  -0.001444  0.041677  0  4.021648  0
C  C93  1  0.43526544  0.12790727  0.73481326  1  0  -0.197492  0  3.719479  0  0  -0.225613  0  3.970484  0  0  -0.229941  0  3.989802  0  -0.011228  0  -0.091195  -0.222638  0  3.957459  0
C  C94  1  0.73496194  0.43511885  0.12753093  1  0  -0.194407  0  3.713892  0  0  -0.22232  0  3.963809  0  0  -0.226532  0  3.983129  0  -0.013784  0  -0.090881  -0.2194  0  3.950753  0
C  C95  1  0.12778882  0.73492955  0.43395509  1  0  -0.193902  0  3.711996  0  0  -0.221203  0  3.962508  0  0  -0.22543  0  3.981803  0  0.013874  0  -0.090146  -0.218271  0  3.949481  0
C  C96  1  0.56473201  0.87209015  0.26518296  1  0  -0.197547  0  3.719383  0  0  -0.225671  0  3.970373  0  0  -0.230002  0  3.989688  0  -0.011418  0  -0.091237  -0.22269  0  3.957352  0
C  C97  1  0.26504173  0.56488389  0.87247147  1  0  -0.194503  0  3.713876  0  0  -0.222452  0  3.963777  0  0  -0.226654  0  3.983083  0  -0.013587  0  -0.090912  -0.21953  0  3.950718  0
C  C98  1  0.87221262  0.26507053  0.56604567  1  0  -0.193931  0  3.712012  0  0  -0.221233  0  3.962528  0  0  -0.225456  0  3.981831  0  0.013842  0  -0.0902  -0.218302  0  3.949501  0
C  C99  1  0.37148590  0.10688777  0.93030302  1  0  0.232779  0  3.822856  0  0  0.21683  0  4.095386  0  0  0.223959  0  4.111679  0  0.927966  0  0.203105  0.212064  0  4.084318  0
C  C100  1  0.92903012  0.37245625  0.10661604  1  0  0.234474  0  3.810363  0  0  0.217761  0  4.084125  0  0  0.224928  0  4.100369  0  0.894188  0  0.202659  0.212976  0  4.073085  0
C  C101  1  0.10714098  0.92948656  0.37211470  1  0  0.233371  0  3.814693  0  0  0.21701  0  4.088119  0  0  0.224136  0  4.104476  0  0.903256  0  0.202033  0.21224  0  4.07703  0
C  C102  1  0.62851117  0.89311231  0.06969618  1  0  0.232898  0  3.822764  0  0  0.216874  0  4.095359  0  0  0.224002  0  4.111652  0  0.927611  0  0.203173  0.212108  0  4.084291  0
C  C103  1  0.07097426  0.62754560  0.89338546  1  0  0.234649  0  3.810219  0  0  0.217901  0  4.083995  0  0  0.225067  0  4.100238  0  0.893454  0  0.202701  0.213116  0  4.072955  0
C  C104  1  0.89286045  0.07051351  0.62788694  1  0  0.233343  0  3.814755  0  0  0.216984  0  4.088191  0  0  0.224112  0  4.104547  0  0.903295  0  0.202014  0.212214  0  4.077102  0
N  N105  1  0.40297690  0.20256148  0.37833048  1  0  -0.359684  0  3.238834  0  0  -0.285873  0  3.518579  0  0  -0.304765  0  3.53529  0  -1.20152  0  -0.355759  -0.272961  0  3.506827  0
N  N106  1  0.38123667  0.40334064  0.20115916  1  0  -0.357932  0  3.227391  0  0  -0.284511  0  3.506762  0  0  -0.303392  0  3.523599  0  -1.189681  0  -0.353714  -0.271611  0  3.494952  0
N  N107  1  0.20329815  0.38214895  0.40416497  1  0  -0.360462  0  3.236698  0  0  -0.285901  0  3.516208  0  0  -0.304977  0  3.532963  0  -1.228267  0  -0.356352  -0.272871  0  3.504428  0
N  N108  1  0.59701913  0.79743771  0.62166842  1  0  -0.359666  0  3.238753  0  0  -0.285846  0  3.518499  0  0  -0.304737  0  3.535216  0  -1.201543  0  -0.355732  -0.272933  0  3.506744  0
N  N109  1  0.61876700  0.59666210  0.79884324  1  0  -0.358001  0  3.227393  0  0  -0.284606  0  3.506771  0  0  -0.303489  0  3.523612  0  -1.18972  0  -0.353733  -0.271705  0  3.494961  0
N  N110  1  0.79670153  0.61785113  0.59583552  1  0  -0.360451  0  3.236648  0  0  -0.285914  0  3.51618  0  0  -0.304991  0  3.532938  0  -1.228296  0  -0.356361  -0.272884  0  3.504399  0
N  N111  1  0.49791942  0.16372677  0.54690508  1  0  -0.09722  0  3.60699  0  0  -0.005378  0  3.81637  0  0  -0.020217  0  3.840666  0  -1.258461  0  -0.228609  0.004486  0  3.799757  0
N  N112  1  0.54920627  0.49780365  0.16380915  1  0  -0.095217  0  3.598014  0  0  -0.003925  0  3.807299  0  0  -0.01877  0  3.83163  0  -1.266911  0  -0.226481  0.005938  0  3.790667  0
N  N113  1  0.16296912  0.54885809  0.49724350  1  0  -0.094866  0  3.60095  0  0  -0.002595  0  3.809662  0  0  -0.017411  0  3.833962  0  -1.260799  0  -0.225877  0.00725  0  3.79304  0
N  N114  1  0.50207716  0.83627065  0.45309275  1  0  -0.097211  0  3.606791  0  0  -0.005356  0  3.816185  0  0  -0.020197  0  3.840483  0  -1.25847  0  -0.228623  0.004509  0  3.799567  0
N  N115  1  0.45079708  0.50219732  0.83619293  1  0  -0.095102  0  3.597876  0  0  -0.003883  0  3.80724  0  0  -0.018724  0  3.831566  0  -1.266955  0  -0.226475  0.005976  0  3.790609  0
N  N116  1  0.83702953  0.45114110  0.50275669  1  0  -0.094985  0  3.601074  0  0  -0.002709  0  3.809791  0  0  -0.017518  0  3.834091  0  -1.260792  0  -0.225907  0.007136  0  3.79317  0
N  N117  1  0.25463577  0.06432243  0.88700120  1  0  -0.271858  0  2.935346  0  0  -0.251054  0  3.207294  0  0  -0.258375  0  3.221257  0  -0.649847  0  -0.209845  -0.245955  0  3.197711  0
N  N118  1  0.88779569  0.25561482  0.06318968  1  0  -0.272988  0  2.939711  0  0  -0.250927  0  3.212246  0  0  -0.258428  0  3.226085  0  -0.648278  0  -0.208611  -0.24569  0  3.20272  0
N  N119  1  0.06325487  0.88927872  0.25358526  1  0  -0.270674  0  2.931341  0  0  -0.250275  0  3.202869  0  0  -0.257521  0  3.216936  0  -0.646683  0  -0.208787  -0.245228  0  3.193218  0
N  N120  1  0.74536201  0.93567676  0.11299710  1  0  -0.271912  0  2.935483  0  0  -0.251093  0  3.207462  0  0  -0.258415  0  3.221426  0  -0.649964  0  -0.209847  -0.245994  0  3.197878  0
N  N121  1  0.11220694  0.74438704  0.93681067  1  0  -0.273074  0  2.939679  0  0  -0.251033  0  3.212242  0  0  -0.258532  0  3.226078  0  -0.647698  0  -0.208654  -0.245798  0  3.202725  0
N  N122  1  0.93674673  0.11072225  0.74641566  1  0  -0.2707  0  2.931322  0  0  -0.250302  0  3.202851  0  0  -0.257548  0  3.216916  0  -0.64674  0  -0.208773  -0.245254  0  3.193201  0
N  N123  1  0.20359319  0.07341689  0.98409984  1  0  -0.110297  0  3.153351  0  0  -0.059562  0  3.44631  0  0  -0.068068  0  3.463077  0  -0.202519  0  -0.11113  -0.05348  0  3.434613  0
N  N124  1  0.98421230  0.20590511  0.07298492  1  0  -0.110658  0  3.141396  0  0  -0.062082  0  3.434948  0  0  -0.070295  0  3.451584  0  -0.194383  0  -0.110266  -0.056189  0  3.423331  0
N  N125  1  0.07246134  0.98636905  0.20413968  1  0  -0.110899  0  3.167578  0  0  -0.057856  0  3.460766  0  0  -0.067028  0  3.477931  0  -0.205679  0  -0.114136  -0.051333  0  3.448785  0
N  N126  1  0.79640650  0.92658319  0.01589977  1  0  -0.110259  0  3.15346  0  0  -0.059522  0  3.446409  0  0  -0.068026  0  3.463176  0  -0.202335  0  -0.111146  -0.053439  0  3.434712  0
N  N127  1  0.01578930  0.79409586  0.92701426  1  0  -0.110539  0  3.141262  0  0  -0.061942  0  3.434792  0  0  -0.070156  0  3.451426  0  -0.194421  0  -0.110206  -0.056049  0  3.423176  0
N  N128  1  0.92753922  0.01363103  0.79586095  1  0  -0.11085  0  3.167521  0  0  -0.057802  0  3.460702  0  0  -0.066975  0  3.477868  0  -0.205703  0  -0.114154  -0.05128  0  3.44872  0
N  N129  1  0.28592258  0.12038832  0.08212810  1  0  -0.117923  0  3.182205  0  0  -0.07145  0  3.475914  0  0  -0.07834  0  3.493099  0  -0.200134  0  -0.123004  -0.06647  0  3.463939  0
N  N130  1  0.08001942  0.28914340  0.12136945  1  0  -0.120147  0  3.178013  0  0  -0.072529  0  3.472271  0  0  -0.079564  0  3.489436  0  -0.197136  0  -0.121371  -0.067435  0  3.460296  0
N  N131  1  0.12075494  0.08156160  0.28890842  1  0  -0.117622  0  3.170825  0  0  -0.072335  0  3.464708  0  0  -0.078749  0  3.481685  0  -0.193388  0  -0.119823  -0.067664  0  3.452872  0
N  N132  1  0.71407782  0.87961087  0.91787149  1  0  -0.117945  0  3.182173  0  0  -0.071474  0  3.475882  0  0  -0.078366  0  3.493067  0  -0.200172  0  -0.123005  -0.066494  0  3.463909  0
N  N133  1  0.91998289  0.71085668  0.87863145  1  0  -0.120285  0  3.178076  0  0  -0.072686  0  3.472367  0  0  -0.07972  0  3.489529  0  -0.197059  0  -0.121433  -0.067592  0  3.460391  0
N  N134  1  0.87924491  0.91843937  0.71109224  1  0  -0.117686  0  3.170867  0  0  -0.072409  0  3.464766  0  0  -0.078822  0  3.481743  0  -0.193375  0  -0.119852  -0.067737  0  3.45293  0
N  N135  1  0.39234972  0.14221643  0.05131716  1  0  -0.296995  0  2.960959  0  0  -0.281054  0  3.24253  0  0  -0.288895  0  3.25712  0  -0.639918  0  -0.220126  -0.275587  0  3.232534  0
N  N136  1  0.04838815  0.39469354  0.14333689  1  0  -0.298628  0  2.950491  0  0  -0.28381  0  3.233348  0  0  -0.291605  0  3.247877  0  -0.635243  0  -0.222485  -0.278373  0  3.223377  0
N  N137  1  0.14338576  0.04874222  0.39548126  1  0  -0.297501  0  2.950205  0  0  -0.282524  0  3.232791  0  0  -0.290311  0  3.247067  0  -0.635678  0  -0.221524  -0.277084  0  3.222991  0
N  N138  1  0.60764997  0.85778365  0.94868158  1  0  -0.297067  0  2.960891  0  0  -0.281101  0  3.242478  0  0  -0.288942  0  3.257068  0  -0.639529  0  -0.220169  -0.275635  0  3.232483  0
N  N139  1  0.95161607  0.60530742  0.85666444  1  0  -0.298611  0  2.950415  0  0  -0.283784  0  3.23328  0  0  -0.29158  0  3.247809  0  -0.635147  0  -0.222465  -0.278346  0  3.223307  0
N  N140  1  0.85661409  0.95125875  0.60451940  1  0  -0.297483  0  2.950214  0  0  -0.282503  0  3.232799  0  0  -0.290292  0  3.247078  0  -0.635653  0  -0.221517  -0.277064  0  3.222999  0
