# generated using pymatgen
data_Zn6H25C56(I3O8)3
_symmetry_space_group_name_H-M   'P 1'
_cell_length_a   18.74065261
_cell_length_b   18.70345828
_cell_length_c   18.94347179
_cell_angle_alpha   108.90259365
_cell_angle_beta   109.54539051
_cell_angle_gamma   109.66177217
_symmetry_Int_Tables_number   1
_chemical_formula_structural   Zn6H25C56(I3O8)3
_chemical_formula_sum   'Zn6 H25 C56 I9 O24'
_cell_volume   5130.33789701
_cell_formula_units_Z   1
loop_
 _symmetry_equiv_pos_site_id
 _symmetry_equiv_pos_as_xyz
  1  'x, y, z'
loop_
 _atom_site_type_symbol
 _atom_site_label
 _atom_site_symmetry_multiplicity
 _atom_site_fract_x
 _atom_site_fract_y
 _atom_site_fract_z
 _atom_site_occupancy
 _atom_site_pbe_bader_charge
 _atom_site_pbe_bader_spin_density
 _atom_site_pbe_cm5_charge
 _atom_site_pbe_ddec_charge
 _atom_site_pbe_ddec_spin_density
 _atom_site_pbe_ddec_sum_bond_order
 _atom_site_pbe_magmom
Zn  Zn0  1  0.05113124  0.56063831  0.99169640  1  1.307738  0  0.720738  0.956096  0  2.143244  0
Zn  Zn1  1  0.93202668  0.43020989  0.99398943  1  1.309753  0  0.726451  0.968745  0  2.101053  0
Zn  Zn2  1  0.93966373  0.99938347  0.44225748  1  1.311705  0  0.720727  0.948668  0  2.16203  0
Zn  Zn3  1  0.06503637  0.00387669  0.56982390  1  1.309016  0  0.722203  0.955229  0  2.130961  0
Zn  Zn4  1  0.49765383  0.56254773  0.55483155  1  1.313881  0  0.718464  0.961053  0  2.142349  0
Zn  Zn5  1  0.48924664  0.43416798  0.42584981  1  1.311942  0  0.715069  0.956928  0  2.140139  0
H  H6  1  0.89744064  0.18411793  0.81044005  1  0.071344  0  0.107574  0.115924  0  0.985846  0
H  H7  1  0.89619083  0.07871255  0.69035684  1  0.086443  0  0.106811  0.111858  0  0.984541  0
H  H8  1  0.00878666  0.32485683  0.60349550  1  0.057062  0  0.097842  0.109848  0  0.97801  0
H  H9  1  0.65953060  0.40256701  0.60282621  1  0.127314  0  0.105645  0.124633  0  1.001788  0
H  H10  1  0.02706328  0.79530024  0.33490524  1  0.101914  0  0.113125  0.139883  0  0.966893  0
H  H11  1  0.89970596  0.72651250  0.93657451  1  0.077141  0  0.089762  0.098982  0  1.00592  0
H  H12  1  0.83052372  0.66769119  0.96728906  1  0.037  0  0.09003  0.101967  0  0.995509  0
H  H13  1  0.90564123  0.82224148  0.64059636  1  0.12072  0  0.10724  0.112538  0  0.990871  0
H  H14  1  0.70750129  0.76685427  0.32884085  1  0.065852  0  0.098898  0.11299  0  0.974399  0
H  H15  1  0.38150543  0.21822677  0.48279072  1  0.07958  0  0.112848  0.119542  0  0.979581  0
H  H16  1  0.23402409  0.66592329  0.29174225  1  0.091882  0  0.107759  0.123317  0  0.991492  0
H  H17  1  0.90329205  0.81031190  0.19143522  1  0.116743  0  0.118342  0.133598  0  0.961722  0
H  H18  1  0.14850961  0.34370998  0.08430160  1  0.127302  0  0.102028  0.125422  0  0.976862  0
H  H19  1  0.11037357  0.34056004  0.67578177  1  0.043753  0  0.092681  0.100092  0  1.001447  0
H  H20  1  0.11474628  0.44768059  0.79953366  1  0.0565  0  0.096361  0.111312  0  0.976857  0
H  H21  1  0.01234433  0.43120788  0.72856217  1  0.070807  0  0.092224  0.102691  0  1.000689  0
H  H22  1  0.77315812  0.72758864  0.83528645  1  0.046491  0  0.100603  0.110941  0  0.976871  0
H  H23  1  0.70420465  0.66901336  0.86630207  1  0.059464  0  0.101616  0.113128  0  0.976412  0
H  H24  1  0.77909058  0.69975456  0.61914276  1  0.059726  0  0.10528  0.109531  0  0.990609  0
H  H25  1  0.63411818  0.57200773  0.27597597  1  0.052334  0  0.091195  0.105454  0  0.985138  0
H  H26  1  0.58379720  0.63438935  0.30227199  1  0.03418  0  0.089981  0.100929  0  1.001951  0
H  H27  1  0.75678790  0.70411659  0.30003542  1  0.056306  0  0.088088  0.097207  0  1.010213  0
H  H28  1  0.28813103  0.12013526  0.51620279  1  0.09935  0  0.112756  0.116174  0  0.981161  0
H  H29  1  0.13532277  0.31437791  0.56692548  1  0.078346  0  0.094506  0.117492  0  1.019848  0
H  H30  1  0.07502720  0.24965332  0.45198469  1  0.107654  0  0.102228  0.135542  0  0.969376  0
C  C31  1  0.13597624  0.53859755  0.11897279  1  1.581598  0  0.227121  0.6216  0  4.13415  0
C  C32  1  0.20768141  0.54701866  0.19283414  1  -0.013777  0  0.004236  -0.009592  0  3.922562  0
C  C33  1  0.24927221  0.61343763  0.27792952  1  0.104037  0  -0.083617  -0.13323  0  3.923976  0
C  C34  1  0.30877516  0.61320577  0.34721335  1  -0.226108  0  -0.03048  0.059826  0  3.837579  0
C  C35  1  0.33220225  0.54738253  0.33505961  1  0.037405  0  -0.014758  -0.0868  0  3.896206  0
C  C36  1  0.29330352  0.48494061  0.24832795  1  -0.01801  0  -0.011471  0.03422  0  3.900734  0
C  C37  1  0.28722405  0.40354729  0.18864683  1  -0.238269  0  -0.045321  0.051722  0  3.548128  0
C  C38  1  0.21287878  0.40003704  0.11273299  1  -0.142284  0  -0.107255  -0.096426  0  3.749694  0
C  C39  1  0.00109554  0.32142896  0.75364442  1  -0.003728  0  -0.005827  0.069304  0  3.893199  0
C  C40  1  0.96653957  0.29667899  0.80205077  1  -0.053484  0  -0.024216  -0.101555  0  4.017993  0
C  C41  1  0.92643599  0.20676392  0.77529958  1  0.036273  0  -0.08254  -0.08984  0  3.979119  0
C  C42  1  0.94150406  0.57389041  0.09022241  1  1.571679  0  0.205361  0.621643  0  4.156938  0
C  C43  1  0.92524142  0.14715514  0.70693166  1  -0.010825  0  -0.086809  -0.115413  0  3.983376  0
C  C44  1  0.96161039  0.17329764  0.65925355  1  -0.074481  0  -0.003798  -0.043603  0  3.948754  0
C  C45  1  0.99747723  0.26139338  0.68350407  1  0.021591  0  -0.011806  0.03882  0  3.888119  0
C  C46  1  0.04587594  0.33081395  0.66592799  1  -0.05028  0  -0.153114  -0.197561  0  3.870552  0
C  C47  1  0.04897925  0.39836618  0.74473642  1  -0.035203  0  -0.152383  -0.194781  0  3.869541  0
C  C48  1  0.80637672  0.58750225  0.83717980  1  -0.000592  0  -0.00724  0.058145  0  3.880327  0
C  C49  1  0.82570319  0.52094844  0.81291716  1  -0.027718  0  -0.011414  -0.08355  0  3.952578  0
C  C50  1  0.76980767  0.45353090  0.72651399  1  -0.225067  0  -0.043588  0.033123  0  3.90827  0
C  C51  1  0.70047475  0.45455963  0.66954711  1  0.006523  0  -0.089259  -0.134475  0  3.968411  0
C  C52  1  0.68115177  0.52203942  0.69577198  1  0.019086  0  -0.014853  -0.070268  0  3.981503  0
C  C53  1  0.89706879  0.51962261  0.87729225  1  1.58014  0  0.218059  0.621931  0  4.146351  0
C  C54  1  0.73579166  0.58799524  0.78117683  1  -0.018782  0  -0.001344  0.06684  0  3.887439  0
C  C55  1  0.75520477  0.67335530  0.84889000  1  -0.016395  0  -0.147598  -0.194498  0  3.874059  0
C  C56  1  0.83489554  0.67273321  0.91251616  1  -0.024816  0  -0.154775  -0.196885  0  3.871983  0
C  C57  1  0.91305173  0.87611176  0.52255194  1  1.524884  0  0.221161  0.613654  0  4.141926  0
C  C58  1  0.98155622  0.88673802  0.36814603  1  1.528943  0  0.21134  0.64691  0  4.143539  0
C  C59  1  0.14255120  0.11644390  0.52726426  1  1.549579  0  0.223416  0.61466  0  4.140776  0
C  C60  1  0.96822789  0.11018599  0.59261346  1  1.553582  0  0.228914  0.629739  0  4.120781  0
C  C61  1  0.37956228  0.36117314  0.47237213  1  1.548107  0  0.219022  0.608982  0  4.140784  0
C  C62  1  0.39163326  0.53838963  0.40282181  1  1.570296  0  0.216037  0.611436  0  4.131696  0
C  C63  1  0.62204775  0.58355457  0.47421108  1  1.549419  0  0.22473  0.624975  0  4.121041  0
C  C64  1  0.97279258  0.36157419  0.87730808  1  1.516811  0  0.216308  0.602676  0  4.16306  0
C  C65  1  0.60819356  0.52054627  0.63116723  1  1.536565  0  0.216537  0.606035  0  4.146035  0
C  C66  1  0.76950803  0.73750667  0.42918709  1  -0.051576  0  -0.003256  0.06742  0  3.88  0
C  C67  1  0.84433626  0.79655090  0.50953441  1  0.060617  0  -0.015707  -0.079349  0  3.989059  0
C  C68  1  0.84766015  0.77855981  0.57697888  1  -0.056463  0  -0.083394  -0.100937  0  3.992145  0
C  C69  1  0.77666715  0.70890847  0.56454556  1  -0.002466  0  -0.086016  -0.10871  0  3.989678  0
C  C70  1  0.70069108  0.65022886  0.48309911  1  -0.016215  0  -0.008003  -0.055248  0  3.961769  0
C  C71  1  0.70078459  0.66471872  0.41558670  1  -0.045031  0  -0.006792  0.051737  0  3.881848  0
C  C72  1  0.64624926  0.63499732  0.32108553  1  -0.017901  0  -0.155292  -0.198484  0  3.875281  0
C  C73  1  0.72391886  0.71786351  0.33680925  1  -0.043783  0  -0.152412  -0.193178  0  3.867027  0
C  C74  1  0.19736584  0.24757786  0.51046102  1  -0.007069  0  -0.000925  0.086127  0  3.885723  0
C  C75  1  0.94354507  0.78591094  0.22050146  1  -0.058452  0  -0.08398  -0.070128  0  4.038028  0
C  C76  1  0.20758597  0.17957043  0.51808420  1  0.028089  0  -0.005193  -0.057404  0  3.949572  0
C  C77  1  0.27732240  0.17222172  0.51042686  1  -0.025538  0  -0.072282  -0.087842  0  3.950328  0
C  C78  1  0.33057094  0.22807197  0.49222127  1  -0.045085  0  -0.075554  -0.094981  0  3.945872  0
C  C79  1  0.32138684  0.29813897  0.48713815  1  0.014987  0  -0.004527  -0.033254  0  3.936224  0
C  C80  1  0.25524010  0.30740413  0.49999971  1  0.003208  0  -0.020521  -0.004371  0  3.933501  0
C  C81  1  0.20932317  0.35966784  0.50214911  1  -0.237414  0  -0.041086  0.084261  0  3.555939  0
C  C82  1  0.14044807  0.28892737  0.50906131  1  -0.044319  0  -0.156114  -0.248278  0  3.851671  0
C  C83  1  0.98484801  0.81787381  0.30596657  1  0.036181  0  -0.096173  -0.224741  0  3.910212  0
C  C84  1  0.95819635  0.72309806  0.16545551  1  -0.289232  0  -0.035434  0.062432  0  3.885474  0
C  C85  1  0.92021540  0.63658750  0.13808849  1  -0.066869  0  -0.062269  -0.139093  0  3.807388  0
C  C86  1  0.23206006  0.48351477  0.18056507  1  -0.011099  0  -0.015089  0.036396  0  3.94174  0
I  I87  1  0.79160315  0.34881180  0.67896588  1  0.108296  0  0.070044  -0.025794  0  1.389763  0
I  I88  1  0.05330856  0.79326913  0.14074210  1  0.179989  0  0.115168  0.035209  0  1.413541  0
I  I89  1  0.28343497  0.48727078  0.61713279  1  0.062537  0  0.016526  -0.070828  0  1.261601  0
I  I90  1  0.15732366  0.36967025  0.38712050  1  0.064111  0  0.020069  -0.06526  0  1.343117  0
I  I91  1  0.81847326  0.58213403  0.16268677  1  0.15299  0  0.081735  0.015397  0  1.367679  0
I  I92  1  0.35920295  0.71937823  0.46832046  1  0.157693  0  0.071351  -0.014813  0  1.363439  0
I  I93  1  0.40669586  0.42528791  0.18581382  1  0.111832  0  0.05363  -0.033075  0  1.486084  0
I  I94  1  0.23425393  0.28984317  0.20303240  1  0.085389  0  0.035966  -0.043973  0  1.395162  0
I  I95  1  0.22201816  0.39952913  0.00202309  1  0.057262  0  0.028251  -0.042072  0  1.334708  0
O  O96  1  0.15624554  0.59210910  0.09107346  1  -1.116157  0  -0.309561  -0.518727  0  2.23489  0
O  O97  1  0.99276626  0.91041524  0.58147621  1  -1.131327  0  -0.318907  -0.529403  0  2.221758  0
O  O98  1  0.92889968  0.91403062  0.34082306  1  -1.135695  0  -0.323476  -0.536459  0  2.204038  0
O  O99  1  0.03328202  0.91506470  0.44683138  1  -1.167688  0  -0.315552  -0.572398  0  2.282926  0
O  O100  1  0.06370911  0.09540885  0.48211457  1  -1.170594  0  -0.30856  -0.56437  0  2.316799  0
O  O101  1  0.16871497  0.08853613  0.57896660  1  -1.121352  0  -0.313148  -0.522594  0  2.213785  0
O  O102  1  0.91902133  0.08393882  0.51287267  1  -1.122789  0  -0.315969  -0.527632  0  2.21095  0
O  O103  1  0.02360682  0.08775974  0.62113592  1  -1.162393  0  -0.308749  -0.566165  0  2.291448  0
O  O104  1  0.39889479  0.43981994  0.51332185  1  -1.173006  0  -0.308427  -0.568564  0  2.389878  0
O  O105  1  0.40574778  0.33290252  0.42025986  1  -1.129217  0  -0.314978  -0.527754  0  2.25187  0
O  O106  1  0.42005709  0.58848868  0.48246002  1  -1.125609  0  -0.311262  -0.521339  0  2.355651  0
O  O107  1  0.06031528  0.47683478  0.08917798  1  -1.169291  0  -0.302956  -0.552349  0  2.270745  0
O  O108  1  0.40948219  0.47897153  0.37485777  1  -1.170886  0  -0.308813  -0.571401  0  2.448076  0
O  O109  1  0.59537021  0.61162639  0.52462301  1  -1.165531  0  -0.311012  -0.568214  0  2.304611  0
O  O110  1  0.58597561  0.50346506  0.41626102  1  -1.127587  0  -0.318224  -0.53423  0  2.239952  0
O  O111  1  0.58381179  0.57588306  0.65827193  1  -1.119549  0  -0.316904  -0.527533  0  2.212289  0
O  O112  1  0.57484893  0.46563771  0.55278467  1  -1.188792  0  -0.312942  -0.570248  0  2.330711  0
O  O113  1  0.00261131  0.60445242  0.07525732  1  -1.173912  0  -0.309626  -0.567978  0  2.421185  0
O  O114  1  0.89720567  0.49283240  0.06736583  1  -1.116845  0  -0.316939  -0.517281  0  2.263863  0
O  O115  1  0.97628942  0.57737354  0.90654306  1  -1.125042  0  -0.315613  -0.524411  0  2.221334  0
O  O116  1  0.87403602  0.46375027  0.90063654  1  -1.16608  0  -0.305041  -0.564165  0  2.317857  0
O  O117  1  0.02461857  0.44174110  0.90613926  1  -1.174016  0  -0.312607  -0.57654  0  2.366273  0
O  O118  1  0.92538414  0.33340863  0.90897497  1  -1.123174  0  -0.319285  -0.530355  0  2.248259  0
O  O119  1  0.88743094  0.90537657  0.47294692  1  -1.174079  0  -0.312022  -0.572526  0  2.338473  0
