# generated using pymatgen
data_Zn4H32C37O19
_symmetry_space_group_name_H-M   'P 1'
_cell_length_a   18.05016896
_cell_length_b   18.29640963
_cell_length_c   18.22897065
_cell_angle_alpha   89.98596228
_cell_angle_beta   119.24302278
_cell_angle_gamma   120.07754249
_symmetry_Int_Tables_number   1
_chemical_formula_structural   Zn4H32C37O19
_chemical_formula_sum   'Zn8 H64 C74 O38'
_cell_volume   4300.53113121
_cell_formula_units_Z   2
loop_
 _symmetry_equiv_pos_site_id
 _symmetry_equiv_pos_as_xyz
  1  'x, y, z'
loop_
 _atom_site_type_symbol
 _atom_site_label
 _atom_site_symmetry_multiplicity
 _atom_site_fract_x
 _atom_site_fract_y
 _atom_site_fract_z
 _atom_site_occupancy
 _atom_site_pbe_bader_charge
 _atom_site_pbe_bader_spin_density
 _atom_site_pbe_cm5_charge
 _atom_site_pbe_ddec_charge
 _atom_site_pbe_ddec_spin_density
 _atom_site_pbe_ddec_sum_bond_order
 _atom_site_pbe_magmom
Zn  Zn0  1  0.41489181  0.79620928  0.20702568  1  1.300702  0  0.663598  0.944821  0  2.416067  0
Zn  Zn1  1  0.58510746  0.20378736  0.79297528  1  1.300649  0  0.663613  0.944897  0  2.415882  0
Zn  Zn2  1  0.41148692  0.61845173  0.20416487  1  1.298017  0  0.663307  0.95092  0  2.383303  0
Zn  Zn3  1  0.58851132  0.38154624  0.79583614  1  1.297969  0  0.663277  0.950924  0  2.383291  0
Zn  Zn4  1  0.58590492  0.79139793  0.38172854  1  1.320493  0  0.666232  0.947587  0  2.381871  0
Zn  Zn5  1  0.41410044  0.20860406  0.61827541  1  1.320323  0  0.666211  0.947555  0  2.381978  0
Zn  Zn6  1  0.58983248  0.79539952  0.20776287  1  1.297307  0  0.662809  0.944523  0  2.429067  0
Zn  Zn7  1  0.41016537  0.20459978  0.79223904  1  1.297323  0  0.662787  0.944441  0  2.42916  0
H  H8  1  0.45110674  0.52366790  0.85535856  1  0.08235  0  0.102356  0.103223  0  0.987661  0
H  H9  1  0.06087972  0.03205083  0.65769831  1  0.085581  0  0.102128  0.111803  0  0.986309  0
H  H10  1  0.75553924  0.16656653  0.15132365  1  0.026827  0  0.086803  0.116619  0  1.005693  0
H  H11  1  0.73142443  0.17584140  0.04563573  1  0.045945  0  0.092027  0.132582  0  1.001463  0
H  H12  1  0.69673119  0.22220768  0.09848855  1  0.024781  0  0.088566  0.121137  0  0.999638  0
H  H13  1  0.24446007  0.83343013  0.84867403  1  0.026818  0  0.086828  0.116641  0  1.005617  0
H  H14  1  0.30326920  0.77778966  0.90150911  1  0.02488  0  0.088595  0.121158  0  0.999768  0
H  H15  1  0.26857443  0.82415460  0.95436229  1  0.046006  0  0.09206  0.132579  0  1.00146  0
H  H16  1  0.67579800  0.67509107  0.99783932  1  0.59458  0  0.329196  0.357247  0  0.891631  0
H  H17  1  0.32420614  0.32491290  0.00216567  1  0.594588  0  0.329175  0.357257  0  0.891583  0
H  H18  1  0.24412296  0.39852480  0.41698925  1  0.011844  0  0.086969  0.116811  0  1.004232  0
H  H19  1  0.54889956  0.47633741  0.14464749  1  0.082248  0  0.102351  0.103197  0  0.98762  0
H  H20  1  0.27041969  0.31859011  0.45248274  1  0.049582  0  0.092462  0.132738  0  1.004163  0
H  H21  1  0.30372869  0.40561585  0.53093391  1  0.021062  0  0.089264  0.122343  0  0.998503  0
H  H22  1  0.75587323  0.60147583  0.58301185  1  0.01155  0  0.086976  0.116845  0  1.00426  0
H  H23  1  0.69626625  0.59438478  0.46906547  1  0.02108  0  0.089299  0.122405  0  0.998433  0
H  H24  1  0.72957586  0.68141052  0.54751859  1  0.049476  0  0.09246  0.132707  0  1.004183  0
H  H25  1  0.31227269  0.31131338  0.31875364  1  0.039599  0  0.08689  0.116783  0  1.004283  0
H  H26  1  0.28729716  0.39212913  0.28368328  1  0.028157  0  0.087632  0.122007  0  1.00391  0
H  H27  1  0.38383945  0.39091468  0.28229588  1  0.026948  0  0.087322  0.120963  0  1.003747  0
H  H28  1  0.68772293  0.68868925  0.68124717  1  0.039505  0  0.086867  0.116758  0  1.004298  0
H  H29  1  0.61615701  0.60908729  0.71770425  1  0.026955  0  0.087276  0.120947  0  1.003693  0
H  H30  1  0.66960964  0.52351862  0.07264957  1  0.076801  0  0.102465  0.104736  0  0.987832  0
H  H31  1  0.71270056  0.60787284  0.71631856  1  0.024514  0  0.087618  0.121984  0  1.003807  0
H  H32  1  0.56753994  0.39799062  0.41262994  1  0.023704  0  0.088516  0.119004  0  1.000886  0
H  H33  1  0.62787005  0.40363134  0.52623654  1  0.01485  0  0.088343  0.11995  0  1.000195  0
H  H34  1  0.49462302  0.31803658  0.44777393  1  0.042857  0  0.090891  0.126741  0  1.014483  0
H  H35  1  0.43245473  0.60201535  0.58736987  1  0.023837  0  0.088498  0.118952  0  1.000844  0
H  H36  1  0.50537390  0.68196607  0.55222478  1  0.042587  0  0.09089  0.126713  0  1.014414  0
H  H37  1  0.37212670  0.59637198  0.47376099  1  0.014901  0  0.088314  0.119889  0  1.000165  0
H  H38  1  0.97252509  0.57660004  0.83651071  1  0.606502  0  0.333454  0.363734  0  0.883201  0
H  H39  1  0.02747480  0.42339659  0.16349165  1  0.606425  0  0.333446  0.363729  0  0.883097  0
H  H40  1  0.03257152  0.42707354  0.86558412  1  0.597612  0  0.332392  0.360423  0  0.885612  0
H  H41  1  0.33039556  0.47648602  0.92735649  1  0.076865  0  0.102427  0.10471  0  0.987915  0
H  H42  1  0.96743008  0.57292847  0.13441414  1  0.597763  0  0.3324  0.360426  0  0.885597  0
H  H43  1  0.99779439  0.32338448  0.99988076  1  0.609147  0  0.332061  0.360189  0  0.885713  0
H  H44  1  0.00220590  0.67661084  0.00012014  1  0.609226  0  0.332062  0.360214  0  0.885658  0
H  H45  1  0.43578737  0.84730568  0.83366506  1  0.038102  0  0.090547  0.122864  0  0.999473  0
H  H46  1  0.37463856  0.90066739  0.77861109  1  0.033155  0  0.088332  0.120435  0  0.999698  0
H  H47  1  0.50842730  0.95327856  0.82432489  1  0.038207  0  0.093505  0.133407  0  0.99854  0
H  H48  1  0.56421281  0.15269232  0.16633415  1  0.037859  0  0.090509  0.122782  0  0.999468  0
H  H49  1  0.49157180  0.04671877  0.17567434  1  0.038155  0  0.093513  0.133411  0  0.998514  0
H  H50  1  0.62536054  0.09932993  0.22138814  1  0.033138  0  0.088336  0.120439  0  0.999815  0
H  H51  1  0.56406310  0.16669650  0.40967726  1  0.038099  0  0.092836  0.128856  0  0.993851  0
H  H52  1  0.62872026  0.97020641  0.02884120  1  0.053795  0  0.098263  0.098534  0  0.987828  0
H  H53  1  0.48758634  0.17292729  0.44137900  1  0.049773  0  0.094234  0.134403  0  1.003698  0
H  H54  1  0.62111336  0.22193584  0.52205662  1  0.040671  0  0.087961  0.118096  0  1.002053  0
H  H55  1  0.43593089  0.83329884  0.59031618  1  0.038667  0  0.092885  0.128925  0  0.993863  0
H  H56  1  0.37888178  0.77806218  0.47793682  1  0.04095  0  0.087975  0.118128  0  1.002088  0
H  H57  1  0.51240701  0.82706804  0.55861466  1  0.049676  0  0.094248  0.134461  0  1.003778  0
H  H58  1  0.25659383  0.86844334  0.41801058  1  0.555643  0  0.330114  0.356356  0  0.893602  0
H  H59  1  0.74340192  0.13155465  0.58198591  1  0.555712  0  0.330078  0.356233  0  0.893769  0
H  H60  1  0.01698594  0.84729408  0.41473696  1  0.037212  0  0.091052  0.125014  0  0.997182  0
H  H61  1  0.13200915  0.95295817  0.44597732  1  0.059192  0  0.094436  0.137507  0  0.997471  0
H  H62  1  0.12618773  0.90167514  0.52735747  1  0.029598  0  0.08817  0.119678  0  1.0017  0
H  H63  1  0.37127946  0.02979091  0.97115943  1  0.053906  0  0.098278  0.098571  0  0.987823  0
H  H64  1  0.98301774  0.15271196  0.58525902  1  0.037055  0  0.091051  0.125042  0  0.997182  0
H  H65  1  0.87381716  0.09832890  0.47263801  1  0.029518  0  0.088167  0.11965  0  1.001778  0
H  H66  1  0.86799350  0.04704920  0.55401872  1  0.059377  0  0.094442  0.137561  0  0.997459  0
H  H67  1  0.02564047  0.15668110  0.41317693  1  0.57527  0  0.330348  0.356627  0  0.893315  0
H  H68  1  0.97435995  0.84331822  0.58682349  1  0.57526  0  0.330359  0.356633  0  0.893275  0
H  H69  1  0.37221170  0.96827922  0.34262443  1  0.088311  0  0.101975  0.111408  0  0.986867  0
H  H70  1  0.62778341  0.03171877  0.65737120  1  0.088401  0  0.101937  0.111348  0  0.986864  0
H  H71  1  0.93912185  0.96795116  0.34230213  1  0.085586  0  0.102129  0.111809  0  0.986279  0
C  C72  1  0.50311491  0.61411924  0.10910507  1  1.566639  0  0.225903  0.617318  0  4.174598  0
C  C73  1  0.49882639  0.94808800  0.44532999  1  0.009398  0  -0.013725  -0.117921  0  3.663749  0
C  C74  1  0.40494206  0.95683499  0.48431596  1  0.550242  0  0.086499  0.260047  0  3.730681  0
C  C75  1  0.59505412  0.04316367  0.51568128  1  0.550327  0  0.086476  0.259918  0  3.73064  0
C  C76  1  0.96701964  0.98270177  0.41247888  1  -0.079313  0  -0.091126  -0.193558  0  3.67352  0
C  C77  1  0.03298473  0.01730157  0.58752239  1  -0.079031  0  -0.091095  -0.193514  0  3.673584  0
C  C78  1  0.03802635  0.95822685  0.48314724  1  0.046084  0  -0.002525  0.112778  0  3.628952  0
C  C79  1  0.96197676  0.04177649  0.51685286  1  0.045632  0  -0.002525  0.112769  0  3.628873  0
C  C80  1  0.10539044  0.05337198  0.55419977  1  0.031512  0  -0.014011  -0.122135  0  3.66451  0
C  C81  1  0.89461176  0.94663001  0.44580153  1  0.031568  0  -0.013981  -0.122107  0  3.664456  0
C  C82  1  0.03459313  0.07718305  0.48178782  1  0.554003  0  0.085244  0.261571  0  3.721553  0
C  C83  1  0.49689140  0.38588608  0.89089934  1  1.566654  0  0.225896  0.617194  0  4.174789  0
C  C84  1  0.96540971  0.92281895  0.51821270  1  0.554044  0  0.085226  0.261565  0  3.721608  0
C  C85  1  0.57197669  0.58545842  0.01300817  1  0.590971  0  0.082726  0.289835  0  3.747093  0
C  C86  1  0.42802961  0.41454690  0.98699733  1  0.590994  0  0.082745  0.289941  0  3.747038  0
C  C87  1  0.49976900  0.89083602  0.38874894  1  1.542414  0  0.225175  0.628241  0  4.153973  0
C  C88  1  0.50022928  0.10916197  0.61124934  1  1.54237  0  0.225104  0.62811  0  4.15429  0
C  C89  1  0.47257265  0.51376706  0.92004653  1  -0.077478  0  -0.083717  -0.141875  0  3.651432  0
C  C90  1  0.52743237  0.48623826  0.07995889  1  -0.077263  0  -0.083679  -0.141757  0  3.651269  0
C  C91  1  0.49521620  0.44194384  0.94808059  1  0.018598  0  -0.010383  -0.07501  0  3.647946  0
C  C92  1  0.50478965  0.55806081  0.05192524  1  0.018321  0  -0.010342  -0.075067  0  3.648086  0
C  C93  1  0.59445758  0.51368589  0.04122151  1  -0.051458  0  -0.083287  -0.140581  0  3.649394  0
C  C94  1  0.47486951  0.95763951  0.92167117  1  -0.001398  0  0.004114  0.139483  0  3.610321  0
C  C95  1  0.40554852  0.48632009  0.95878499  1  -0.05132  0  -0.083246  -0.140601  0  3.649612  0
C  C96  1  0.42783359  0.44390726  0.41332593  1  0.035103  0  -0.006544  0.099034  0  3.626432  0
C  C97  1  0.57216114  0.55609403  0.58667391  1  0.035291  0  -0.006493  0.099065  0  3.626507  0
C  C98  1  0.40466879  0.44758658  0.48554810  1  0.024953  0  0.001807  0.091467  0  3.631268  0
C  C99  1  0.59532827  0.55241538  0.51445452  1  0.024742  0  0.001746  0.091392  0  3.631432  0
C  C100  1  0.50443791  0.45164049  0.55693734  1  -0.019332  0  -0.013266  -0.153275  0  3.650574  0
C  C101  1  0.49555828  0.54836014  0.44306376  1  -0.019302  0  -0.013293  -0.15332  0  3.650732  0
C  C102  1  0.52654187  0.44729183  0.48356548  1  0.039141  0  0.001037  0.088629  0  3.637182  0
C  C103  1  0.47345452  0.55270814  0.51643571  1  0.039049  0  0.000952  0.08848  0  3.637281  0
C  C104  1  0.03946598  0.48564688  0.95856451  1  0.553888  0  0.065585  0.153953  0  3.779072  0
C  C105  1  0.52513023  0.04235782  0.07832783  1  -0.001368  0  0.004117  0.139609  0  3.610252  0
C  C106  1  0.96053494  0.51434843  0.04143671  1  0.553832  0  0.065619  0.154021  0  3.779003  0
C  C107  1  0.96324625  0.51556644  0.92095873  1  0.539898  0  0.065886  0.153973  0  3.779726  0
C  C108  1  0.03675320  0.48442954  0.07904232  1  0.539839  0  0.065816  0.15386  0  3.779832  0
C  C109  1  0.89451166  0.44271916  0.94792927  1  -0.030448  0  -0.015072  -0.178173  0  3.640247  0
C  C110  1  0.10548692  0.55727549  0.05207025  1  -0.030235  0  -0.015092  -0.178124  0  3.640232  0
C  C111  1  0.22114424  0.61340933  0.11034163  1  1.594093  0  0.228821  0.648045  0  4.140725  0
C  C112  1  0.77885688  0.38658532  0.88965968  1  1.594772  0  0.228878  0.648205  0  4.140435  0
C  C113  1  0.97006315  0.41274563  0.98525915  1  0.564291  0  0.062347  0.148906  0  3.789563  0
C  C114  1  0.02993796  0.58724902  0.01474271  1  0.564367  0  0.062351  0.148901  0  3.789489  0
C  C115  1  0.77982501  0.88921541  0.38947736  1  1.542814  0  0.226552  0.629436  0  4.153007  0
C  C116  1  0.42858744  0.98257323  0.41264489  1  -0.074723  0  -0.091527  -0.190555  0  3.678389  0
C  C117  1  0.22017736  0.11078590  0.61052567  1  1.54292  0  0.226478  0.629343  0  4.153037  0
C  C118  1  0.49658916  0.60669223  0.38683610  1  1.513017  0  0.227169  0.626998  0  4.150164  0
C  C119  1  0.50340981  0.39330973  0.61316746  1  1.513132  0  0.227176  0.627158  0  4.150096  0
C  C120  1  0.50281519  0.89087596  0.11009463  1  1.497073  0  0.223243  0.61462  0  4.171553  0
C  C121  1  0.49718621  0.10912004  0.88990408  1  1.497036  0  0.223377  0.614706  0  4.171458  0
C  C122  1  0.57163509  0.98385035  0.01569739  1  -0.024926  0  -0.084365  -0.151554  0  3.65069  0
C  C123  1  0.42836381  0.01614763  0.98430229  1  -0.025042  0  -0.084357  -0.151653  0  3.650712  0
C  C124  1  0.59596401  0.07857224  0.04174354  1  0.047549  0  0.003676  0.139095  0  3.611859  0
C  C125  1  0.40403419  0.92142374  0.95825634  1  0.047557  0  0.00364  0.139133  0  3.611955  0
C  C126  1  0.49713639  0.05258417  0.94766629  1  0.002297  0  -0.012157  -0.112408  0  3.666551  0
C  C127  1  0.57140785  0.01742409  0.58735192  1  -0.07469  0  -0.091464  -0.190416  0  3.678284  0
C  C128  1  0.50286252  0.94741382  0.05233230  1  0.002176  0  -0.012151  -0.112522  0  3.666566  0
C  C129  1  0.70044304  0.16546078  0.08665953  1  -0.056274  0  -0.240199  -0.413068  0  4.003492  0
C  C130  1  0.29955690  0.83453589  0.91333847  1  -0.056514  0  -0.240309  -0.413139  0  4.003664  0
C  C131  1  0.30038459  0.38956195  0.47074698  1  -0.058073  0  -0.240207  -0.402674  0  4.000877  0
C  C132  1  0.69961139  0.61043934  0.52925511  1  -0.057789  0  -0.24025  -0.402747  0  4.00085  0
C  C133  1  0.34859983  0.38112118  0.31964861  1  -0.053292  0  -0.24201  -0.398666  0  3.998721  0
C  C134  1  0.65139814  0.61888212  0.68035336  1  -0.049532  0  -0.241943  -0.398597  0  3.998417  0
C  C135  1  0.55574261  0.38878917  0.46665222  1  -0.048939  0  -0.23969  -0.399698  0  4.000591  0
C  C136  1  0.44425493  0.61121347  0.53334790  1  -0.048794  0  -0.239632  -0.399519  0  4.000348  0
C  C137  1  0.44685938  0.91233142  0.83497248  1  -0.055641  0  -0.239109  -0.413795  0  3.99958  0
C  C138  1  0.52346420  0.07824886  0.48117218  1  0.011465  0  -0.003576  0.100603  0  3.65323  0
C  C139  1  0.55313991  0.08766523  0.16502684  1  -0.055305  0  -0.23907  -0.413734  0  3.999676  0
C  C140  1  0.55047913  0.16451973  0.46252917  1  -0.056108  0  -0.238394  -0.402832  0  4.002237  0
C  C141  1  0.44951511  0.83547694  0.53746493  1  -0.056855  0  -0.238509  -0.403048  0  4.002472  0
C  C142  1  0.08062205  0.91272922  0.46690060  1  -0.068615  0  -0.239533  -0.408104  0  4.000381  0
C  C143  1  0.91938225  0.08727681  0.53309678  1  -0.068353  0  -0.23954  -0.40817  0  4.000485  0
C  C144  1  0.47653199  0.92174981  0.51882398  1  0.011451  0  -0.003608  0.10052  0  3.653136  0
C  C145  1  0.50116763  0.05190931  0.55466620  1  0.009389  0  -0.013755  -0.118081  0  3.664013  0
O  O146  1  0.49969751  0.74934930  0.25087412  1  -1.210092  0  -0.572667  -1.027696  0  2.555526  0
O  O147  1  0.44156456  0.13508190  0.57078699  1  -1.170131  0  -0.313344  -0.544046  0  2.318697  0
O  O148  1  0.56532648  0.69838673  0.13285735  1  -1.171132  0  -0.309483  -0.52547  0  2.342512  0
O  O149  1  0.43468146  0.30161725  0.86714951  1  -1.171265  0  -0.309493  -0.525384  0  2.34258  0
O  O150  1  0.44107539  0.87192970  0.30477001  1  -1.167947  0  -0.320598  -0.554888  0  2.3249  0
O  O151  1  0.55891594  0.12806361  0.69522651  1  -1.167806  0  -0.320557  -0.554826  0  2.324987  0
O  O152  1  0.26262013  0.57066341  0.12899861  1  -1.159304  0  -0.314132  -0.54064  0  2.304385  0
O  O153  1  0.73737729  0.42932855  0.87100253  1  -1.159479  0  -0.314236  -0.540782  0  2.304092  0
O  O154  1  0.73466626  0.86689747  0.43000138  1  -1.183243  0  -0.314151  -0.542939  0  2.316541  0
O  O155  1  0.26533897  0.13310051  0.57000305  1  -1.183218  0  -0.314129  -0.542894  0  2.316517  0
O  O156  1  0.43792225  0.56928510  0.30248521  1  -1.171339  0  -0.316532  -0.55172  0  2.340567  0
O  O157  1  0.50030243  0.25064934  0.74912936  1  -1.210006  0  -0.572639  -1.027703  0  2.555539  0
O  O158  1  0.56207821  0.43071621  0.69751688  1  -1.171414  0  -0.316535  -0.551825  0  2.3407  0
O  O159  1  0.56805105  0.87097066  0.13558812  1  -1.166827  0  -0.318042  -0.550854  0  2.336473  0
O  O160  1  0.43194821  0.12902401  0.86440845  1  -1.167107  0  -0.318108  -0.550931  0  2.336418  0
O  O161  1  0.55720060  0.69082310  0.42839493  1  -1.180065  0  -0.316299  -0.550349  0  2.322425  0
O  O162  1  0.44279749  0.30917753  0.57160710  1  -1.179977  0  -0.316285  -0.550421  0  2.322229  0
O  O163  1  0.43678599  0.86702511  0.12998476  1  -1.160814  0  -0.317047  -0.549509  0  2.32502  0
O  O164  1  0.56321602  0.13297088  0.87001645  1  -1.16057  0  -0.317108  -0.549508  0  2.325005  0
O  O165  1  0.64396619  0.67385918  0.02872094  1  -1.124548  0  -0.381767  -0.491506  0  2.237022  0
O  O166  1  0.35604055  0.32614680  0.97128532  1  -1.12448  0  -0.381768  -0.491577  0  2.237067  0
O  O167  1  0.91803707  0.52525155  0.83803579  1  -1.13317  0  -0.379582  -0.473303  0  2.241675  0
O  O168  1  0.26663456  0.69743592  0.13594200  1  -1.169256  0  -0.311186  -0.533392  0  2.330648  0
O  O169  1  0.08196238  0.47474443  0.16196580  1  -1.133203  0  -0.379564  -0.473289  0  2.241558  0
O  O170  1  0.08659767  0.47698480  0.92101942  1  -1.121999  0  -0.379798  -0.470528  0  2.2445  0
O  O171  1  0.91340422  0.52301385  0.07898172  1  -1.122152  0  -0.379824  -0.470558  0  2.244453  0
O  O172  1  0.93633186  0.32410613  0.96894341  1  -1.133444  0  -0.37893  -0.467136  0  2.250308  0
O  O173  1  0.06366904  0.67588918  0.03105944  1  -1.13357  0  -0.378884  -0.467115  0  2.25028  0
O  O174  1  0.31020458  0.91735543  0.47412308  1  -1.088351  0  -0.380219  -0.488827  0  2.23252  0
O  O175  1  0.68979154  0.08264123  0.52587360  1  -1.088341  0  -0.380196  -0.488701  0  2.232611  0
O  O176  1  0.07814559  0.15962115  0.46926904  1  -1.10925  0  -0.380758  -0.491146  0  2.232595  0
O  O177  1  0.92185619  0.84038018  0.53073040  1  -1.109197  0  -0.380745  -0.491135  0  2.232569  0
O  O178  1  0.73336659  0.30255875  0.86405659  1  -1.169446  0  -0.311166  -0.533453  0  2.330522  0
O  O179  1  0.73656221  0.86801513  0.30549695  1  -1.185645  0  -0.319612  -0.552897  0  2.33119  0
O  O180  1  0.26343741  0.13198684  0.69450583  1  -1.185748  0  -0.319548  -0.552811  0  2.331208  0
O  O181  1  0.43785431  0.57085468  0.12938019  1  -1.175439  0  -0.32459  -0.56107  0  2.309559  0
O  O182  1  0.56214839  0.42914997  0.87062245  1  -1.175443  0  -0.324535  -0.560996  0  2.309685  0
O  O183  1  0.55843549  0.86491876  0.42921215  1  -1.1701  0  -0.31336  -0.544095  0  2.318655  0
