# generated using pymatgen
data_CdH12C14(NO2)2
_symmetry_space_group_name_H-M   'P 1'
_cell_length_a   6.83782043
_cell_length_b   10.55697271
_cell_length_c   18.55050000
_cell_angle_alpha   90.00000000
_cell_angle_beta   94.29905829
_cell_angle_gamma   90.00000000
_symmetry_Int_Tables_number   1
_chemical_formula_structural   CdH12C14(NO2)2
_chemical_formula_sum   'Cd4 H48 C56 N8 O16'
_cell_volume   1335.33133948
_cell_formula_units_Z   4
loop_
 _symmetry_equiv_pos_site_id
 _symmetry_equiv_pos_as_xyz
  1  'x, y, z'
loop_
 _atom_site_type_symbol
 _atom_site_label
 _atom_site_symmetry_multiplicity
 _atom_site_fract_x
 _atom_site_fract_y
 _atom_site_fract_z
 _atom_site_occupancy
 _atom_site_hle17_bader_spin_density
 _atom_site_hle17_ddec_charge
 _atom_site_hle17_ddec_spin_density
 _atom_site_hle17_ddec_sum_bond_order
 _atom_site_hle17_magmom
 _atom_site_hse06_10hf_bader_spin_density
 _atom_site_hse06_10hf_ddec_charge
 _atom_site_hse06_10hf_ddec_spin_density
 _atom_site_hse06_10hf_ddec_sum_bond_order
 _atom_site_hse06_10hf_magmom
 _atom_site_hse06_bader_spin_density
 _atom_site_hse06_ddec_charge
 _atom_site_hse06_ddec_spin_density
 _atom_site_hse06_ddec_sum_bond_order
 _atom_site_hse06_magmom
 _atom_site_pbe_bader_charge
 _atom_site_pbe_bader_spin_density
 _atom_site_pbe_cm5_charge
 _atom_site_pbe_ddec_charge
 _atom_site_pbe_ddec_spin_density
 _atom_site_pbe_ddec_sum_bond_order
 _atom_site_pbe_magmom
Cd  Cd0  1  0.24943019  0.92048642  0.49003545  1  0  1.168337  0  1.681503  0  0  0.969818  0  2.136188  0  0  1.027715  0  2.08267  0  1.291256  0  0.78185  0.928225  0  2.173338  0
Cd  Cd1  1  0.75056962  0.42048513  0.00996503  1  0  1.168311  0  1.681519  0  0  0.969784  0  2.136208  0  0  1.02768  0  2.08269  0  1.29126  0  0.781833  0.928192  0  2.173359  0
Cd  Cd2  1  0.75056669  0.07951617  0.50996387  1  0  1.168315  0  1.681511  0  0  0.969805  0  2.136199  0  0  1.027703  0  2.08268  0  1.29126  0  0.781852  0.928212  0  2.17335  0
Cd  Cd3  1  0.24943019  0.57951556  0.99003545  1  0  1.168295  0  1.681492  0  0  0.969769  0  2.13618  0  0  1.027666  0  2.082662  0  1.291306  0  0.781822  0.928177  0  2.17333  0
H  H4  1  0.57616238  0.68815940  0.72409254  1  0  0.117061  0  0.972995  0  0  0.123594  0  1.038895  0  0  0.127747  0  1.036118  0  0.12354  0  0.109106  0.120629  0  1.041025  0
H  H5  1  0.42384183  0.18815432  0.77590860  1  0  0.117074  0  0.972956  0  0  0.123601  0  1.038879  0  0  0.127756  0  1.036098  0  0.123635  0  0.109114  0.120637  0  1.041009  0
H  H6  1  0.42384037  0.31184319  0.27590694  1  0  0.117062  0  0.972995  0  0  0.12359  0  1.038902  0  0  0.127743  0  1.036125  0  0.123575  0  0.109092  0.120625  0  1.041032  0
H  H7  1  0.57616091  0.81184258  0.22409143  1  0  0.11706  0  0.972968  0  0  0.12359  0  1.038873  0  0  0.127744  0  1.036094  0  0.123587  0  0.109113  0.120625  0  1.041003  0
H  H8  1  0.31759539  0.52530590  0.74079635  1  0  0.116351  0  0.943347  0  0  0.126604  0  1.001699  0  0  0.129624  0  0.999605  0  0.14468  0  0.112783  0.12437  0  1.003325  0
H  H9  1  0.68241175  0.02530650  0.75920541  1  0  0.116382  0  0.943366  0  0  0.126613  0  1.001741  0  0  0.129635  0  0.999647  0  0.14415  0  0.11281  0.124379  0  1.003368  0
H  H10  1  0.68240882  0.47469574  0.25920317  1  0  0.116354  0  0.943368  0  0  0.126597  0  1.00173  0  0  0.129621  0  0.999638  0  0.144126  0  0.112793  0.124363  0  1.003356  0
H  H11  1  0.31759246  0.97469230  0.24079465  1  0  0.116379  0  0.943411  0  0  0.126618  0  1.001785  0  0  0.129633  0  0.999692  0  0.144139  0  0.112795  0.124384  0  1.003412  0
H  H12  1  0.02448603  0.51765598  0.65155554  1  0  0.097166  0  0.984595  0  0  0.10729  0  1.046932  0  0  0.109416  0  1.048316  0  0.093367  0  0.099976  0.10569  0  1.04623  0
H  H13  1  0.97552404  0.01765468  0.84844415  1  0  0.097233  0  0.98462  0  0  0.107366  0  1.046939  0  0  0.109491  0  1.048324  0  0.093326  0  0.100034  0.105767  0  1.046237  0
H  H14  1  0.97551964  0.48234377  0.34844456  1  0  0.097159  0  0.984572  0  0  0.107299  0  1.046901  0  0  0.109425  0  1.048286  0  0.093359  0  0.099989  0.1057  0  1.046197  0
H  H15  1  0.02448017  0.98234696  0.15155646  1  0  0.097244  0  0.984556  0  0  0.107372  0  1.046891  0  0  0.109498  0  1.048273  0  0.093302  0  0.100016  0.105773  0  1.046187  0
H  H16  1  0.88014643  0.76790669  0.53141557  1  0  0.135998  0  0.954253  0  0  0.154438  0  1.017743  0  0  0.156021  0  1.017684  0  0.092723  0  0.100182  0.15321  0  1.017905  0
H  H17  1  0.11985778  0.26790540  0.96858503  1  0  0.136017  0  0.954283  0  0  0.154463  0  1.017767  0  0  0.156046  0  1.017711  0  0.092771  0  0.100195  0.153235  0  1.017929  0
H  H18  1  0.11985484  0.23209210  0.46858441  1  0  0.136039  0  0.954214  0  0  0.154454  0  1.017734  0  0  0.156036  0  1.017677  0  0.092695  0  0.100187  0.153226  0  1.017896  0
H  H19  1  0.88014350  0.73209434  0.03141657  1  0  0.136007  0  0.954247  0  0  0.15446  0  1.017724  0  0  0.156042  0  1.017667  0  0.092723  0  0.100199  0.153232  0  1.017886  0
H  H20  1  0.83679137  0.60558743  0.55116475  1  0  0.116465  0  0.938179  0  0  0.140638  0  0.991277  0  0  0.142295  0  0.991113  0  0.044189  0  0.094304  0.139412  0  0.991406  0
H  H21  1  0.16321284  0.10558519  0.94883639  1  0  0.116457  0  0.938173  0  0  0.140643  0  0.991268  0  0  0.1423  0  0.991104  0  0.044142  0  0.094323  0.139417  0  0.991397  0
H  H22  1  0.16321137  0.39441136  0.44883581  1  0  0.116435  0  0.938204  0  0  0.140617  0  0.9913  0  0  0.142274  0  0.991135  0  0.044201  0  0.094298  0.139392  0  0.991427  0
H  H23  1  0.83678551  0.89441455  0.05116405  1  0  0.11644  0  0.938229  0  0  0.140621  0  0.991327  0  0  0.142278  0  0.991162  0  0.044128  0  0.09432  0.139395  0  0.991456  0
H  H24  1  0.98824663  0.64847567  0.48091450  1  0  0.118574  0  0.948278  0  0  0.139045  0  1.009983  0  0  0.139991  0  1.01095  0  0.035304  0  0.094348  0.13835  0  1.009301  0
H  H25  1  0.01175758  0.14847438  0.01908610  1  0  0.118646  0  0.948269  0  0  0.139124  0  1.009956  0  0  0.140067  0  1.010925  0  0.035284  0  0.094384  0.138429  0  1.009274  0
H  H26  1  0.01175464  0.35152312  0.51908548  1  0  0.118566  0  0.948287  0  0  0.139045  0  1.009979  0  0  0.139991  0  1.010946  0  0.035309  0  0.094338  0.138349  0  1.009297  0
H  H27  1  0.98824076  0.85152441  0.98091434  1  0  0.118601  0  0.948227  0  0  0.139076  0  1.00993  0  0  0.140019  0  1.010899  0  0.035317  0  0.094369  0.138381  0  1.009247  0
H  H28  1  0.84166922  0.75418780  0.25383423  1  0  0.115845  0  0.983324  0  0  0.122076  0  1.049575  0  0  0.126308  0  1.046706  0  0.109527  0  0.107167  0.118995  0  1.051872  0
H  H29  1  0.15832766  0.25418651  0.24616616  1  0  0.115779  0  0.9834  0  0  0.122014  0  1.049646  0  0  0.126247  0  1.046775  0  0.109559  0  0.107146  0.118933  0  1.051942  0
H  H30  1  0.15832766  0.24581289  0.74616563  1  0  0.115778  0  0.983397  0  0  0.122038  0  1.049625  0  0  0.126272  0  1.04675  0  0.109541  0  0.107152  0.118957  0  1.051922  0
H  H31  1  0.84167215  0.74581134  0.75383270  1  0  0.115758  0  0.983398  0  0  0.122019  0  1.049625  0  0  0.126252  0  1.046753  0  0.109528  0  0.107138  0.118937  0  1.051924  0
H  H32  1  0.07785930  0.59278547  0.21540331  1  0  0.109855  0  0.946334  0  0  0.119737  0  1.004693  0  0  0.122274  0  1.003222  0  0.149083  0  0.111484  0.117873  0  1.00583  0
H  H33  1  0.92214050  0.09278417  0.28459717  1  0  0.109834  0  0.946373  0  0  0.119717  0  1.004725  0  0  0.122255  0  1.003254  0  0.149138  0  0.111466  0.117854  0  1.005861  0
H  H34  1  0.92214197  0.40721617  0.78459775  1  0  0.109821  0  0.94635  0  0  0.119699  0  1.004716  0  0  0.122237  0  1.003245  0  0.149127  0  0.111471  0.117834  0  1.005855  0
H  H35  1  0.07786077  0.90721273  0.71540227  1  0  0.109811  0  0.946349  0  0  0.119719  0  1.004679  0  0  0.122256  0  1.003208  0  0.149076  0  0.111485  0.117856  0  1.005816  0
H  H36  1  0.39081883  0.55894812  0.29042913  1  0  0.113097  0  0.970365  0  0  0.122206  0  1.033822  0  0  0.124998  0  1.033477  0  0.113872  0  0.107673  0.12018  0  1.034229  0
H  H37  1  0.60917804  0.05894777  0.20957343  1  0  0.113117  0  0.970295  0  0  0.122193  0  1.033796  0  0  0.125003  0  1.033429  0  0.113821  0  0.107681  0.12017  0  1.034197  0
H  H38  1  0.60917951  0.44105447  0.70957293  1  0  0.113064  0  0.970424  0  0  0.122157  0  1.033909  0  0  0.124953  0  1.033558  0  0.113829  0  0.107667  0.120133  0  1.034312  0
H  H39  1  0.39082030  0.94105103  0.79042701  1  0  0.11307  0  0.97038  0  0  0.1222  0  1.033817  0  0  0.124974  0  1.033494  0  0.113893  0  0.107677  0.120174  0  1.034225  0
H  H40  1  0.57446994  0.77497974  0.43313233  1  0  0.131776  0  0.959284  0  0  0.150399  0  1.023418  0  0  0.15209  0  1.022831  0  0.077533  0  0.098649  0.149044  0  1.024029  0
H  H41  1  0.42552840  0.27497845  0.06686919  1  0  0.131829  0  0.959297  0  0  0.150428  0  1.023442  0  0  0.152118  0  1.022856  0  0.077554  0  0.098654  0.149073  0  1.024051  0
H  H42  1  0.42552840  0.22502095  0.56686973  1  0  0.131802  0  0.959296  0  0  0.150392  0  1.023455  0  0  0.152083  0  1.022868  0  0.077554  0  0.098656  0.149038  0  1.024065  0
H  H43  1  0.57447141  0.72502035  0.93313075  1  0  0.131784  0  0.959305  0  0  0.150399  0  1.023441  0  0  0.152089  0  1.022856  0  0.077537  0  0.098639  0.149045  0  1.02405  0
H  H44  1  0.61692892  0.62655746  0.39109214  1  0  0.116799  0  0.961689  0  0  0.13766  0  1.022263  0  0  0.138613  0  1.023666  0  0.042744  0  0.091846  0.136831  0  1.021465  0
H  H45  1  0.38306796  0.12655711  0.10890772  1  0  0.116847  0  0.961705  0  0  0.137697  0  1.022278  0  0  0.138649  0  1.023682  0  0.042713  0  0.091848  0.136865  0  1.021483  0
H  H46  1  0.38306796  0.37344228  0.60890826  1  0  0.116778  0  0.961696  0  0  0.137641  0  1.022266  0  0  0.138595  0  1.023672  0  0.042714  0  0.091833  0.136811  0  1.021469  0
H  H47  1  0.61693039  0.87343979  0.89109165  1  0  0.116829  0  0.961674  0  0  0.137688  0  1.022249  0  0  0.13864  0  1.023653  0  0.04274  0  0.091839  0.136859  0  1.021451  0
H  H48  1  0.47449607  0.63505421  0.46755110  1  0  0.115782  0  0.938575  0  0  0.137024  0  0.998293  0  0  0.13835  0  0.998212  0  0.042109  0  0.093276  0.13613  0  0.998226  0
H  H49  1  0.52550521  0.13505482  0.03244996  1  0  0.115798  0  0.938581  0  0  0.137039  0  0.998291  0  0  0.138365  0  0.998209  0  0.042128  0  0.093283  0.136145  0  0.998224  0
H  H50  1  0.52550228  0.36494648  0.53244988  1  0  0.115788  0  0.938587  0  0  0.137026  0  0.998302  0  0  0.138353  0  0.99822  0  0.042134  0  0.093279  0.136133  0  0.998234  0
H  H51  1  0.47449607  0.86494398  0.96754948  1  0  0.115778  0  0.938672  0  0  0.137047  0  0.998352  0  0  0.138374  0  0.998271  0  0.042156  0  0.093279  0.136154  0  0.998284  0
C  C52  1  0.42394009  0.76465671  0.62724470  1  0  0.109562  0  3.733841  0  0  0.112801  0  3.975438  0  0  0.114965  0  3.995348  0  0.474394  0  0.111788  0.111293  0  3.96214  0
C  C53  1  0.57606265  0.26465447  0.87275748  1  0  0.109514  0  3.733744  0  0  0.112773  0  3.975316  0  0  0.114936  0  3.99523  0  0.474386  0  0.111792  0.111266  0  3.962017  0
C  C54  1  0.57605971  0.23534682  0.37275524  1  0  0.109515  0  3.733592  0  0  0.112714  0  3.975258  0  0  0.114877  0  3.99517  0  0.474429  0  0.111768  0.111208  0  3.961959  0
C  C55  1  0.42394009  0.73534717  0.12724254  1  0  0.109564  0  3.733864  0  0  0.112827  0  3.975394  0  0  0.11499  0  3.995308  0  0.47437  0  0.111807  0.11132  0  3.962094  0
C  C56  1  0.44846279  0.68131463  0.68567061  1  0  -0.126191  0  3.708681  0  0  -0.149615  0  3.959202  0  0  -0.155721  0  3.979786  0  -0.015863  0  -0.079889  -0.145839  0  3.945545  0
C  C57  1  0.55154435  0.18131239  0.81433007  1  0  -0.126074  0  3.708551  0  0  -0.149512  0  3.959078  0  0  -0.155618  0  3.979662  0  -0.015811  0  -0.079823  -0.145738  0  3.94542  0
C  C58  1  0.55154142  0.31868795  0.31432730  1  0  -0.126139  0  3.70851  0  0  -0.149543  0  3.959045  0  0  -0.155648  0  3.97963  0  -0.01586  0  -0.07982  -0.145769  0  3.945389  0
C  C59  1  0.44845692  0.81868640  0.18567045  1  0  -0.126081  0  3.708611  0  0  -0.149496  0  3.959106  0  0  -0.155602  0  3.979691  0  -0.015819  0  -0.079858  -0.145721  0  3.945449  0
C  C60  1  0.30454282  0.59042589  0.69487465  1  0  0.001239  0  3.712301  0  0  -0.016426  0  3.96564  0  0  -0.012718  0  3.982713  0  -0.078364  0  -0.06513  -0.018546  0  3.953972  0
C  C61  1  0.69546872  0.09042839  0.80512561  1  0  0.001116  0  3.712419  0  0  -0.016539  0  3.965803  0  0  -0.01283  0  3.982872  0  -0.07784  0  -0.065198  -0.018659  0  3.954136  0
C  C62  1  0.69546579  0.40957385  0.30512553  1  0  0.001156  0  3.71242  0  0  -0.01651  0  3.965779  0  0  -0.012808  0  3.982857  0  -0.077882  0  -0.065184  -0.018629  0  3.954109  0
C  C63  1  0.30453402  0.90957136  0.19487495  1  0  0.001085  0  3.71247  0  0  -0.016594  0  3.965859  0  0  -0.012881  0  3.982927  0  -0.077839  0  -0.065165  -0.018714  0  3.954191  0
C  C64  1  0.14098387  0.58628739  0.64557157  1  0  -0.171559  0  3.701199  0  0  -0.188028  0  3.943309  0  0  -0.19531  0  3.964109  0  -0.034092  0  -0.086481  -0.183183  0  3.929391  0
C  C65  1  0.85902474  0.08628705  0.85442916  1  0  -0.171512  0  3.70124  0  0  -0.187979  0  3.943337  0  0  -0.195258  0  3.964142  0  -0.03413  0  -0.086506  -0.183137  0  3.929418  0
C  C66  1  0.85902034  0.41371140  0.35442796  1  0  -0.171474  0  3.701212  0  0  -0.187932  0  3.943298  0  0  -0.195214  0  3.9641  0  -0.034115  0  -0.086485  -0.183087  0  3.92938  0
C  C67  1  0.14097801  0.91371364  0.14557141  1  0  -0.171603  0  3.701237  0  0  -0.188058  0  3.943352  0  0  -0.195337  0  3.964152  0  -0.034087  0  -0.086544  -0.183215  0  3.929433  0
C  C68  1  0.12303292  0.67304143  0.58843611  1  0  0.319729  0  3.724148  0  0  0.325776  0  3.968119  0  0  0.334638  0  3.988281  0  0.50726  0  0.123061  0.319684  0  3.954308  0
C  C69  1  0.87697422  0.17304014  0.91156511  1  0  0.319677  0  3.724214  0  0  0.325726  0  3.968206  0  0  0.334579  0  3.988383  0  0.507248  0  0.123119  0.319639  0  3.954384  0
C  C70  1  0.87696835  0.32695831  0.41156333  1  0  0.319727  0  3.724043  0  0  0.325744  0  3.968069  0  0  0.334609  0  3.988223  0  0.507253  0  0.123111  0.319653  0  3.954256  0
C  C71  1  0.12302852  0.82696150  0.08843545  1  0  0.319758  0  3.724139  0  0  0.325779  0  3.968163  0  0  0.334632  0  3.988342  0  0.507229  0  0.12312  0.319693  0  3.95434  0
C  C72  1  0.57912927  0.86426765  0.61505887  1  0  0.623732  0  3.930346  0  0  0.568713  0  4.235052  0  0  0.603103  0  4.226024  0  1.610712  0  0.205813  0.545311  0  4.240388  0
C  C73  1  0.42087054  0.36426162  0.88494107  1  0  0.623731  0  3.930355  0  0  0.568776  0  4.23494  0  0  0.603166  0  4.225913  0  1.610673  0  0.205863  0.545373  0  4.240274  0
C  C74  1  0.42087054  0.13573493  0.38494000  1  0  0.623855  0  3.930273  0  0  0.568872  0  4.234952  0  0  0.603262  0  4.225925  0  1.61071  0  0.205938  0.545468  0  4.240286  0
C  C75  1  0.57912927  0.63573623  0.11505941  1  0  0.623636  0  3.930439  0  0  0.568678  0  4.235031  0  0  0.603068  0  4.226005  0  1.610955  0  0.205823  0.545275  0  4.240364  0
C  C76  1  0.94705771  0.67339570  0.53528109  1  0  -0.37755  0  3.697973  0  0  -0.458424  0  3.932234  0  0  -0.461735  0  3.939972  0  -0.077604  0  -0.240389  -0.455769  0  3.92674  0
C  C77  1  0.05294796  0.17339440  0.96472009  1  0  -0.377674  0  3.69807  0  0  -0.458577  0  3.932367  0  0  -0.461884  0  3.94011  0  -0.077687  0  -0.240512  -0.455924  0  3.926873  0
C  C78  1  0.05294503  0.32660310  0.46471947  1  0  -0.377586  0  3.697962  0  0  -0.458448  0  3.932253  0  0  -0.461759  0  3.939991  0  -0.077615  0  -0.240419  -0.455794  0  3.926758  0
C  C79  1  0.94705184  0.82660629  0.03528093  1  0  -0.37759  0  3.697964  0  0  -0.45848  0  3.932259  0  0  -0.461785  0  3.940001  0  -0.07761  0  -0.240478  -0.455826  0  3.926763  0
C  C80  1  0.02654658  0.80758000  0.34828911  1  0  0.103727  0  3.751964  0  0  0.105057  0  3.9962  0  0  0.106999  0  4.016449  0  0.470169  0  0.108691  0.103706  0  3.982608  0
C  C81  1  0.97345030  0.30758249  0.15171290  1  0  0.103716  0  3.751844  0  0  0.105055  0  3.996042  0  0  0.106998  0  4.016292  0  0.470465  0  0.108704  0.103703  0  3.98245  0
C  C82  1  0.97345176  0.19242069  0.65171186  1  0  0.103635  0  3.751919  0  0  0.104985  0  3.996114  0  0  0.106928  0  4.016363  0  0.470445  0  0.108652  0.103634  0  3.982522  0
C  C83  1  0.02654951  0.69241820  0.84828758  1  0  0.103802  0  3.751829  0  0  0.105116  0  3.996078  0  0  0.107058  0  4.016328  0  0.470449  0  0.108727  0.103763  0  3.982485  0
C  C84  1  0.97935182  0.73838687  0.28553328  1  0  -0.124359  0  3.717905  0  0  -0.148262  0  3.969405  0  0  -0.154216  0  3.989553  0  0.02654  0  -0.080687  -0.144525  0  3.956112  0
C  C85  1  0.02064652  0.23838557  0.21446716  1  0  -0.124184  0  3.717899  0  0  -0.148086  0  3.969382  0  0  -0.15404  0  3.98953  0  0.026521  0  -0.080627  -0.144347  0  3.956088  0
C  C86  1  0.02064652  0.26161288  0.71446769  1  0  -0.124113  0  3.717847  0  0  -0.148042  0  3.969313  0  0  -0.153996  0  3.989462  0  0.026525  0  -0.080592  -0.144304  0  3.956019  0
C  C87  1  0.97935182  0.76161038  0.78553167  1  0  -0.124276  0  3.717859  0  0  -0.148202  0  3.969355  0  0  -0.154157  0  3.989503  0  0.026492  0  -0.080656  -0.144463  0  3.956061  0
C  C88  1  0.11108029  0.64781829  0.26429247  1  0  0.015323  0  3.714206  0  0  -0.003613  0  3.9674  0  0  0.000719  0  3.984111  0  -0.05683  0  -0.064193  -0.00619  0  3.955971  0
C  C89  1  0.88891805  0.14781700  0.23570743  1  0  0.015177  0  3.714246  0  0  -0.003773  0  3.96745  0  0  0.000558  0  3.984167  0  -0.056908  0  -0.06425  -0.00635  0  3.956024  0
C  C90  1  0.88891805  0.35218335  0.73570743  1  0  0.015246  0  3.714247  0  0  -0.003702  0  3.967456  0  0  0.00063  0  3.98417  0  -0.056888  0  -0.064225  -0.006278  0  3.956028  0
C  C91  1  0.11108029  0.85217991  0.76429193  1  0  0.015346  0  3.714118  0  0  -0.003615  0  3.967329  0  0  0.000718  0  3.984033  0  -0.056818  0  -0.064232  -0.00619  0  3.955898  0
C  C92  1  0.28562247  0.62893125  0.30633698  1  0  -0.168296  0  3.675334  0  0  -0.186029  0  3.918827  0  0  -0.192994  0  3.938394  0  -0.104423  0  -0.081224  -0.181402  0  3.905708  0
C  C93  1  0.71437294  0.12893185  0.19366500  1  0  -0.168228  0  3.675123  0  0  -0.185918  0  3.918632  0  0  -0.192897  0  3.93819  0  -0.104477  0  -0.081195  -0.18129  0  3.905513  0
C  C94  1  0.71437734  0.37107134  0.69366458  1  0  -0.168204  0  3.675365  0  0  -0.185906  0  3.918876  0  0  -0.192875  0  3.938443  0  -0.104507  0  -0.081193  -0.181279  0  3.905756  0
C  C95  1  0.28562393  0.87106695  0.80633432  1  0  -0.168235  0  3.675302  0  0  -0.18601  0  3.918792  0  0  -0.192962  0  3.938366  0  -0.104546  0  -0.081205  -0.181381  0  3.905674  0
C  C96  1  0.32591530  0.70139710  0.36898560  1  0  0.318387  0  3.719525  0  0  0.326425  0  3.959833  0  0  0.335433  0  3.979936  0  0.489429  0  0.124766  0.320339  0  3.945921  0
C  C97  1  0.67408011  0.20139770  0.13101638  1  0  0.318385  0  3.719398  0  0  0.326386  0  3.959743  0  0  0.335394  0  3.97985  0  0.48944  0  0.124753  0.320298  0  3.945832  0
C  C98  1  0.67408157  0.29860454  0.63101642  1  0  0.318292  0  3.719497  0  0  0.326281  0  3.959879  0  0  0.335289  0  3.979985  0  0.489453  0  0.124708  0.320194  0  3.945966  0
C  C99  1  0.32591824  0.79860110  0.86898244  1  0  0.318365  0  3.719483  0  0  0.326469  0  3.959706  0  0  0.335479  0  3.979805  0  0.489443  0  0.124797  0.320381  0  3.945796  0
C  C100  1  0.88024469  0.90240548  0.37441012  1  0  0.613173  0  3.940224  0  0  0.560346  0  4.242811  0  0  0.594266  0  4.234373  0  1.617647  0  0.20415  0.537252  0  4.247806  0
C  C101  1  0.11975805  0.40240987  0.12559098  1  0  0.613267  0  3.940221  0  0  0.560474  0  4.242723  0  0  0.594394  0  4.234282  0  1.617411  0  0.204227  0.53738  0  4.247721  0
C  C102  1  0.11975512  0.09759521  0.62558982  1  0  0.613206  0  3.940207  0  0  0.560413  0  4.242721  0  0  0.594333  0  4.234281  0  1.617384  0  0.20421  0.53732  0  4.247716  0
C  C103  1  0.88024323  0.59759366  0.87440954  1  0  0.613137  0  3.940327  0  0  0.560337  0  4.242864  0  0  0.594257  0  4.234424  0  1.617383  0  0.204139  0.537243  0  4.247859  0
C  C104  1  0.50889325  0.68334647  0.41744794  1  0  -0.377869  0  3.708429  0  0  -0.459887  0  3.942793  0  0  -0.463053  0  3.950576  0  -0.054687  0  -0.241664  -0.457288  0  3.937251  0
C  C105  1  0.49110363  0.18334517  0.08255300  1  0  -0.378017  0  3.708489  0  0  -0.459981  0  3.94283  0  0  -0.46315  0  3.950613  0  -0.054699  0  -0.241685  -0.457379  0  3.937287  0
C  C106  1  0.49110509  0.31665422  0.58255358  1  0  -0.377859  0  3.708467  0  0  -0.459826  0  3.942852  0  0  -0.462997  0  3.95064  0  -0.054701  0  -0.241641  -0.457226  0  3.937307  0
C  C107  1  0.50889325  0.81665362  0.91744632  1  0  -0.377961  0  3.708493  0  0  -0.460008  0  3.942822  0  0  -0.463177  0  3.950607  0  -0.054703  0  -0.24169  -0.457407  0  3.937277  0
N  N108  1  0.26440691  0.75971116  0.57981291  1  0  -0.404177  0  3.201382  0  0  -0.336802  0  3.451782  0  0  -0.356579  0  3.470336  0  -1.237153  0  -0.320891  -0.323145  0  3.439083  0
N  N109  1  0.73559730  0.25970892  0.92018823  1  0  -0.404077  0  3.201348  0  0  -0.336733  0  3.451764  0  0  -0.356508  0  3.470322  0  -1.237154  0  -0.320892  -0.323077  0  3.439062  0
N  N110  1  0.73559290  0.24028953  0.42018649  1  0  -0.404049  0  3.201195  0  0  -0.336691  0  3.451685  0  0  -0.356468  0  3.470237  0  -1.237158  0  -0.320847  -0.323033  0  3.438984  0
N  N111  1  0.26440544  0.74029272  0.07981179  1  0  -0.404102  0  3.201321  0  0  -0.336747  0  3.451734  0  0  -0.356522  0  3.470293  0  -1.237112  0  -0.320867  -0.32309  0  3.439031  0
N  N112  1  0.19695593  0.78934276  0.38867607  1  0  -0.407911  0  3.223633  0  0  -0.337561  0  3.474845  0  0  -0.357851  0  3.493314  0  -1.216594  0  -0.323452  -0.32363  0  3.462082  0
N  N113  1  0.80304095  0.28934336  0.11132594  1  0  -0.407918  0  3.223648  0  0  -0.337558  0  3.474851  0  0  -0.357849  0  3.493319  0  -1.216556  0  -0.323449  -0.323628  0  3.462093  0
N  N114  1  0.80304242  0.21065888  0.61132545  1  0  -0.407905  0  3.22361  0  0  -0.337553  0  3.474826  0  0  -0.357843  0  3.493295  0  -1.216545  0  -0.323452  -0.323624  0  3.462069  0
N  N115  1  0.19696033  0.71065543  0.88867350  1  0  -0.407912  0  3.223625  0  0  -0.337598  0  3.47484  0  0  -0.357888  0  3.493306  0  -1.216577  0  -0.323472  -0.32367  0  3.462089  0
O  O116  1  0.56659880  0.91549635  0.55124696  1  0  -0.689668  0  2.133624  0  0  -0.604517  0  2.413158  0  0  -0.637501  0  2.398086  0  -1.173543  0  -0.339215  -0.581122  0  2.422683  0
O  O117  1  0.43339807  0.41549222  0.94875290  1  0  -0.68973  0  2.13354  0  0  -0.604592  0  2.413029  0  0  -0.637569  0  2.397939  0  -1.173464  0  -0.339258  -0.581206  0  2.42258  0
O  O118  1  0.43339514  0.08450623  0.44875228  1  0  -0.689789  0  2.13364  0  0  -0.604623  0  2.413137  0  0  -0.637598  0  2.398045  0  -1.173468  0  -0.339281  -0.581242  0  2.422698  0
O  O119  1  0.56659734  0.58450468  0.05124691  1  0  -0.689669  0  2.133516  0  0  -0.604535  0  2.413008  0  0  -0.637511  0  2.397917  0  -1.173559  0  -0.339267  -0.581156  0  2.422574  0
O  O120  1  0.70784959  0.88697776  0.66420521  1  0  -0.572837  0  1.918962  0  0  -0.531733  0  2.144531  0  0  -0.554065  0  2.136793  0  -1.166638  0  -0.306899  -0.515982  0  2.149299  0
O  O121  1  0.29215608  0.38697363  0.83579381  1  0  -0.572852  0  1.919014  0  0  -0.531777  0  2.144554  0  0  -0.554105  0  2.136811  0  -1.1666  0  -0.30695  -0.516023  0  2.149323  0
O  O122  1  0.29215462  0.11302198  0.33579269  1  0  -0.572915  0  1.918961  0  0  -0.531821  0  2.144512  0  0  -0.554149  0  2.13677  0  -1.166662  0  -0.306995  -0.516067  0  2.149283  0
O  O123  1  0.70784373  0.61302422  0.16420451  1  0  -0.572803  0  1.919094  0  0  -0.531728  0  2.144631  0  0  -0.554057  0  2.13689  0  -1.166857  0  -0.306903  -0.515975  0  2.149402  0
O  O124  1  0.92641119  0.95005266  0.43770566  1  0  -0.685538  0  2.142803  0  0  -0.60173  0  2.423025  0  0  -0.634457  0  2.408285  0  -1.177458  0  -0.340525  -0.578558  0  2.432477  0
O  O125  1  0.07358422  0.45005137  0.06229362  1  0  -0.685648  0  2.142823  0  0  -0.601834  0  2.423017  0  0  -0.634562  0  2.408276  0  -1.17745  0  -0.340577  -0.578661  0  2.43247  0
O  O126  1  0.07358716  0.04995182  0.56229370  1  0  -0.685568  0  2.142803  0  0  -0.601771  0  2.422992  0  0  -0.634498  0  2.408252  0  -1.177413  0  -0.340548  -0.578598  0  2.432446  0
O  O127  1  0.92640972  0.54995311  0.93770670  1  0  -0.685541  0  2.142836  0  0  -0.601727  0  2.423023  0  0  -0.634456  0  2.408285  0  -1.177427  0  -0.340525  -0.578553  0  2.432473  0
O  O128  1  0.72775256  0.92516484  0.33564652  1  0  -0.572012  0  1.892205  0  0  -0.527009  0  2.109461  0  0  -0.549362  0  2.103  0  -1.162818  0  -0.310283  -0.51133  0  2.113441  0
O  O129  1  0.27224138  0.42516545  0.16435380  1  0  -0.571998  0  1.892368  0  0  -0.52702  0  2.109612  0  0  -0.549369  0  2.103142  0  -1.162835  0  -0.310289  -0.511341  0  2.113592  0
O  O130  1  0.27224432  0.07483490  0.66435442  1  0  -0.572  0  1.892252  0  0  -0.527011  0  2.109492  0  0  -0.549362  0  2.103022  0  -1.162807  0  -0.310307  -0.511335  0  2.113472  0
O  O131  1  0.72775843  0.57483335  0.83564560  1  0  -0.571975  0  1.892319  0  0  -0.526977  0  2.109549  0  0  -0.549326  0  2.103081  0  -1.162818  0  -0.310252  -0.5113  0  2.113531  0
