# generated using pymatgen
data_CaH12(C8O3)2
_symmetry_space_group_name_H-M   'P 1'
_cell_length_a   7.55794935
_cell_length_b   7.83864580
_cell_length_c   13.09361818
_cell_angle_alpha   107.42156986
_cell_angle_beta   90.35496998
_cell_angle_gamma   89.98948281
_symmetry_Int_Tables_number   1
_chemical_formula_structural   CaH12(C8O3)2
_chemical_formula_sum   'Ca2 H24 C32 O12'
_cell_volume   740.12007771
_cell_formula_units_Z   2
loop_
 _symmetry_equiv_pos_site_id
 _symmetry_equiv_pos_as_xyz
  1  'x, y, z'
loop_
 _atom_site_type_symbol
 _atom_site_label
 _atom_site_symmetry_multiplicity
 _atom_site_fract_x
 _atom_site_fract_y
 _atom_site_fract_z
 _atom_site_occupancy
 _atom_site_hle17_bader_spin_density
 _atom_site_hle17_ddec_charge
 _atom_site_hle17_ddec_spin_density
 _atom_site_hle17_ddec_sum_bond_order
 _atom_site_hle17_magmom
 _atom_site_hse06_10hf_bader_spin_density
 _atom_site_hse06_10hf_ddec_charge
 _atom_site_hse06_10hf_ddec_spin_density
 _atom_site_hse06_10hf_ddec_sum_bond_order
 _atom_site_hse06_10hf_magmom
 _atom_site_hse06_bader_spin_density
 _atom_site_hse06_ddec_charge
 _atom_site_hse06_ddec_spin_density
 _atom_site_hse06_ddec_sum_bond_order
 _atom_site_hse06_magmom
 _atom_site_pbe_bader_spin_density
 _atom_site_pbe_cm5_charge
 _atom_site_pbe_ddec_charge
 _atom_site_pbe_ddec_spin_density
 _atom_site_pbe_ddec_sum_bond_order
 _atom_site_pbe_magmom
Ca  Ca0  1  0.75003630  0.46306410  0.99998847  1  0  1.502363  0  1.162012  0  0  1.365698  0  1.508116  0  0  1.412887  0  1.464828  0  0  0.930531  1.330166  0  1.538775  0
Ca  Ca1  1  0.24996257  0.53693614  0.00001324  1  0  1.502311  0  1.162105  0  0  1.365666  0  1.508166  0  0  1.412844  0  1.46489  0  0  0.930521  1.330129  0  1.538826  0
H  H2  1  0.32275274  0.52717795  0.35547991  1  0  0.104017  0  0.96425  0  0  0.113498  0  1.026792  0  0  0.117364  0  1.023522  0  0  0.105354  0.110689  0  1.029182  0
H  H3  1  0.17734061  0.17151197  0.64454015  1  0  0.103342  0  0.965686  0  0  0.113335  0  1.027472  0  0  0.117108  0  1.02434  0  0  0.105215  0.110582  0  1.029797  0
H  H4  1  0.67724483  0.47282766  0.64452126  1  0  0.103903  0  0.964373  0  0  0.113419  0  1.026882  0  0  0.117283  0  1.023614  0  0  0.105323  0.110613  0  1.029271  0
H  H5  1  0.82266486  0.82848425  0.35546010  1  0  0.103364  0  0.96568  0  0  0.113372  0  1.027443  0  0  0.117144  0  1.02431  0  0  0.105249  0.110619  0  1.029767  0
H  H6  1  0.92804168  0.28072973  0.32938898  1  0  0.11061  0  0.965707  0  0  0.122142  0  1.024678  0  0  0.124897  0  1.024769  0  0  0.106522  0.120133  0  1.024817  0
H  H7  1  0.57249924  0.95044632  0.67078437  1  0  0.110193  0  0.965286  0  0  0.121803  0  1.024216  0  0  0.124527  0  1.02433  0  0  0.106656  0.119832  0  1.024318  0
H  H8  1  0.07195588  0.71926654  0.67060894  1  0  0.110642  0  0.965767  0  0  0.122165  0  1.024737  0  0  0.124924  0  1.024823  0  0  0.106538  0.120156  0  1.024876  0
H  H9  1  0.42750359  0.04955257  0.32921713  1  0  0.110205  0  0.965297  0  0  0.121812  0  1.024224  0  0  0.124532  0  1.024341  0  0  0.106655  0.119836  0  1.024331  0
H  H10  1  0.78924330  0.38137508  0.50314533  1  0  0.092794  0  0.953954  0  0  0.106663  0  1.008974  0  0  0.109201  0  1.007634  0  0  0.103672  0.104794  0  1.009995  0
H  H11  1  0.71105905  0.87753704  0.49699727  1  0  0.093328  0  0.953965  0  0  0.107116  0  1.009107  0  0  0.109652  0  1.007765  0  0  0.103775  0.105286  0  1.010094  0
H  H12  1  0.21075426  0.61862387  0.49685308  1  0  0.092822  0  0.953953  0  0  0.10669  0  1.008974  0  0  0.10923  0  1.007643  0  0  0.103688  0.104847  0  1.009966  0
H  H13  1  0.28894248  0.12246321  0.50300294  1  0  0.093308  0  0.953971  0  0  0.107102  0  1.009108  0  0  0.109638  0  1.007765  0  0  0.103767  0.105273  0  1.010096  0
H  H14  1  0.05324161  0.25939276  0.17607060  1  0  0.103188  0  0.95301  0  0  0.119399  0  1.01725  0  0  0.120798  0  1.015832  0  0  0.106287  0.118321  0  1.018347  0
H  H15  1  0.44691369  0.08355857  0.82404559  1  0  0.10362  0  0.952128  0  0  0.119464  0  1.016852  0  0  0.120856  0  1.015444  0  0  0.106256  0.118382  0  1.017961  0
H  H16  1  0.94675330  0.74060618  0.82392856  1  0  0.103177  0  0.953052  0  0  0.119403  0  1.017277  0  0  0.1208  0  1.015861  0  0  0.106255  0.118324  0  1.018375  0
H  H17  1  0.55308916  0.91644168  0.17595462  1  0  0.103614  0  0.952113  0  0  0.119481  0  1.016806  0  0  0.120874  0  1.015399  0  0  0.106266  0.118399  0  1.017914  0
H  H18  1  0.96939236  0.13675600  0.04756098  1  0  0.10641  0  0.953996  0  0  0.122109  0  1.018094  0  0  0.123678  0  1.016635  0  0  0.116258  0.12087  0  1.019275  0
H  H19  1  0.53063367  0.08949653  0.95258975  1  0  0.106046  0  0.954122  0  0  0.121886  0  1.018258  0  0  0.123432  0  1.016849  0  0  0.116025  0.120659  0  1.019421  0
H  H20  1  0.03059991  0.86324428  0.95243841  1  0  0.106416  0  0.954045  0  0  0.122129  0  1.018131  0  0  0.123698  0  1.016674  0  0  0.116248  0.120891  0  1.01931  0
H  H21  1  0.46936918  0.91050506  0.04741071  1  0  0.106048  0  0.954136  0  0  0.121881  0  1.018279  0  0  0.123428  0  1.01687  0  0  0.116029  0.120654  0  1.019443  0
H  H22  1  0.91312584  0.06644411  0.16246613  1  0  0.082495  0  0.973546  0  0  0.096523  0  1.04429  0  0  0.096253  0  1.045089  0  0  0.097785  0.096599  0  1.043834  0
H  H23  1  0.58670534  0.90402865  0.83778082  1  0  0.082141  0  0.973184  0  0  0.097118  0  1.04313  0  0  0.096869  0  1.043919  0  0  0.098068  0.097182  0  1.04268  0
H  H24  1  0.08687039  0.93355349  0.83753279  1  0  0.082477  0  0.973641  0  0  0.096522  0  1.044361  0  0  0.096249  0  1.045167  0  0  0.097791  0.096598  0  1.043904  0
H  H25  1  0.41329883  0.09597161  0.16221864  1  0  0.08211  0  0.973162  0  0  0.097091  0  1.043112  0  0  0.096843  0  1.043899  0  0  0.098068  0.097156  0  1.042661  0
C  C26  1  0.54319443  0.46796972  0.44704848  1  0  0.024443  0  3.807005  0  0  0.038606  0  4.045227  0  0  0.035959  0  4.07099  0  0  -0.019926  0.04018  0  4.027781  0
C  C27  1  0.95693312  0.02062093  0.55299010  1  0  0.025577  0  3.805854  0  0  0.039123  0  4.045269  0  0  0.036457  0  4.071088  0  0  -0.019408  0.040706  0  4.027803  0
C  C28  1  0.45680713  0.53203989  0.55295345  1  0  0.02444  0  3.806954  0  0  0.038628  0  4.045158  0  0  0.035983  0  4.070916  0  0  -0.01993  0.040202  0  4.027718  0
C  C29  1  0.04307105  0.97938065  0.44701037  1  0  0.025522  0  3.805867  0  0  0.039068  0  4.045299  0  0  0.036401  0  4.071119  0  0  -0.019466  0.040654  0  4.027827  0
C  C30  1  0.45683676  0.47565972  0.35358081  1  0  -0.090428  0  3.714455  0  0  -0.123539  0  3.965232  0  0  -0.122005  0  3.983954  0  0  -0.081124  -0.124221  0  3.952529  0
C  C31  1  0.04335814  0.12172049  0.64646860  1  0  -0.089654  0  3.714819  0  0  -0.123013  0  3.965253  0  0  -0.121415  0  3.984113  0  0  -0.080831  -0.12373  0  3.952449  0
C  C32  1  0.54315952  0.52434858  0.64641932  1  0  -0.090247  0  3.714413  0  0  -0.123394  0  3.965168  0  0  -0.12186  0  3.983885  0  0  -0.081073  -0.124079  0  3.952465  0
C  C33  1  0.95664471  0.87827977  0.35353161  1  0  -0.089633  0  3.714842  0  0  -0.122999  0  3.96528  0  0  -0.1214  0  3.984141  0  0  -0.080818  -0.123717  0  3.952471  0
C  C34  1  0.53297214  0.41675747  0.25197963  1  0  -0.168935  0  3.747861  0  0  -0.156504  0  3.995874  0  0  -0.166498  0  4.014786  0  0  -0.02352  -0.150124  0  3.983413  0
C  C35  1  0.96726166  0.16443492  0.74810358  1  0  -0.170719  0  3.748741  0  0  -0.157365  0  3.99555  0  0  -0.167454  0  4.014638  0  0  -0.023913  -0.15092  0  3.982967  0
C  C36  1  0.46702410  0.58324413  0.74802079  1  0  -0.169077  0  3.747882  0  0  -0.156614  0  3.995892  0  0  -0.166606  0  4.014799  0  0  -0.023557  -0.15023  0  3.98343  0
C  C37  1  0.03274249  0.83556263  0.25189768  1  0  -0.170697  0  3.748803  0  0  -0.157313  0  3.995591  0  0  -0.167401  0  4.014682  0  0  -0.02386  -0.150865  0  3.983007  0
C  C38  1  0.70698136  0.34706024  0.24243509  1  0  0.277627  0  3.743599  0  0  0.260332  0  4.000309  0  0  0.274147  0  4.015635  0  0  0.10022  0.250973  0  3.989959  0
C  C39  1  0.79334212  0.10415404  0.75767451  1  0  0.27745  0  3.743288  0  0  0.259636  0  3.999633  0  0  0.273266  0  4.015004  0  0  0.100508  0.250318  0  3.989245  0
C  C40  1  0.29301484  0.65293598  0.75756663  1  0  0.277676  0  3.743612  0  0  0.26035  0  4.000391  0  0  0.274151  0  4.01571  0  0  0.100183  0.250994  0  3.990043  0
C  C41  1  0.20666204  0.89584353  0.24232522  1  0  0.277284  0  3.743308  0  0  0.25944  0  3.999738  0  0  0.27307  0  4.01511  0  0  0.100379  0.25012  0  3.989348  0
C  C42  1  0.79502000  0.33547318  0.33464511  1  0  -0.200253  0  3.771721  0  0  -0.219901  0  4.024552  0  0  -0.227234  0  4.045486  0  0  -0.106429  -0.215049  0  4.010458  0
C  C43  1  0.70544655  0.00008485  0.66550490  1  0  -0.199364  0  3.768773  0  0  -0.219217  0  4.021861  0  0  -0.226494  0  4.042846  0  0  -0.1071  -0.214427  0  4.007773  0
C  C44  1  0.20497491  0.66452442  0.66535380  1  0  -0.200331  0  3.771709  0  0  -0.219955  0  4.02455  0  0  -0.227293  0  4.045486  0  0  -0.106442  -0.215104  0  4.010465  0
C  C45  1  0.29455762  0.99991406  0.33449507  1  0  -0.199284  0  3.768693  0  0  -0.219097  0  4.021758  0  0  -0.22637  0  4.042745  0  0  -0.10704  -0.214304  0  4.007671  0
C  C46  1  0.71469405  0.39448500  0.43441057  1  0  -0.067981  0  3.73679  0  0  -0.088739  0  3.982539  0  0  -0.087712  0  4.002493  0  0  -0.082332  -0.089046  0  3.968791  0
C  C47  1  0.78562412  0.95946682  0.56568784  1  0  -0.068838  0  3.735598  0  0  -0.089485  0  3.981915  0  0  -0.088407  0  4.001817  0  0  -0.082473  -0.089861  0  3.968206  0
C  C48  1  0.28530219  0.60551661  0.56558909  1  0  -0.068004  0  3.73679  0  0  -0.088764  0  3.982517  0  0  -0.087747  0  4.00248  0  0  -0.082358  -0.089092  0  3.96876  0
C  C49  1  0.21437872  0.04053342  0.43431314  1  0  -0.068836  0  3.73562  0  0  -0.089493  0  3.981941  0  0  -0.088415  0  4.001842  0  0  -0.082456  -0.08987  0  3.96823  0
C  C50  1  0.42019271  0.42804989  0.16003897  1  0  0.664938  0  3.914233  0  0  0.618567  0  4.20666  0  0  0.654159  0  4.196436  0  0  0.208621  0.594355  0  4.212814  0
C  C51  1  0.07990074  0.26783639  0.84005463  1  0  0.666105  0  3.912879  0  0  0.619376  0  4.205301  0  0  0.654966  0  4.195118  0  0  0.209007  0.595164  0  4.211427  0
C  C52  1  0.57980220  0.57195170  0.83996221  1  0  0.665058  0  3.9143  0  0  0.618683  0  4.206723  0  0  0.654273  0  4.196498  0  0  0.208727  0.59447  0  4.21288  0
C  C53  1  0.92010607  0.73216251  0.15994536  1  0  0.666279  0  3.913077  0  0  0.619575  0  4.205432  0  0  0.655165  0  4.195244  0  0  0.209108  0.595359  0  4.211563  0
C  C54  1  0.94067567  0.18081005  0.13315375  1  0  -0.081728  0  3.578426  0  0  -0.177939  0  3.83837  0  0  -0.170604  0  3.840525  0  0  -0.134876  -0.182655  0  3.836827  0
C  C55  1  0.55937246  0.04779021  0.86700680  1  0  -0.081016  0  3.576991  0  0  -0.17828  0  3.836774  0  0  -0.17117  0  3.838916  0  0  -0.134618  -0.182939  0  3.83522  0
C  C56  1  0.05932056  0.81918621  0.86684493  1  0  -0.081724  0  3.578609  0  0  -0.177947  0  3.838555  0  0  -0.170632  0  3.84071  0  0  -0.134832  -0.182656  0  3.83701  0
C  C57  1  0.44063171  0.95221004  0.13299342  1  0  -0.080979  0  3.576884  0  0  -0.178222  0  3.836668  0  0  -0.171114  0  3.838811  0  0  -0.134625  -0.182881  0  3.835114  0
O  O58  1  0.26041854  0.47683351  0.17589965  1  0  -0.65152  0  1.933915  0  0  -0.604396  0  2.162917  0  0  -0.629646  0  2.154889  0  0  -0.340016  -0.586645  0  2.167858  0
O  O59  1  0.23959117  0.30096457  0.82419058  1  0  -0.652297  0  1.934534  0  0  -0.605175  0  2.163937  0  0  -0.630419  0  2.155919  0  0  -0.340461  -0.587422  0  2.168855  0
O  O60  1  0.73957635  0.52316538  0.82410256  1  0  -0.651599  0  1.934019  0  0  -0.60448  0  2.163026  0  0  -0.629731  0  2.154995  0  0  -0.34009  -0.586727  0  2.167966  0
O  O61  1  0.76041694  0.69903030  0.17581020  1  0  -0.652436  0  1.93471  0  0  -0.605376  0  2.16419  0  0  -0.630626  0  2.156176  0  0  -0.340611  -0.587623  0  2.169113  0
O  O62  1  0.48600900  0.38794938  0.06490557  1  0  -0.769647  0  2.047286  0  0  -0.707972  0  2.30203  0  0  -0.736946  0  2.291158  0  0  -0.431989  -0.687087  0  2.308623  0
O  O63  1  0.01406503  0.32274861  0.93518191  1  0  -0.770055  0  2.045909  0  0  -0.708072  0  2.300531  0  0  -0.737082  0  2.289717  0  0  -0.431797  -0.687173  0  2.307103  0
O  O64  1  0.51398859  0.61205624  0.93509484  1  0  -0.769687  0  2.047338  0  0  -0.708003  0  2.302057  0  0  -0.736977  0  2.291191  0  0  -0.432022  -0.687116  0  2.30865  0
O  O65  1  0.98593784  0.67725432  0.06481804  1  0  -0.770123  0  2.045983  0  0  -0.708158  0  2.300618  0  0  -0.737166  0  2.289803  0  0  -0.431793  -0.687256  0  2.30719  0
O  O66  1  0.78397494  0.29012438  0.14317318  1  0  -0.286875  0  2.366238  0  0  -0.201589  0  2.602563  0  0  -0.222134  0  2.606402  0  0  -0.190009  -0.187086  0  2.599383  0
O  O67  1  0.71624471  0.14673863  0.85692277  1  0  -0.287329  0  2.365855  0  0  -0.20116  0  2.602095  0  0  -0.221199  0  2.60563  0  0  -0.18991  -0.186764  0  2.598969  0
O  O68  1  0.21602129  0.70987321  0.85682650  1  0  -0.286804  0  2.366352  0  0  -0.201571  0  2.602757  0  0  -0.22207  0  2.606565  0  0  -0.189971  -0.187081  0  2.599585  0
O  O69  1  0.28375814  0.85326295  0.14307845  1  0  -0.287242  0  2.365817  0  0  -0.201137  0  2.602125  0  0  -0.221177  0  2.60566  0  0  -0.189876  -0.186739  0  2.599  0
