# generated using pymatgen
data_CoH21C30N3O4
_symmetry_space_group_name_H-M   'P 1'
_cell_length_a   12.17758629
_cell_length_b   13.51620342
_cell_length_c   16.95166315
_cell_angle_alpha   74.65098932
_cell_angle_beta   71.03282473
_cell_angle_gamma   86.87344808
_symmetry_Int_Tables_number   1
_chemical_formula_structural   CoH21C30N3O4
_chemical_formula_sum   'Co4 H84 C120 N12 O16'
_cell_volume   2543.02773317
_cell_formula_units_Z   4
loop_
 _symmetry_equiv_pos_site_id
 _symmetry_equiv_pos_as_xyz
  1  'x, y, z'
loop_
 _atom_site_type_symbol
 _atom_site_label
 _atom_site_symmetry_multiplicity
 _atom_site_fract_x
 _atom_site_fract_y
 _atom_site_fract_z
 _atom_site_occupancy
 _atom_site_pbe_bader_charge
 _atom_site_pbe_bader_spin_density
 _atom_site_pbe_cm5_charge
 _atom_site_pbe_ddec_charge
 _atom_site_pbe_ddec_spin_density
 _atom_site_pbe_ddec_sum_bond_order
 _atom_site_pbe_magmom
Co  Co0  1  0.27260266  0.36773993  0.11705828  1  1.320067  2.617778  0.700415  0.907754  2.872819  2.539472  2.596
Co  Co1  1  0.72739697  0.63225941  0.88294291  1  1.320063  2.617781  0.700407  0.907774  2.87282  2.539429  2.596
Co  Co2  1  0.23552699  0.37047766  0.36056935  1  1.302776  2.61004  0.699394  0.90002  2.858962  2.537718  2.585
Co  Co3  1  0.76447257  0.62952016  0.63943157  1  1.302823  2.610046  0.69939  0.900041  2.858966  2.537654  2.585
H  H4  1  0.43712876  0.19657455  0.09363750  1  0.120293  0.001488  0.117009  0.092432  0.000353  1.016176  0.001
H  H5  1  0.56287261  0.80342480  0.90636270  1  0.120328  0.001488  0.117003  0.092418  0.000353  1.016192  0.001
H  H6  1  0.43216215  0.01575456  0.08834382  1  0.070366  0.000802  0.102315  0.106348  0.000393  1.025211  0.0
H  H7  1  0.56783740  0.98424317  0.91166066  1  0.070003  0.000802  0.102331  0.106373  0.000393  1.025151  0.0
H  H8  1  0.05639917  0.02274554  0.18198479  1  0.104016  0.000865  0.102865  0.109463  0.000419  1.032126  0.0
H  H9  1  0.94359973  0.97725693  0.81801360  1  0.103991  0.000865  0.102835  0.109457  0.000419  1.032068  0.0
H  H10  1  0.07899868  0.20586882  0.17978290  1  0.090791  0.001525  0.113307  0.080035  0.000258  1.030173  0.001
H  H11  1  0.92100286  0.79413443  0.82021413  1  0.090783  0.001525  0.113307  0.080016  0.000258  1.030212  0.001
H  H12  1  0.14011494  0.86758307  0.15311116  1  0.080595  8e-06  0.10557  0.105943  1.2e-05  0.993845  0.0
H  H13  1  0.85988554  0.13241623  0.84689161  1  0.080593  8e-06  0.105541  0.105917  1.2e-05  0.993946  0.0
H  H14  1  0.40642410  0.87103781  0.06960352  1  0.045653  -6.6e-05  0.101934  0.100023  -4e-06  1.009835  0.0
H  H15  1  0.59357554  0.12896160  0.93039470  1  0.045644  -6.6e-05  0.101954  0.100064  -4e-06  1.009832  0.0
H  H16  1  0.11818749  0.72848873  0.11649367  1  0.05441  0.000879  0.102583  0.105235  0.000437  1.033603  0.0
H  H17  1  0.88181037  0.27150988  0.88350689  1  0.054443  0.000879  0.102568  0.105202  0.000437  1.033569  0.0
H  H18  1  0.11283330  0.54252636  0.12151475  1  0.093617  0.001474  0.117985  0.090113  0.000204  1.014564  0.001
H  H19  1  0.88716460  0.45747303  0.87848506  1  0.093645  0.001474  0.117975  0.090085  0.000204  1.014556  0.001
H  H20  1  0.47007621  0.52825600  0.06339166  1  0.116268  0.001297  0.120851  0.096993  0.000163  1.015404  0.001
H  H21  1  0.52992257  0.47174342  0.93660676  1  0.116328  0.001297  0.120842  0.096969  0.000163  1.015455  0.001
H  H22  1  0.49063851  0.70804784  0.05954325  1  0.115958  0.000976  0.107114  0.120196  0.000425  1.036936  0.0
H  H23  1  0.50936124  0.29195394  0.94045213  1  0.116083  0.000976  0.10711  0.120176  0.000425  1.036988  0.0
H  H24  1  0.04221098  0.37551884  0.94059329  1  0.066209  0.000639  0.101476  0.105217  0.000391  1.017733  0.0
H  H25  1  0.95779295  0.62447965  0.05941002  1  0.066297  0.000639  0.101479  0.105212  0.000391  1.017791  0.0
H  H26  1  0.01807245  0.36620399  0.80047818  1  0.053544  -1.8e-05  0.098627  0.094253  -8.2e-05  1.048685  0.0
H  H27  1  0.98192623  0.63379371  0.19952768  1  0.053718  -1.8e-05  0.098622  0.09426  -8.2e-05  1.048657  0.0
H  H28  1  0.41270489  0.38251909  0.82561181  1  0.079425  0.000679  0.103529  0.109002  0.0004  1.018305  0.0
H  H29  1  0.58729927  0.61748423  0.17438165  1  0.079506  0.000679  0.103546  0.108981  0.0004  1.018349  0.0
H  H30  1  0.10201449  0.35876679  0.65082788  1  0.090197  0.000505  0.104927  0.108174  0.000258  1.023257  0.0
H  H31  1  0.89798163  0.64123180  0.34917368  1  0.090255  0.000505  0.104905  0.108128  0.000258  1.023196  0.0
H  H32  1  0.47226047  0.37821479  0.53029940  1  0.091416  0.000637  0.100602  0.103771  0.000386  1.019086  0.0
H  H33  1  0.52773496  0.62178770  0.46969919  1  0.091122  0.000637  0.100604  0.103759  0.000386  1.019041  0.0
H  H34  1  0.50009651  0.38595157  0.66742926  1  0.046452  -6.1e-05  0.097214  0.096308  -0.000138  1.050848  0.0
H  H35  1  0.49990255  0.61405476  0.33256775  1  0.046645  -6.1e-05  0.097177  0.096197  -0.000138  1.050934  0.0
H  H36  1  0.51767668  0.38068772  0.33054978  1  0.147153  6.8e-05  0.106921  0.128414  -9e-05  1.047335  0.0
H  H37  1  0.48231927  0.61930692  0.66945732  1  0.147279  6.8e-05  0.106913  0.128459  -9e-05  1.04727  0.0
H  H38  1  0.85143887  0.35593416  0.07180355  1  0.066021  9.8e-05  0.101403  0.102992  -2e-06  1.007984  0.0
H  H39  1  0.14855853  0.64407434  0.92819872  1  0.066247  9.8e-05  0.101405  0.103005  -2e-06  1.007965  0.0
H  H40  1  0.64828273  0.35475108  0.06874217  1  0.088023  0.000296  0.099899  0.101949  4.1e-05  1.050979  0.0
H  H41  1  0.35171441  0.64525127  0.93126137  1  0.087944  0.000296  0.099876  0.101916  4.1e-05  1.05102  0.0
H  H42  1  0.98827876  0.36009190  0.15227756  1  0.119755  8.8e-05  0.107026  0.124229  -9.2e-05  1.040221  0.0
H  H43  1  0.01171858  0.63991506  0.84772503  1  0.11966  8.8e-05  0.10703  0.124194  -9.2e-05  1.040186  0.0
H  H44  1  0.85596526  0.37284674  0.41787321  1  0.100424  0.00039  0.103294  0.110655  0.000142  1.00938  0.0
H  H45  1  0.14403274  0.62715562  0.58213013  1  0.100503  0.00039  0.10329  0.110634  0.000142  1.009413  0.0
H  H46  1  0.65323903  0.37864010  0.41248514  1  0.05768  0.000218  0.102558  0.10518  0.0001  1.004495  0.0
H  H47  1  0.34675699  0.62135611  0.58751986  1  0.057791  0.000218  0.102543  0.105148  0.0001  1.004587  0.0
H  H48  1  0.42602774  0.21906294  0.33014218  1  0.091303  0.001251  0.113019  0.078183  6.2e-05  1.031835  0.001
H  H49  1  0.57397609  0.78093265  0.66985524  1  0.091304  0.001251  0.113013  0.078254  6.2e-05  1.03175  0.001
H  H50  1  0.44553391  0.04170274  0.30997551  1  0.098456  0.000764  0.104934  0.110584  0.00037  1.036653  0.0
H  H51  1  0.55446467  0.95829208  0.69002386  1  0.098418  0.000765  0.104975  0.110634  0.00037  1.036599  0.0
H  H52  1  0.07013914  0.01191029  0.40508595  1  0.0925  0.000745  0.104514  0.109451  0.000352  1.030605  0.0
H  H53  1  0.92985962  0.98808905  0.59491544  1  0.092475  0.000745  0.104504  0.109393  0.000352  1.030608  0.0
H  H54  1  0.06716654  0.18985287  0.41896235  1  0.096534  0.001217  0.116075  0.089946  0.000191  1.00397  0.001
H  H55  1  0.93283569  0.81014644  0.58103942  1  0.096488  0.001217  0.116107  0.089995  0.000191  1.003939  0.001
H  H56  1  0.36211643  0.88719651  0.31556728  1  0.047078  -1.9e-05  0.103262  0.101259  3.1e-05  1.012592  0.0
H  H57  1  0.63788055  0.11280143  0.68443008  1  0.04702  -1.9e-05  0.10324  0.101135  3.1e-05  1.012619  0.0
H  H58  1  0.09543616  0.85773717  0.39732766  1  0.066275  -1.1e-05  0.105269  0.10563  2.5e-05  1.010893  0.0
H  H59  1  0.90456090  0.14226236  0.60266702  1  0.066014  -1.1e-05  0.105234  0.105547  2.5e-05  1.010898  0.0
H  H60  1  0.37750406  0.74878917  0.27195546  1  0.087113  0.000888  0.105254  0.111415  0.000414  1.007844  0.0
H  H61  1  0.62249545  0.25120712  0.72804577  1  0.08713  0.000888  0.105284  0.11147  0.000414  1.007736  0.0
H  H62  1  0.38505883  0.56535204  0.26814780  1  0.101755  0.001472  0.113649  0.086995  0.000277  1.027733  0.001
H  H63  1  0.61494226  0.43464099  0.73186078  1  0.101901  0.001472  0.113641  0.087002  0.000277  1.027722  0.001
H  H64  1  0.04436773  0.50583170  0.42549866  1  0.118554  0.00133  0.119333  0.094843  0.000191  1.012343  0.001
H  H65  1  0.95562593  0.49417010  0.57449753  1  0.118614  0.00133  0.119355  0.094856  0.000191  1.012365  0.001
H  H66  1  0.01968679  0.68477825  0.43807804  1  0.160118  0.000903  0.10854  0.133477  0.000434  1.032729  0.0
H  H67  1  0.98030865  0.31522437  0.56191581  1  0.159956  0.000903  0.108561  0.133519  0.000434  1.032701  0.0
H  H68  1  0.99887647  0.89137940  0.98733583  1  0.056329  -4e-05  0.101797  0.099267  -3.8e-05  1.008163  0.0
H  H69  1  0.00112860  0.10862535  0.01266127  1  0.056223  -4e-05  0.101758  0.099234  -3.8e-05  1.008139  0.0
H  H70  1  0.17726507  0.14528211  0.92849109  1  0.08036  -5.6e-05  0.101242  0.107107  -7.7e-05  1.02636  0.0
H  H71  1  0.82274082  0.85472179  0.07150893  1  0.080324  -5.6e-05  0.101233  0.10707  -7.7e-05  1.026417  0.0
H  H72  1  0.38110959  0.16310407  0.83497763  1  0.05656  1.5e-05  0.102735  0.068866  -9e-06  1.011262  0.0
H  H73  1  0.61889878  0.83689676  0.16502242  1  0.056664  1.5e-05  0.102734  0.068899  -9e-06  1.011281  0.0
H  H74  1  0.37932758  0.86641890  0.80943918  1  0.068019  1e-06  0.10728  0.075425  -5e-06  0.998252  0.0
H  H75  1  0.62067305  0.13358356  0.19055939  1  0.068011  1e-06  0.107273  0.075416  -5e-06  0.998244  0.0
H  H76  1  0.17335880  0.83559184  0.90137395  1  0.060121  -1.5e-05  0.100096  0.103334  -1.9e-05  1.029879  0.0
H  H77  1  0.82664196  0.16441370  0.09862341  1  0.060031  -1.5e-05  0.1001  0.103359  -1.9e-05  1.029857  0.0
H  H78  1  0.47158703  0.88378249  0.52700585  1  0.05667  -4.9e-05  0.104506  0.105467  -4e-05  0.995307  0.0
H  H79  1  0.52840632  0.11621104  0.47298554  1  0.057174  -4.9e-05  0.104526  0.105427  -4e-05  0.995329  0.0
H  H80  1  0.35725769  0.15363487  0.54381113  1  0.06863  -2.7e-05  0.104069  0.110979  -6.6e-05  1.019967  0.0
H  H81  1  0.64274610  0.84635993  0.45618703  1  0.068418  -2.7e-05  0.104068  0.110993  -6.6e-05  1.019936  0.0
H  H82  1  0.15275862  0.17450219  0.62487460  1  0.066173  9.9e-05  0.10488  0.072882  3.6e-05  1.024382  0.0
H  H83  1  0.84724963  0.82549620  0.37513127  1  0.066241  9.9e-05  0.104837  0.072814  3.6e-05  1.024471  0.0
H  H84  1  0.07656426  0.86268133  0.68935737  1  0.04367  -7.7e-05  0.102718  0.065294  -0.00011  1.025099  0.0
H  H85  1  0.92343199  0.13732028  0.31064594  1  0.04365  -7.7e-05  0.102747  0.065351  -0.00011  1.02511  0.0
H  H86  1  0.27879841  0.82731421  0.61108117  1  0.086683  -2.8e-05  0.096064  0.0999  -3.2e-05  1.055326  0.0
H  H87  1  0.72119420  0.17268301  0.38891558  1  0.086717  -2.8e-05  0.096067  0.099921  -3.2e-05  1.055246  0.0
C  C88  1  0.35479645  0.15548809  0.11028748  1  0.458758  -0.007558  0.038714  0.089168  -0.008084  3.96214  -0.004
C  C89  1  0.64520665  0.84451126  0.88971231  1  0.459023  -0.007558  0.03873  0.089208  -0.008084  3.962191  -0.004
C  C90  1  0.35071219  0.05467195  0.10691676  1  -0.004699  0.001499  -0.087659  -0.179441  0.000134  3.945745  0.002
C  C91  1  0.64928914  0.94532658  0.89308596  1  -0.004582  0.001499  -0.087645  -0.17943  0.000134  3.945659  0.002
C  C92  1  0.24236102  0.00356666  0.13021224  1  -0.045152  -0.014395  0.000237  0.138266  -0.015207  4.039635  -0.008
C  C93  1  0.75764031  0.99643191  0.86978871  1  -0.04585  -0.014394  0.000222  0.138157  -0.015206  4.039753  -0.008
C  C94  1  0.14277347  0.05929915  0.15863738  1  -0.021005  0.001876  -0.084396  -0.174602  4.1e-05  3.930278  0.003
C  C95  1  0.85722709  0.94070176  0.84136211  1  -0.020395  0.001876  -0.084385  -0.174553  4.1e-05  3.930337  0.003
C  C96  1  0.15464556  0.16057455  0.15925863  1  0.460316  -0.011056  0.041209  0.09577  -0.011755  3.949552  -0.006
C  C97  1  0.84535857  0.83942865  0.84073958  1  0.460245  -0.011053  0.041222  0.095784  -0.011753  3.949672  -0.006
C  C98  1  0.22931971  0.89911893  0.12670655  1  -0.049996  -0.012922  -0.080477  -0.114127  -0.013931  3.972808  -0.007
C  C99  1  0.77068079  0.10088041  0.87329444  1  -0.050014  -0.012921  -0.080466  -0.114052  -0.01393  3.972871  -0.007
C  C100  1  0.31699439  0.84015682  0.09424457  1  -0.030455  -0.010894  -0.086234  -0.12726  -0.011813  3.97699  -0.005
C  C101  1  0.68300527  0.15984331  0.90575527  1  -0.030403  -0.010893  -0.086254  -0.127344  -0.011813  3.976987  -0.005
C  C102  1  0.30481621  0.73525667  0.09175343  1  -0.040154  -0.015519  0.001069  0.139064  -0.01633  4.057193  -0.009
C  C103  1  0.69518266  0.26474504  0.90824512  1  -0.040112  -0.015518  0.001035  0.138981  -0.016328  4.057181  -0.009
C  C104  1  0.19793935  0.68596964  0.10695334  1  -0.004313  0.002326  -0.089194  -0.184749  0.000687  3.941734  0.003
C  C105  1  0.80205772  0.31403052  0.89304651  1  -0.004284  0.002326  -0.089115  -0.18456  0.000687  3.941743  0.003
C  C106  1  0.19419318  0.58299442  0.10914238  1  0.447607  -0.008196  0.040308  0.090869  -0.008921  3.953866  -0.005
C  C107  1  0.80580639  0.41700343  0.89085735  1  0.447744  -0.008195  0.040254  0.090783  -0.00892  3.953854  -0.005
C  C108  1  0.39295605  0.57358123  0.07698558  1  0.451507  -0.011872  0.045291  0.10666  -0.012449  3.928932  -0.007
C  C109  1  0.60704365  0.42641971  0.92301292  1  0.451292  -0.011871  0.045251  0.106604  -0.012448  3.92901  -0.007
C  C110  1  0.40388949  0.67597544  0.07446598  1  -0.018076  0.002042  -0.085209  -0.180391  7.8e-05  3.925969  0.003
C  C111  1  0.59610848  0.32402553  0.92553174  1  -0.018389  0.002042  -0.085144  -0.180295  7.9e-05  3.92592  0.003
C  C112  1  0.24274619  0.38187689  0.97358677  1  1.529596  -0.005196  0.192289  0.537674  -0.006914  4.234418  -0.006
C  C113  1  0.75726560  0.61812246  0.02641042  1  1.528233  -0.005199  0.192341  0.537759  -0.006913  4.234176  -0.006
C  C114  1  0.22953343  0.37710606  0.89051137  1  -0.047919  0.002486  -0.018459  -0.022311  0.001326  3.992642  0.002
C  C115  1  0.77047154  0.62289636  0.10948739  1  -0.04826  0.002486  -0.018429  -0.022218  0.001326  3.992562  0.002
C  C116  1  0.11657774  0.37278903  0.88417981  1  0.015981  0.000925  -0.091496  -0.1075  0.000496  4.001716  0.001
C  C117  1  0.88342629  0.62721180  0.11582184  1  0.015558  0.000925  -0.091505  -0.107548  0.000496  4.001815  0.001
C  C118  1  0.10349388  0.36752098  0.80785987  1  -0.061936  -0.000218  -0.089952  -0.134749  -0.000395  4.002548  0.0
C  C119  1  0.89650667  0.63247985  0.19214258  1  -0.061829  -0.000218  -0.089952  -0.134773  -0.000395  4.002517  0.0
C  C120  1  0.20144658  0.36688905  0.73455374  1  -0.000162  -0.000458  -0.006269  0.078259  -0.000627  4.006601  0.0
C  C121  1  0.79855060  0.63311415  0.26544667  1  -0.000107  -0.000458  -0.006319  0.078338  -0.000627  4.006499  0.0
C  C122  1  0.31584018  0.37312643  0.74002080  1  -0.034586  -0.000588  -0.004444  0.071953  -0.00074  4.004825  0.0
C  C123  1  0.68415875  0.62687684  0.25997625  1  -0.034557  -0.000588  -0.004474  0.071778  -0.00074  4.005006  0.0
C  C124  1  0.32683237  0.37730228  0.81962683  1  -0.035652  -0.00128  -0.077571  -0.140307  -0.00163  3.928074  -0.001
C  C125  1  0.67317096  0.62270250  0.18036948  1  -0.035391  -0.00128  -0.07759  -0.140299  -0.00163  3.928237  -0.001
C  C126  1  0.18870035  0.36271665  0.65570047  1  -0.048623  -0.001606  -0.077046  -0.135024  -0.001982  3.932691  -0.001
C  C127  1  0.81129500  0.63728425  0.34430082  1  -0.048686  -0.001606  -0.076929  -0.134852  -0.001982  3.93249  -0.001
C  C128  1  0.28492506  0.36512639  0.58390945  1  -0.015926  0.002702  -0.018872  -0.029076  0.001491  4.010487  0.002
C  C129  1  0.71506853  0.63487377  0.41609121  1  -0.01591  0.002703  -0.018918  -0.029195  0.001491  4.010582  0.002
C  C130  1  0.39816583  0.37373873  0.58851210  1  -0.02784  0.000886  -0.086287  -0.097198  0.000449  3.988618  0.001
C  C131  1  0.60182960  0.62626375  0.41148709  1  -0.027645  0.000886  -0.086219  -0.097132  0.000449  3.988471  0.001
C  C132  1  0.41306926  0.37763273  0.66470367  1  -0.038124  -0.000191  -0.08937  -0.129389  -0.00035  3.979736  0.0
C  C133  1  0.58692713  0.62237205  0.33529484  1  -0.038294  -0.000191  -0.089364  -0.129227  -0.00035  3.979754  0.0
C  C134  1  0.26897338  0.36040125  0.50187497  1  1.504463  -0.005718  0.191644  0.534968  -0.007568  4.238665  -0.007
C  C135  1  0.73102185  0.63959659  0.49812635  1  1.504514  -0.005718  0.191638  0.534935  -0.007568  4.238838  -0.007
C  C136  1  0.45003509  0.37213792  0.19666785  1  1.52535  -0.001707  0.215688  0.565203  -0.003084  4.190268  0.001
C  C137  1  0.54996364  0.62786067  0.80333311  1  1.525275  -0.001708  0.215668  0.565189  -0.003084  4.190247  0.001
C  C138  1  0.57115634  0.36762524  0.19985842  1  -0.004376  0.005093  -0.021186  -0.042209  0.002198  3.996364  0.005
C  C139  1  0.42884231  0.63237172  0.80014642  1  -0.004263  0.005093  -0.021175  -0.042231  0.002198  3.996365  0.005
C  C140  1  0.59079881  0.37316277  0.27479807  1  -0.09421  -0.000583  -0.080231  -0.146901  -0.00116  3.914574  0.0
C  C141  1  0.40919978  0.62683268  0.72520648  1  -0.094129  -0.000583  -0.080221  -0.146936  -0.001161  3.914643  0.0
C  C142  1  0.70449815  0.36876410  0.27992370  1  -0.016235  -0.001891  -0.006615  0.072163  -0.002039  4.001029  -0.001
C  C143  1  0.29550144  0.63123441  0.72008002  1  -0.016477  -0.001891  -0.006642  0.072162  -0.002038  4.001102  -0.001
C  C144  1  0.80057759  0.36228944  0.20531519  1  -0.001967  0.000875  -0.00368  0.07837  0.000214  3.997185  0.001
C  C145  1  0.19942129  0.63771295  0.79468676  1  -0.00176  0.000875  -0.00358  0.078405  0.000214  3.997213  0.001
C  C146  1  0.77793696  0.35829043  0.12903176  1  -0.054882  -0.001632  -0.087855  -0.127783  -0.001823  3.973656  -0.001
C  C147  1  0.22206025  0.64171348  0.87097086  1  -0.05509  -0.001632  -0.087898  -0.127838  -0.001823  3.973674  -0.001
C  C148  1  0.66601559  0.35888571  0.12667713  1  -0.040804  0.001537  -0.089279  -0.093761  0.000583  3.977209  0.001
C  C149  1  0.33398152  0.64111586  0.87332715  1  -0.041089  0.001536  -0.089246  -0.093682  0.000583  3.977164  0.001
C  C150  1  0.91453861  0.36135975  0.20964153  1  -0.086092  -0.006293  -0.080867  -0.148963  -0.006867  3.920299  -0.004
C  C151  1  0.08545860  0.63864416  0.79036110  1  -0.086084  -0.006293  -0.080876  -0.14884  -0.006866  3.920062  -0.004
C  C152  1  0.93364268  0.36444796  0.28531162  1  -0.02122  0.009249  -0.022947  -0.042283  0.004451  4.002814  0.008
C  C153  1  0.06635450  0.63555519  0.71469057  1  -0.020744  0.009249  -0.022995  -0.042442  0.004451  4.002693  0.008
C  C154  1  0.83843092  0.36980301  0.35947904  1  -0.033642  -0.000516  -0.08775  -0.097103  -0.000889  3.982997  0.0
C  C155  1  0.16156703  0.63019782  0.64052402  1  -0.034097  -0.000516  -0.08767  -0.096927  -0.000889  3.982765  0.0
C  C156  1  0.72674380  0.37252041  0.35643897  1  -0.043709  0.00067  -0.087221  -0.129217  0.000251  3.987421  0.001
C  C157  1  0.27325401  0.62747732  0.64356591  1  -0.043633  0.00067  -0.087258  -0.129256  0.000251  3.987491  0.001
C  C158  1  0.05458027  0.36310653  0.28839502  1  1.537126  -0.007137  0.216024  0.572685  -0.007987  4.187911  -0.001
C  C159  1  0.94541763  0.63689283  0.71160598  1  1.536945  -0.007138  0.216018  0.572696  -0.007986  4.187816  -0.001
C  C160  1  0.34941502  0.17084085  0.34492072  1  0.431679  -0.011032  0.039951  0.096798  -0.011904  3.958501  -0.007
C  C161  1  0.65058797  0.82915551  0.65507673  1  0.431672  -0.011034  0.039879  0.096635  -0.011906  3.958257  -0.007
C  C162  1  0.35998840  0.07200462  0.33481659  1  -0.009946  0.002459  -0.082746  -0.173883  0.00052  3.925738  0.003
C  C163  1  0.64001195  0.92799091  0.66518400  1  -0.00988  0.002459  -0.082765  -0.173934  0.00052  3.925764  0.003
C  C164  1  0.25977960  0.01036762  0.35579900  1  0.017886  -0.013712  0.005356  0.150097  -0.014469  4.018355  -0.008
C  C165  1  0.74021910  0.98963024  0.64420093  1  0.018033  -0.013713  0.005419  0.150167  -0.014471  4.018226  -0.008
C  C166  1  0.15196861  0.05410307  0.38797486  1  0.006083  0.002003  -0.084499  -0.1711  0.000466  3.922341  0.002
C  C167  1  0.84803183  0.94589476  0.61202526  1  0.006078  0.002004  -0.084446  -0.17094  0.000467  3.922231  0.002
C  C168  1  0.14929079  0.15374851  0.39541004  1  0.409128  -0.007558  0.038795  0.08951  -0.007994  3.965509  -0.004
C  C169  1  0.85071228  0.84625006  0.60459050  1  0.408996  -0.007556  0.038754  0.089378  -0.007994  3.965667  -0.004
C  C170  1  0.27253217  0.90754630  0.34427825  1  -0.023235  -0.009939  -0.082456  -0.120175  -0.010743  3.965062  -0.005
C  C171  1  0.72746654  0.09245165  0.65571811  1  -0.023274  -0.00994  -0.08248  -0.120051  -0.010744  3.965069  -0.005
C  C172  1  0.18464028  0.83754885  0.36734807  1  -0.025031  -0.010319  -0.082649  -0.12033  -0.011215  3.965594  -0.005
C  C173  1  0.81535506  0.16245139  0.63264922  1  -0.024639  -0.01032  -0.082608  -0.120243  -0.011216  3.965585  -0.005
C  C174  1  0.19803697  0.73382474  0.35779280  1  -0.046328  -0.013216  0.001068  0.143877  -0.013867  4.043232  -0.008
C  C175  1  0.80195914  0.26617318  0.64220535  1  -0.046434  -0.013216  0.001053  0.143755  -0.013867  4.04312  -0.008
C  C176  1  0.30160119  0.69764950  0.30866212  1  -0.070507  0.001768  -0.08981  -0.184727  0.000315  3.951814  0.002
C  C177  1  0.69839581  0.30234909  0.69133924  1  -0.070567  0.001768  -0.089836  -0.184732  0.000315  3.951607  0.002
C  C178  1  0.30689621  0.59605657  0.30573954  1  0.48445  -0.006591  0.037739  0.087159  -0.00709  3.970824  -0.004
C  C179  1  0.69310152  0.40393888  0.69426522  1  0.484231  -0.00659  0.037809  0.087191  -0.007089  3.970613  -0.004
C  C180  1  0.11616209  0.56221582  0.39346144  1  0.479355  -0.010604  0.040368  0.095337  -0.011373  3.94464  -0.006
C  C181  1  0.88383318  0.43778285  0.60653735  1  0.479331  -0.010606  0.040305  0.095245  -0.011372  3.944891  -0.006
C  C182  1  0.10339795  0.66271421  0.39968726  1  -0.080214  0.002864  -0.086709  -0.187285  0.000764  3.918126  0.003
C  C183  1  0.89659829  0.33728681  0.60030908  1  -0.079939  0.002865  -0.086701  -0.187215  0.000763  3.91809  0.003
C  C184  1  0.03440793  0.96730431  0.97956095  1  -0.095192  -0.000101  -0.082348  -0.119813  -0.000107  3.962955  0.0
C  C185  1  0.96559453  0.03270043  0.02043734  1  -0.015694  -0.000101  -0.082393  -0.119845  -0.000107  3.962951  0.0
C  C186  1  0.15523752  0.98733929  0.92438565  1  0.020482  -2.3e-05  0.001541  0.13917  -4.8e-05  4.032989  0.0
C  C187  1  0.84476661  0.01266391  0.07561256  1  0.019792  -2.3e-05  0.001496  0.139114  -4.8e-05  4.032983  0.0
C  C188  1  0.21739964  0.08060343  0.90407248  1  -0.051608  -0.000142  -0.087107  -0.172783  -0.000193  3.923644  0.0
C  C189  1  0.78260359  0.91939899  0.09592669  1  -0.051575  -0.000142  -0.08703  -0.172625  -0.000193  3.923595  0.0
C  C190  1  0.33288176  0.09061722  0.85129951  1  0.490476  -1.7e-05  0.034497  0.0864  -1.4e-05  4.022957  0.0
C  C191  1  0.66712491  0.90938438  0.14870078  1  0.490893  -1.6e-05  0.034444  0.086253  -1.4e-05  4.022948  0.0
C  C192  1  0.33197684  0.92724852  0.83662824  1  0.511746  -1.2e-05  0.038311  0.094755  -3.7e-05  4.001578  0.0
C  C193  1  0.66802642  0.07275469  0.16337017  1  0.512276  -1.2e-05  0.038376  0.09479  -3.7e-05  4.001536  0.0
C  C194  1  0.21609174  0.90972698  0.88852215  1  -0.041629  -0.000126  -0.088167  -0.178805  -0.000145  3.936393  0.0
C  C195  1  0.78391069  0.09027702  0.11147512  1  -0.042168  -0.000126  -0.088143  -0.178807  -0.000145  3.936293  0.0
C  C196  1  0.45592563  0.96514413  0.52317355  1  0.034914  -0.000184  -0.080639  -0.116769  -0.000203  3.958404  0.0
C  C197  1  0.54407125  0.03485090  0.47681792  1  -0.096258  -0.000184  -0.080702  -0.116603  -0.000203  3.958305  0.0
C  C198  1  0.33770677  0.98722532  0.56994577  1  -0.02871  -2.9e-05  0.001919  0.138789  -3.6e-05  4.032837  0.0
C  C199  1  0.66229019  0.01277189  0.43004997  1  -0.028698  -2.9e-05  0.001942  0.138798  -3.7e-05  4.032853  0.0
C  C200  1  0.29904527  0.08609356  0.57525874  1  -0.057559  -3.2e-05  -0.086597  -0.170131  -0.000104  3.915421  0.0
C  C201  1  0.70095604  0.91390432  0.42473939  1  -0.057354  -3.2e-05  -0.086574  -0.170106  -0.000104  3.915425  0.0
C  C202  1  0.18360057  0.09803940  0.62092217  1  0.481339  3.1e-05  0.03278  0.088729  -4.1e-05  4.008037  0.0
C  C203  1  0.81640249  0.90195910  0.37908075  1  0.481263  3.1e-05  0.032775  0.088714  -4.1e-05  4.008132  0.0
C  C204  1  0.14118475  0.92584156  0.65658390  1  0.492775  -5.8e-05  0.029774  0.084316  -7.3e-05  4.025117  0.0
C  C205  1  0.85881230  0.07415854  0.34341834  1  0.492738  -5.8e-05  0.029749  0.084216  -7.3e-05  4.025174  0.0
C  C206  1  0.25481008  0.90580556  0.61266144  1  -0.001099  -5.2e-05  -0.089788  -0.179794  -6.4e-05  3.937568  0.0
C  C207  1  0.74518603  0.09419239  0.38733553  1  -0.001013  -5.2e-05  -0.089778  -0.179769  -6.4e-05  3.937512  0.0
N  N208  1  0.25862118  0.20958593  0.13486236  1  -1.19949  0.049671  -0.332326  -0.252005  0.02597  3.575323  0.047
N  N209  1  0.74138292  0.79041651  0.86513600  1  -1.199387  0.049673  -0.332319  -0.252018  0.025972  3.575349  0.047
N  N210  1  0.28973236  0.52550780  0.09596705  1  -1.200678  0.047327  -0.332986  -0.263165  0.02493  3.581806  0.045
N  N211  1  0.71026812  0.47449081  0.90403232  1  -1.200586  0.047331  -0.332945  -0.263087  0.024932  3.581701  0.045
N  N212  1  0.24600106  0.21357038  0.37285273  1  -1.190211  0.048144  -0.333068  -0.26654  0.025294  3.594899  0.045
N  N213  1  0.75400452  0.78642590  0.62714709  1  -1.190126  0.048141  -0.333072  -0.266505  0.025294  3.594744  0.045
N  N214  1  0.21669616  0.52765327  0.34805827  1  -1.23227  0.050658  -0.333002  -0.249704  0.02641  3.567564  0.048
N  N215  1  0.78330077  0.47234376  0.65194459  1  -1.232313  0.050657  -0.333034  -0.249734  0.02641  3.567574  0.048
N  N216  1  0.39143601  0.01605757  0.81743987  1  -1.203794  -0.000105  -0.332546  -0.29281  -0.000101  3.322046  0.0
N  N217  1  0.60856802  0.98394331  0.18255941  1  -1.204161  -0.000105  -0.332576  -0.292781  -0.000101  3.321941  0.0
N  N218  1  0.10405635  0.02015281  0.66139764  1  -1.187036  -5.9e-05  -0.330751  -0.293486  -5.1e-05  3.338174  0.0
N  N219  1  0.89594593  0.97984797  0.33860619  1  -1.187056  -5.9e-05  -0.330776  -0.293505  -5.1e-05  3.338162  0.0
O  O220  1  0.15394108  0.38992282  0.03691657  1  -1.16055  0.080824  -0.313277  -0.549903  0.041357  2.210031  0.07
O  O221  1  0.84607407  0.61007411  0.96308444  1  -1.159658  0.08081  -0.313285  -0.549974  0.041347  2.209993  0.07
O  O222  1  0.34376121  0.37490917  0.98200145  1  -1.142465  0.091926  -0.305961  -0.540335  0.047565  2.287596  0.079
O  O223  1  0.65625586  0.62509176  0.01799184  1  -1.142  0.091929  -0.306022  -0.540391  0.047567  2.287477  0.079
O  O224  1  0.35714190  0.36199343  0.43530240  1  -1.150031  0.085882  -0.309571  -0.545308  0.04394  2.231322  0.075
O  O225  1  0.64285519  0.63800746  0.56469848  1  -1.150128  0.08588  -0.30964  -0.545376  0.043939  2.231347  0.075
O  O226  1  0.16651650  0.35587378  0.49757318  1  -1.127246  0.091236  -0.305418  -0.539625  0.046948  2.27024  0.079
O  O227  1  0.83347777  0.64412176  0.50242882  1  -1.12715  0.091238  -0.305373  -0.539559  0.046949  2.270344  0.079
O  O228  1  0.43081972  0.34758485  0.13436149  1  -1.140598  0.097075  -0.29982  -0.534593  0.050982  2.385028  0.082
O  O229  1  0.56918081  0.65241524  0.86563994  1  -1.140646  0.097082  -0.299851  -0.534616  0.050986  2.384955  0.082
O  O230  1  0.37116524  0.40257815  0.25491353  1  -1.172875  0.091305  -0.313155  -0.574871  0.047999  2.540446  0.076
O  O231  1  0.62883092  0.59742119  0.74508846  1  -1.172875  0.091294  -0.313136  -0.574887  0.047994  2.540505  0.076
O  O232  1  0.13859199  0.35737891  0.22177603  1  -1.188881  0.097049  -0.312961  -0.580097  0.05134  2.546135  0.082
O  O233  1  0.86140517  0.64262355  0.77822336  1  -1.188918  0.097046  -0.312979  -0.580153  0.051338  2.546183  0.082
O  O234  1  0.06874725  0.36643883  0.35913247  1  -1.140124  0.089979  -0.303636  -0.538654  0.047478  2.379428  0.075
O  O235  1  0.93125480  0.63355592  0.64086847  1  -1.139989  0.08998  -0.303619  -0.538602  0.047478  2.379203  0.075
