# generated using pymatgen
data_Zr3H5C24S6Cl3O16
_symmetry_space_group_name_H-M   'P 1'
_cell_length_a   16.49672543
_cell_length_b   16.49653755
_cell_length_c   23.26225087
_cell_angle_alpha   89.99823830
_cell_angle_beta   89.99893235
_cell_angle_gamma   89.98682221
_symmetry_Int_Tables_number   1
_chemical_formula_structural   Zr3H5C24S6Cl3O16
_chemical_formula_sum   'Zr12 H20 C96 S24 Cl12 O64'
_cell_volume   6330.56204077
_cell_formula_units_Z   4
loop_
 _symmetry_equiv_pos_site_id
 _symmetry_equiv_pos_as_xyz
  1  'x, y, z'
loop_
 _atom_site_type_symbol
 _atom_site_label
 _atom_site_symmetry_multiplicity
 _atom_site_fract_x
 _atom_site_fract_y
 _atom_site_fract_z
 _atom_site_occupancy
 _atom_site_pbe_bader_charge
 _atom_site_pbe_bader_spin_density
 _atom_site_pbe_cm5_charge
 _atom_site_pbe_ddec_charge
 _atom_site_pbe_ddec_spin_density
 _atom_site_pbe_ddec_sum_bond_order
 _atom_site_pbe_magmom
Zr  Zr0  1  0.39250050  0.39240555  0.49880959  1  2.638557  0  1.62168  2.380059  0  2.743458  0
Zr  Zr1  1  0.60724627  0.60723681  0.50118765  1  2.638391  0  1.617902  2.38014  0  2.729549  0
Zr  Zr2  1  0.49879651  0.49869942  0.60738528  1  2.625315  0  1.626153  2.379976  0  2.753622  0
Zr  Zr3  1  0.50111878  0.50091867  0.39260379  1  2.626304  0  1.625895  2.379539  0  2.753688  0
Zr  Zr4  1  0.39223758  0.60699907  0.50000526  1  2.639838  0  1.621021  2.378876  0  2.739485  0
Zr  Zr5  1  0.60714493  0.39215534  0.49997222  1  2.636787  0  1.62018  2.378315  0  2.73827  0
Zr  Zr6  1  0.10680165  0.89206705  0.00000426  1  2.637191  0  1.622435  2.378206  0  2.744189  0
Zr  Zr7  1  0.89370794  0.10837273  0.00003771  1  2.639533  0  1.622774  2.381024  0  2.740732  0
Zr  Zr8  1  0.10820376  0.10654264  0.00045931  1  2.640671  0  1.625354  2.379099  0  2.750136  0
Zr  Zr9  1  0.89188181  0.89348461  0.99950912  1  2.638904  0  1.620735  2.376133  0  2.741164  0
Zr  Zr10  1  0.99959365  0.99936710  0.10747141  1  2.629521  0  1.624141  2.372569  0  2.757566  0
Zr  Zr11  1  0.00045438  0.00039768  0.89253142  1  2.634712  0  1.624477  2.37349  0  2.755917  0
H  H12  1  0.33055731  0.49900053  0.58406411  1  0.604981  0  0.331379  0.425071  0  0.853614  0
H  H13  1  0.50067299  0.66921294  0.41610264  1  0.604516  0  0.331333  0.42519  0  0.853974  0
H  H14  1  0.66805034  0.49900292  0.58529467  1  0.587964  0  0.331031  0.425055  0  0.853384  0
H  H15  1  0.50068939  0.33173306  0.41453393  1  0.631584  0  0.331707  0.425758  0  0.85239  0
H  H16  1  0.16865819  0.99862294  0.08490585  1  0.587218  0  0.331383  0.424719  0  0.85434  0
H  H17  1  0.83090439  0.00062527  0.08428099  1  0.601311  0  0.331413  0.42506  0  0.853674  0
H  H18  1  0.00118514  0.16911251  0.91572633  1  0.616537  0  0.33153  0.425091  0  0.853569  0
H  H19  1  0.99943075  0.83137796  0.91509635  1  0.587185  0  0.331305  0.424398  0  0.854658  0
H  H20  1  0.10898926  0.62824525  0.49690797  1  0.121477  0  0.120867  0.146417  0  0.971127  0
H  H21  1  0.62855869  0.10888915  0.50239979  1  0.135915  0  0.120985  0.146533  0  0.971243  0
H  H22  1  0.86931734  0.13096840  0.73978848  1  0.124177  0  0.120999  0.146416  0  0.971207  0
H  H23  1  0.12620180  0.86442811  0.26012630  1  0.126467  0  0.121199  0.146871  0  0.970335  0
H  H24  1  0.13624332  0.87458508  0.73987247  1  0.148613  0  0.120962  0.145981  0  0.970887  0
H  H25  1  0.86998520  0.13155608  0.26009370  1  0.143973  0  0.120965  0.146319  0  0.970638  0
H  H26  1  0.74226570  0.73772613  0.13103104  1  0.12963  0  0.121975  0.147395  0  0.968893  0
H  H27  1  0.26222316  0.25714923  0.86920653  1  0.13043  0  0.120736  0.146715  0  0.972846  0
H  H28  1  0.86633397  0.87197031  0.73952739  1  0.14206  0  0.120698  0.146184  0  0.969706  0
H  H29  1  0.12789892  0.13335145  0.26061985  1  0.136099  0  0.120798  0.146146  0  0.970064  0
H  H30  1  0.39179737  0.87043065  0.99702685  1  0.134803  0  0.12209  0.148263  0  0.968818  0
H  H31  1  0.87127379  0.60891728  0.00183214  1  0.136176  0  0.121822  0.147429  0  0.969317  0
C  C32  1  0.22725833  0.50058609  0.49648129  1  1.505895  0  0.226141  0.644501  0  4.151764  0
C  C33  1  0.49764431  0.77217488  0.50357798  1  1.599092  0  0.22289  0.655821  0  4.145096  0
C  C34  1  0.77225045  0.49755853  0.49790904  1  1.602006  0  0.223321  0.656351  0  4.144711  0
C  C35  1  0.50088279  0.22717472  0.50192734  1  1.506064  0  0.226316  0.6447  0  4.150441  0
C  C36  1  0.36468496  0.35941837  0.63460656  1  1.585755  0  0.22369  0.656218  0  4.147505  0
C  C37  1  0.36240453  0.36767396  0.36225408  1  1.564886  0  0.223406  0.655525  0  4.14842  0
C  C38  1  0.64056045  0.63513925  0.36560779  1  1.582906  0  0.223652  0.655755  0  4.146897  0
C  C39  1  0.63220240  0.63752107  0.63753164  1  1.560674  0  0.222669  0.65382  0  4.148648  0
C  C40  1  0.36614666  0.63675393  0.63719561  1  1.554561  0  0.222691  0.653592  0  4.151422  0
C  C41  1  0.63120617  0.36059217  0.63724115  1  1.57092  0  0.222312  0.654722  0  4.150395  0
C  C42  1  0.63902602  0.36828470  0.36268719  1  1.556142  0  0.222996  0.655569  0  4.149244  0
C  C43  1  0.36301226  0.63350663  0.36285893  1  1.553137  0  0.2228  0.653819  0  4.150922  0
C  C44  1  0.13207585  0.86063225  0.13681751  1  1.555581  0  0.226028  0.645506  0  4.154849  0
C  C45  1  0.86771033  0.13853796  0.13682139  1  1.572388  0  0.22683  0.646852  0  4.152876  0
C  C46  1  0.86262388  0.13354712  0.86311019  1  1.573295  0  0.226247  0.645531  0  4.15058  0
C  C47  1  0.13827153  0.86710251  0.86316198  1  1.575739  0  0.226067  0.645388  0  4.153716  0
C  C48  1  0.27274636  0.99783651  0.99770933  1  1.500202  0  0.226016  0.644307  0  4.151707  0
C  C49  1  0.99861935  0.72756874  0.00231354  1  1.614991  0  0.226087  0.64428  0  4.150512  0
C  C50  1  0.72775045  0.00306820  0.99691864  1  1.608371  0  0.223672  0.655768  0  4.144386  0
C  C51  1  0.00290920  0.27255074  0.00306712  1  1.614213  0  0.223387  0.655723  0  4.145179  0
C  C52  1  0.13288282  0.13727005  0.13723447  1  1.554387  0  0.225153  0.644476  0  4.152469  0
C  C53  1  0.14011382  0.13336527  0.86438335  1  1.548732  0  0.225595  0.643765  0  4.15282  0
C  C54  1  0.86130948  0.86794563  0.86289473  1  1.573232  0  0.226365  0.646682  0  4.151119  0
C  C55  1  0.86543232  0.86061463  0.13557135  1  1.592582  0  0.225481  0.64448  0  4.153587  0
C  C56  1  0.91436879  0.43058996  0.49764443  1  0.108699  0  0.008885  0.102503  0  4.084274  0
C  C57  1  0.08667802  0.56620934  0.49701200  1  0.001917  0  -0.088031  -0.131924  0  3.957433  0
C  C58  1  0.86122765  0.49633654  0.49738570  1  -0.150585  0  -0.029564  -0.188069  0  3.931508  0
C  C59  1  0.13812859  0.49988285  0.49675016  1  -0.089678  0  -0.021665  -0.115824  0  3.959665  0
C  C60  1  0.00481921  0.54110621  0.49731333  1  -0.163956  0  -0.021488  0.002458  0  4.072456  0
C  C61  1  0.99620210  0.45608227  0.49753610  1  -0.082628  0  -0.03082  -0.087804  0  4.092288  0
C  C62  1  0.43080137  0.91434575  0.50280779  1  0.11396  0  0.008973  0.10204  0  4.08613  0
C  C63  1  0.56652955  0.08657826  0.50250192  1  -0.01616  0  -0.08815  -0.132562  0  3.957882  0
C  C64  1  0.49649203  0.86114520  0.50330875  1  -0.149067  0  -0.029807  -0.188921  0  3.931629  0
C  C65  1  0.50022078  0.13804820  0.50247902  1  -0.09162  0  -0.021501  -0.115726  0  3.960289  0
C  C66  1  0.54138852  0.00472215  0.50263413  1  -0.164463  0  -0.020815  0.003501  0  4.07125  0
C  C67  1  0.45635643  0.99615150  0.50254919  1  -0.085729  0  -0.031332  -0.087694  0  4.092467  0
C  C68  1  0.66816937  0.32196247  0.74187996  1  0.096941  0  0.009103  0.103521  0  4.087591  0
C  C69  1  0.82586681  0.17172819  0.75981562  1  0.062469  0  -0.088365  -0.133277  0  3.962072  0
C  C70  1  0.67540547  0.31684545  0.68230018  1  -0.062415  0  -0.028897  -0.188399  0  3.934408  0
C  C71  1  0.81713274  0.17777104  0.81885719  1  -0.184844  0  -0.022437  -0.11778  0  3.967085  0
C  C72  1  0.77176610  0.22469764  0.73147979  1  -0.20842  0  -0.021405  0.003235  0  4.074821  0
C  C73  1  0.72320476  0.26952091  0.76992604  1  -0.105119  0  -0.029749  -0.087188  0  4.092815  0
C  C74  1  0.32723642  0.67333645  0.25828029  1  0.091399  0  0.009349  0.103625  0  4.087435  0
C  C75  1  0.16952930  0.82345131  0.24017783  1  0.063531  0  -0.087877  -0.132164  0  3.960253  0
C  C76  1  0.31931177  0.67783887  0.31784117  1  -0.057575  0  -0.028706  -0.187871  0  3.934015  0
C  C77  1  0.17746333  0.81643562  0.18114058  1  -0.174871  0  -0.023082  -0.120061  0  3.969002  0
C  C78  1  0.22409549  0.77108557  0.26860135  1  -0.208139  0  -0.02132  0.002968  0  4.07474  0
C  C79  1  0.27255198  0.72608348  0.23020755  1  -0.103599  0  -0.029704  -0.087209  0  4.095869  0
C  C80  1  0.32634727  0.67261596  0.74178596  1  0.083753  0  0.009  0.102644  0  4.089118  0
C  C81  1  0.17681796  0.83088174  0.75982776  1  0.045886  0  -0.087401  -0.13065  0  3.958492  0
C  C82  1  0.32226989  0.68089274  0.68223577  1  -0.059639  0  -0.028507  -0.186677  0  3.933971  0
C  C83  1  0.18302127  0.82223797  0.81886337  1  -0.188039  0  -0.022983  -0.119442  0  3.967722  0
C  C84  1  0.22929197  0.77637880  0.73144382  1  -0.19286  0  -0.021386  0.002626  0  4.07434  0
C  C85  1  0.27365805  0.72736079  0.76984663  1  -0.096531  0  -0.029746  -0.087088  0  4.095467  0
C  C86  1  0.67758771  0.33135047  0.25801303  1  0.082292  0  0.009016  0.103765  0  4.08747  0
C  C87  1  0.82885476  0.17466300  0.24006191  1  0.041325  0  -0.087746  -0.131614  0  3.961181  0
C  C88  1  0.68295308  0.32430773  0.31759028  1  -0.060956  0  -0.029005  -0.188982  0  3.934286  0
C  C89  1  0.82278116  0.18338434  0.18102887  1  -0.189608  0  -0.022497  -0.118968  0  3.968194  0
C  C90  1  0.77556007  0.22842406  0.26839298  1  -0.204343  0  -0.022191  0.001993  0  4.076032  0
C  C91  1  0.73032482  0.27660199  0.22995623  1  -0.091504  0  -0.029321  -0.086681  0  4.090983  0
C  C92  1  0.74471502  0.73972275  0.32772693  1  0.116276  0  0.008294  0.101399  0  4.090367  0
C  C93  1  0.76246327  0.75753314  0.17325961  1  0.076142  0  -0.08689  -0.129042  0  3.955823  0
C  C94  1  0.68559204  0.68006928  0.32154116  1  -0.097528  0  -0.028248  -0.186822  0  3.932545  0
C  C95  1  0.82157302  0.81613546  0.18054932  1  -0.247389  0  -0.02211  -0.117661  0  3.966989  0
C  C96  1  0.73416689  0.72939542  0.22698536  1  -0.139988  0  -0.021056  0.001439  0  4.072666  0
C  C97  1  0.77253496  0.76773625  0.27380472  1  -0.154947  0  -0.030819  -0.087283  0  4.096594  0
C  C98  1  0.26015268  0.25531320  0.67245948  1  0.11721  0  0.008512  0.102037  0  4.090799  0
C  C99  1  0.24243297  0.23714455  0.82691692  1  0.068021  0  -0.085951  -0.128444  0  3.952389  0
C  C100  1  0.31974914  0.31447864  0.67870414  1  -0.097652  0  -0.028916  -0.189322  0  3.935342  0
C  C101  1  0.18404587  0.17784019  0.81948664  1  -0.187213  0  -0.022593  -0.117806  0  3.96623  0
C  C102  1  0.27041166  0.26574725  0.77322813  1  -0.149659  0  -0.020626  0.002932  0  4.069053  0
C  C103  1  0.23214966  0.22742702  0.72635847  1  -0.154915  0  -0.02995  -0.08653  0  4.096246  0
C  C104  1  0.67101054  0.67512110  0.74201181  1  0.196012  0  0.008833  0.102858  0  4.088767  0
C  C105  1  0.82434843  0.82974706  0.75959286  1  0.038329  0  -0.088203  -0.131833  0  3.961506  0
C  C106  1  0.67650072  0.68157337  0.68242374  1  -0.127831  0  -0.028325  -0.185896  0  3.929392  0
C  C107  1  0.81670333  0.82282404  0.81865864  1  -0.187265  0  -0.022696  -0.11906  0  3.968075  0
C  C108  1  0.77116442  0.77582245  0.73132142  1  -0.204376  0  -0.021836  0.000591  0  4.078295  0
C  C109  1  0.72477406  0.72900443  0.76986153  1  -0.134291  0  -0.029567  -0.085016  0  4.09354  0
C  C110  1  0.32460037  0.32881295  0.25781346  1  0.193448  0  0.009007  0.104124  0  4.089321  0
C  C111  1  0.17010212  0.17532310  0.24052430  1  0.039137  0  -0.08847  -0.13193  0  3.961256  0
C  C112  1  0.31818321  0.32350344  0.31741485  1  -0.128551  0  -0.029028  -0.188677  0  3.933255  0
C  C113  1  0.17732770  0.18254503  0.18144175  1  -0.169921  0  -0.022291  -0.118665  0  3.967967  0
C  C114  1  0.22388933  0.22873178  0.26870933  1  -0.207401  0  -0.021903  0.000602  0  4.078834  0
C  C115  1  0.27071197  0.27496964  0.23006004  1  -0.13083  0  -0.029581  -0.086087  0  4.094245  0
C  C116  1  0.58528606  0.06930573  0.99753491  1  0.111891  0  0.009576  0.101231  0  4.089574  0
C  C117  1  0.41369941  0.93261754  0.99721171  1  0.037474  0  -0.086789  -0.131337  0  3.955548  0
C  C118  1  0.63879512  0.00389132  0.99687712  1  -0.147844  0  -0.030113  -0.189632  0  3.933809  0
C  C119  1  0.36188214  0.99864887  0.99740563  1  -0.050663  0  -0.021587  -0.11729  0  3.960989  0
C  C120  1  0.49542784  0.95819412  0.99724954  1  -0.241397  0  -0.020013  0.003827  0  4.070283  0
C  C121  1  0.50361042  0.04327390  0.99764496  1  -0.077881  0  -0.02994  -0.086737  0  4.091119  0
C  C122  1  0.06949333  0.41481900  0.00292320  1  0.100251  0  0.009499  0.101801  0  4.089765  0
C  C123  1  0.93337289  0.58678367  0.00222272  1  -0.022173  0  -0.088178  -0.1316  0  3.957451  0
C  C124  1  0.00389068  0.36151717  0.00307213  1  -0.157033  0  -0.029465  -0.190203  0  3.934415  0
C  C125  1  0.99951947  0.63842204  0.00259697  1  -0.20374  0  -0.021613  -0.117266  0  3.960978  0
C  C126  1  0.95871157  0.50498662  0.00232191  1  -0.158206  0  -0.020461  0.002656  0  4.07231  0
C  C127  1  0.04376671  0.49657670  0.00258113  1  -0.07828  0  -0.029926  -0.087322  0  4.092619  0
S  S128  1  0.91186947  0.58905624  0.49713927  1  0.28482  0  0.087381  0.137144  0  2.753643  0
S  S129  1  0.08808874  0.40693878  0.49718573  1  0.295462  0  0.089284  0.141171  0  2.785318  0
S  S130  1  0.58924766  0.91173122  0.50313257  1  0.281371  0  0.087231  0.136926  0  2.750954  0
S  S131  1  0.40726505  0.08807446  0.50250559  1  0.300868  0  0.089431  0.141848  0  2.787846  0
S  S132  1  0.74955566  0.24785441  0.66093062  1  0.286009  0  0.086742  0.136871  0  2.749786  0
S  S133  1  0.74380993  0.24720995  0.84056204  1  0.287588  0  0.091155  0.144448  0  2.790173  0
S  S134  1  0.24587134  0.74758514  0.33915998  1  0.288309  0  0.087586  0.137827  0  2.748552  0
S  S135  1  0.25098191  0.74714338  0.15954835  1  0.283717  0  0.089868  0.143944  0  2.778739  0
S  S136  1  0.25335946  0.75510578  0.66090343  1  0.27142  0  0.08764  0.137791  0  2.752635  0
S  S137  1  0.25174558  0.74820802  0.84049577  1  0.281877  0  0.089703  0.143489  0  2.777552  0
S  S138  1  0.75266722  0.25082991  0.33895227  1  0.288637  0  0.087208  0.137773  0  2.752414  0
S  S139  1  0.75269189  0.25608144  0.15931869  1  0.285217  0  0.090786  0.143984  0  2.787111  0
S  S140  1  0.66407414  0.65883122  0.24975099  1  0.286443  0  0.090697  0.142061  0  2.762917  0
S  S141  1  0.84321332  0.83787118  0.25218172  1  0.286133  0  0.084921  0.13707  0  2.775689  0
S  S142  1  0.34090028  0.33597800  0.75052225  1  0.281922  0  0.090786  0.142954  0  2.761082  0
S  S143  1  0.16218609  0.15651670  0.74783661  1  0.285797  0  0.084275  0.13619  0  2.776386  0
S  S144  1  0.74797542  0.75322428  0.66082607  1  0.287721  0  0.087019  0.135554  0  2.744326  0
S  S145  1  0.74574208  0.75106759  0.84045748  1  0.28261  0  0.088851  0.141395  0  2.780339  0
S  S146  1  0.24649873  0.25214170  0.33916469  1  0.28966  0  0.087908  0.138101  0  2.744296  0
S  S147  1  0.24899464  0.25350365  0.15949460  1  0.290775  0  0.091301  0.144668  0  2.792283  0
S  S148  1  0.58865786  0.91083651  0.99657796  1  0.282533  0  0.087656  0.138023  0  2.740893  0
S  S149  1  0.41144957  0.09185650  0.99787074  1  0.276729  0  0.090151  0.144072  0  2.773177  0
S  S150  1  0.91100855  0.41195500  0.00259325  1  0.288904  0  0.0906  0.14207  0  2.742104  0
S  S151  1  0.09261915  0.58859342  0.00286563  1  0.300827  0  0.091245  0.143766  0  2.774823  0
Cl  Cl152  1  0.88869098  0.33028579  0.49824327  1  -0.159741  0  0.008006  -0.036118  0  1.522574  0
Cl  Cl153  1  0.33045955  0.88880223  0.50245928  1  -0.157455  0  0.007874  -0.036075  0  1.523603  0
Cl  Cl154  1  0.60245263  0.38173390  0.77949218  1  -0.162577  0  0.01101  -0.030973  0  1.558724  0
Cl  Cl155  1  0.39343988  0.61403779  0.22072738  1  -0.156545  0  0.011143  -0.031181  0  1.564674  0
Cl  Cl156  1  0.38495461  0.60577319  0.77932008  1  -0.158791  0  0.0107  -0.031543  0  1.563894  0
Cl  Cl157  1  0.61725355  0.39658704  0.22042778  1  -0.163529  0  0.010661  -0.031435  0  1.559106  0
Cl  Cl158  1  0.78180575  0.77741416  0.39083407  1  -0.162435  0  0.008714  -0.035662  0  1.523465  0
Cl  Cl159  1  0.22251391  0.21811893  0.60937555  1  -0.159484  0  0.010703  -0.031749  0  1.524752  0
Cl  Cl160  1  0.60923661  0.61173168  0.77985065  1  -0.16214  0  0.010571  -0.0318  0  1.597466  0
Cl  Cl161  1  0.38793056  0.39047213  0.21983664  1  -0.162578  0  0.010961  -0.030771  0  1.59755  0
Cl  Cl162  1  0.61054195  0.16964205  0.99825193  1  -0.15183  0  0.013444  -0.027638  0  1.52403  0
Cl  Cl163  1  0.16980163  0.38923664  0.00314289  1  -0.15645  0  0.012302  -0.0281  0  1.515151  0
O  O164  1  0.26240296  0.43132570  0.49622131  1  -1.176912  0  -0.357141  -0.615767  0  2.277155  0
O  O165  1  0.56761179  0.73827123  0.50370298  1  -1.171341  0  -0.355798  -0.6172  0  2.26072  0
O  O166  1  0.73840659  0.56750677  0.49899265  1  -1.170646  0  -0.355204  -0.616381  0  2.261347  0
O  O167  1  0.43161108  0.26223309  0.50093956  1  -1.177215  0  -0.356492  -0.614825  0  2.278113  0
O  O168  1  0.41586098  0.41185887  0.65289447  1  -1.179097  0  -0.357446  -0.615861  0  2.272151  0
O  O169  1  0.41495887  0.41968098  0.34636601  1  -1.17023  0  -0.354593  -0.60768  0  2.311387  0
O  O170  1  0.58823315  0.58397492  0.34722315  1  -1.176944  0  -0.355824  -0.613986  0  2.272354  0
O  O171  1  0.58012820  0.58511330  0.65345796  1  -1.165954  0  -0.353149  -0.605562  0  2.312684  0
O  O172  1  0.34804408  0.65467238  0.58511115  1  -1.160078  0  -0.357135  -0.617329  0  2.26709  0
O  O173  1  0.65003859  0.34341173  0.58516113  1  -1.17431  0  -0.357065  -0.618596  0  2.267189  0
O  O174  1  0.65579577  0.34895338  0.41473126  1  -1.159534  0  -0.356722  -0.618033  0  2.267485  0
O  O175  1  0.34447986  0.65094042  0.41495958  1  -1.160687  0  -0.357381  -0.617999  0  2.266468  0
O  O176  1  0.57872411  0.41272517  0.65329398  1  -1.165324  0  -0.358794  -0.611689  0  2.320179  0
O  O177  1  0.58718076  0.42109541  0.34667775  1  -1.164666  0  -0.359475  -0.61251  0  2.320229  0
O  O178  1  0.41614527  0.58213129  0.34672700  1  -1.169222  0  -0.358688  -0.610362  0  2.322905  0
O  O179  1  0.41777976  0.58384625  0.65330177  1  -1.168701  0  -0.358603  -0.610631  0  2.322191  0
O  O180  1  0.34879154  0.34372589  0.58204615  1  -1.161413  0  -0.359322  -0.614039  0  2.317288  0
O  O181  1  0.65079197  0.65528012  0.58539878  1  -1.173056  0  -0.361611  -0.621651  0  2.268341  0
O  O182  1  0.65613681  0.65106212  0.41818754  1  -1.163531  0  -0.359689  -0.61444  0  2.316768  0
O  O183  1  0.34472857  0.34905160  0.41438178  1  -1.16993  0  -0.361911  -0.621503  0  2.269136  0
O  O184  1  0.57007797  0.26207106  0.50172098  1  -1.174027  0  -0.356857  -0.610846  0  2.25604  0
O  O185  1  0.26212880  0.56978325  0.49724201  1  -1.176864  0  -0.356602  -0.610522  0  2.256683  0
O  O186  1  0.42931797  0.73577268  0.50295769  1  -1.169774  0  -0.360792  -0.615362  0  2.320376  0
O  O187  1  0.73582623  0.42922352  0.49797153  1  -1.169957  0  -0.361473  -0.61598  0  2.320982  0
O  O188  1  0.50053934  0.37939105  0.43892441  1  -1.26476  0  -0.694517  -1.070902  0  2.357067  0
O  O189  1  0.62024112  0.49923806  0.56104799  1  -1.220914  0  -0.693222  -1.068604  0  2.354681  0
O  O190  1  0.50040725  0.62118239  0.44012794  1  -1.237826  0  -0.693356  -1.067952  0  2.357796  0
O  O191  1  0.37843193  0.49930408  0.55988211  1  -1.238708  0  -0.694177  -1.06979  0  2.359511  0
O  O192  1  0.49945134  0.58842919  0.54482540  1  -1.193483  0  -0.789259  -1.147539  0  2.119016  0
O  O193  1  0.41122813  0.50018390  0.45508376  1  -1.194356  0  -0.790057  -1.149212  0  2.121355  0
O  O194  1  0.58934164  0.50021190  0.45605491  1  -1.186795  0  -0.788548  -1.146411  0  2.117811  0
O  O195  1  0.49947548  0.41028272  0.54401450  1  -1.188356  0  -0.789887  -1.149306  0  2.121362  0
O  O196  1  0.14939886  0.84365264  0.08447484  1  -1.17055  0  -0.359056  -0.618521  0  2.281291  0
O  O197  1  0.85133721  0.15626648  0.08445578  1  -1.168851  0  -0.359595  -0.618198  0  2.283704  0
O  O198  1  0.84619792  0.15134195  0.91545198  1  -1.17024  0  -0.358381  -0.616313  0  2.281027  0
O  O199  1  0.15468285  0.84925518  0.91551900  1  -1.170084  0  -0.359492  -0.619172  0  2.280829  0
O  O200  1  0.23780641  0.06728281  0.99839152  1  -1.174971  0  -0.359147  -0.61926  0  2.27963  0
O  O201  1  0.92956344  0.76263678  0.00162882  1  -1.172247  0  -0.353987  -0.609755  0  2.252125  0
O  O202  1  0.76159872  0.93297217  0.99712116  1  -1.178415  0  -0.360104  -0.621828  0  2.265432  0
O  O203  1  0.07105906  0.23588733  0.00305803  1  -1.173372  0  -0.358293  -0.614623  0  2.318215  0
O  O204  1  0.08108016  0.08492527  0.15428794  1  -1.183401  0  -0.35667  -0.61209  0  2.260031  0
O  O205  1  0.08737738  0.08179602  0.84701969  1  -1.175689  0  -0.360571  -0.620569  0  2.28621  0
O  O206  1  0.91397908  0.91933557  0.84582149  1  -1.175422  0  -0.355826  -0.611373  0  2.259096  0
O  O207  1  0.91738186  0.91292109  0.15292126  1  -1.176138  0  -0.359508  -0.619986  0  2.285768  0
O  O208  1  0.15710794  0.15019484  0.91661230  1  -1.165881  0  -0.355596  -0.607896  0  2.261555  0
O  O209  1  0.84398069  0.85083809  0.91524466  1  -1.169748  0  -0.360943  -0.621014  0  2.283635  0
O  O210  1  0.84761129  0.84453076  0.08333381  1  -1.168854  0  -0.356116  -0.611053  0  2.258009  0
O  O211  1  0.15100337  0.15362764  0.08492666  1  -1.167252  0  -0.359393  -0.616315  0  2.285405  0
O  O212  1  0.23755882  0.92884911  0.99799407  1  -1.17503  0  -0.354499  -0.608756  0  2.252086  0
O  O213  1  0.93282068  0.23872281  0.00230961  1  -1.172788  0  -0.359181  -0.619943  0  2.260703  0
O  O214  1  0.76434441  0.07124434  0.99749194  1  -1.171725  0  -0.358117  -0.613294  0  2.314792  0
O  O215  1  0.06802215  0.76258732  0.00203331  1  -1.179711  0  -0.360379  -0.61841  0  2.279468  0
O  O216  1  0.08618997  0.91909916  0.84602412  1  -1.182303  0  -0.356748  -0.610422  0  2.263141  0
O  O217  1  0.08019631  0.91284821  0.15393515  1  -1.176847  0  -0.357127  -0.610798  0  2.262961  0
O  O218  1  0.91840631  0.08521695  0.15403794  1  -1.176775  0  -0.357307  -0.61147  0  2.262546  0
O  O219  1  0.91521136  0.08205669  0.84592376  1  -1.179734  0  -0.357616  -0.611905  0  2.261201  0
O  O220  1  0.99947585  0.87937661  0.93915840  1  -1.220432  0  -0.693579  -1.07005  0  2.355946  0
O  O221  1  0.00106853  0.12101405  0.93968930  1  -1.249732  0  -0.694031  -1.069937  0  2.357919  0
O  O222  1  0.87902517  0.00043353  0.06033629  1  -1.233778  0  -0.693442  -1.068846  0  2.355985  0
O  O223  1  0.12068350  0.99879566  0.06082683  1  -1.220175  0  -0.694166  -1.070703  0  2.357279  0
O  O224  1  0.00052208  0.08863336  0.04475649  1  -1.197548  0  -0.790184  -1.148136  0  2.120419  0
O  O225  1  0.99924093  0.91066682  0.04426829  1  -1.19505  0  -0.789259  -1.148227  0  2.119552  0
O  O226  1  0.91128280  0.00078082  0.95533629  1  -1.199306  0  -0.789357  -1.147521  0  2.11931  0
O  O227  1  0.08926724  0.99953339  0.95564458  1  -1.204757  0  -0.790194  -1.149165  0  2.120851  0
