# generated using pymatgen
data_ZnH8C10Br2(NO)2
_symmetry_space_group_name_H-M   'P 1'
_cell_length_a   8.58571654
_cell_length_b   9.07997155
_cell_length_c   9.23999885
_cell_angle_alpha   67.72364703
_cell_angle_beta   85.05549102
_cell_angle_gamma   66.79125588
_symmetry_Int_Tables_number   1
_chemical_formula_structural   ZnH8C10Br2(NO)2
_chemical_formula_sum   'Zn2 H16 C20 Br4 N4 O4'
_cell_volume   610.93554624
_cell_formula_units_Z   2
loop_
 _symmetry_equiv_pos_site_id
 _symmetry_equiv_pos_as_xyz
  1  'x, y, z'
loop_
 _atom_site_type_symbol
 _atom_site_label
 _atom_site_symmetry_multiplicity
 _atom_site_fract_x
 _atom_site_fract_y
 _atom_site_fract_z
 _atom_site_occupancy
 _atom_site_hle17_bader_spin_density
 _atom_site_hle17_ddec_charge
 _atom_site_hle17_ddec_spin_density
 _atom_site_hle17_ddec_sum_bond_order
 _atom_site_hle17_magmom
 _atom_site_hse06_10hf_bader_spin_density
 _atom_site_hse06_10hf_ddec_charge
 _atom_site_hse06_10hf_ddec_spin_density
 _atom_site_hse06_10hf_ddec_sum_bond_order
 _atom_site_hse06_10hf_magmom
 _atom_site_hse06_bader_spin_density
 _atom_site_hse06_ddec_charge
 _atom_site_hse06_ddec_spin_density
 _atom_site_hse06_ddec_sum_bond_order
 _atom_site_hse06_magmom
 _atom_site_pbe_bader_spin_density
 _atom_site_pbe_cm5_charge
 _atom_site_pbe_ddec_charge
 _atom_site_pbe_ddec_spin_density
 _atom_site_pbe_ddec_sum_bond_order
 _atom_site_pbe_magmom
Zn  Zn0  1  0.04667194  0.17972059  0.01279449  1  0  0.902614  0  2.036558  0  0  0.745396  0  2.522151  0  0  0.794728  0  2.465342  0  0  0.492563  0.711161  0  2.560636  0
Zn  Zn1  1  0.95332562  0.82028350  0.98720253  1  0  0.902533  0  2.036554  0  0  0.745359  0  2.522136  0  0  0.794692  0  2.465331  0  0  0.492547  0.711127  0  2.560624  0
H  H2  1  0.06261653  0.22067204  0.68025295  1  0  0.11012  0  0.961031  0  0  0.117615  0  1.027234  0  0  0.121355  0  1.02323  0  0  0.116371  0.11484  0  1.030275  0
H  H3  1  0.93738294  0.77932430  0.31974904  1  0  0.11013  0  0.96101  0  0  0.117615  0  1.027215  0  0  0.121352  0  1.023215  0  0  0.116367  0.114841  0  1.030253  0
H  H4  1  0.41862520  0.73889828  0.94403405  1  0  0.119483  0  0.922887  0  0  0.127455  0  0.98343  0  0  0.130747  0  0.980224  0  0  0.131698  0.125005  0  0.985841  0
H  H5  1  0.58137554  0.26110076  0.05597222  1  0  0.119478  0  0.922966  0  0  0.127475  0  0.983459  0  0  0.130755  0  0.980287  0  0  0.131729  0.125035  0  0.985859  0
H  H6  1  0.23652513  0.24573382  0.44859476  1  0  0.118367  0  0.964026  0  0  0.126133  0  1.025102  0  0  0.129625  0  1.023432  0  0  0.102412  0.123583  0  1.026514  0
H  H7  1  0.76347266  0.75426380  0.55140688  1  0  0.118383  0  0.964016  0  0  0.126145  0  1.025105  0  0  0.129637  0  1.023435  0  0  0.102424  0.123597  0  1.026508  0
H  H8  1  0.61332826  0.74064901  0.72859734  1  0  0.121676  0  0.985873  0  0  0.129245  0  1.048666  0  0  0.133108  0  1.046442  0  0  0.0981  0.126441  0  1.050454  0
H  H9  1  0.38667365  0.25935005  0.27140882  1  0  0.121662  0  0.985818  0  0  0.129213  0  1.048641  0  0  0.133078  0  1.046416  0  0  0.098092  0.126417  0  1.05042  0
H  H10  1  0.12799626  0.52288985  0.80168978  1  0  0.110128  0  0.983027  0  0  0.112307  0  1.056352  0  0  0.116544  0  1.051909  0  0  0.110093  0.109156  0  1.059664  0
H  H11  1  0.87200480  0.47711423  0.19830154  1  0  0.110125  0  0.983055  0  0  0.11229  0  1.056364  0  0  0.116528  0  1.05192  0  0  0.110084  0.109141  0  1.059673  0
H  H12  1  0.68237845  0.20533647  0.64541604  1  0  0.111396  0  0.984961  0  0  0.117054  0  1.052513  0  0  0.121385  0  1.049591  0  0  0.097065  0.11392  0  1.054773  0
H  H13  1  0.31762386  0.79465859  0.35458404  1  0  0.111435  0  0.984942  0  0  0.1171  0  1.052481  0  0  0.121433  0  1.049557  0  0  0.097091  0.113965  0  1.054743  0
H  H14  1  0.23004279  0.67931209  0.55718149  1  0  0.119086  0  0.951783  0  0  0.126576  0  1.014028  0  0  0.130461  0  1.012024  0  0  0.106732  0.123779  0  1.015591  0
H  H15  1  0.76996136  0.32068421  0.44281039  1  0  0.119038  0  0.951767  0  0  0.126558  0  1.013981  0  0  0.130444  0  1.011985  0  0  0.106712  0.123763  0  1.015544  0
H  H16  1  0.55859841  0.06918969  0.88243595  1  0  0.12069  0  0.962972  0  0  0.122536  0  1.035997  0  0  0.127728  0  1.030717  0  0  0.123068  0.11871  0  1.039928  0
H  H17  1  0.44140068  0.93081056  0.11756565  1  0  0.120722  0  0.962943  0  0  0.122554  0  1.03599  0  0  0.127746  0  1.030711  0  0  0.123079  0.11873  0  1.039915  0
C  C18  1  0.18607200  0.12088132  0.68056208  1  0  0.016442  0  3.614333  0  0  -0.026734  0  3.876339  0  0  -0.01964  0  3.887876  0  0  0.035477  -0.031493  0  3.869014  0
C  C19  1  0.81392645  0.87911760  0.31943793  1  0  0.016385  0  3.614377  0  0  -0.026749  0  3.876354  0  0  -0.019659  0  3.887901  0  0  0.035499  -0.031501  0  3.869025  0
C  C20  1  0.38985060  0.84615117  0.83135424  1  0  0.036281  0  3.582639  0  0  -0.00646  0  3.848531  0  0  0.001573  0  3.858908  0  0  0.047844  -0.011684  0  3.841809  0
C  C21  1  0.61015066  0.15384654  0.16865032  1  0  0.036339  0  3.582686  0  0  -0.006428  0  3.84863  0  0  0.001607  0  3.858987  0  0  0.047866  -0.01166  0  3.841923  0
C  C22  1  0.28620146  0.13038220  0.55502545  1  0  -0.11269  0  3.70608  0  0  -0.128405  0  3.953343  0  0  -0.133542  0  3.972276  0  0  -0.073947  -0.125303  0  3.940948  0
C  C23  1  0.71379851  0.86961287  0.44497807  1  0  -0.112641  0  3.706055  0  0  -0.128363  0  3.953332  0  0  -0.133502  0  3.972265  0  0  -0.073964  -0.12526  0  3.940933  0
C  C24  1  0.44495825  0.99543987  0.56562467  1  0  0.084279  0  3.733866  0  0  0.092013  0  3.969592  0  0  0.095898  0  3.989346  0  0  0.009777  0.089568  0  3.956142  0
C  C25  1  0.55504289  0.00455519  0.43437766  1  0  0.08415  0  3.734002  0  0  0.091852  0  3.969767  0  0  0.095742  0  3.989514  0  0  0.009752  0.089405  0  3.956327  0
C  C26  1  0.49296868  0.85128659  0.70807239  1  0  -0.11272  0  3.684068  0  0  -0.132141  0  3.934416  0  0  -0.137167  0  3.951992  0  0  -0.071406  -0.129149  0  3.922899  0
C  C27  1  0.50703374  0.14871114  0.29193207  1  0  -0.112702  0  3.68409  0  0  -0.132112  0  3.934487  0  0  -0.137138  0  3.95206  0  0  -0.071416  -0.129124  0  3.922978  0
C  C28  1  0.24816678  0.46082840  0.75858109  1  0  0.003458  0  3.621067  0  0  -0.0376  0  3.880594  0  0  -0.030399  0  3.892116  0  0  0.031888  -0.042205  0  3.873088  0
C  C29  1  0.75183529  0.53917313  0.24141437  1  0  0.003512  0  3.621149  0  0  -0.037505  0  3.880635  0  0  -0.030305  0  3.892158  0  0  0.031952  -0.042112  0  3.873134  0
C  C30  1  0.46655594  0.45733330  0.57244601  1  0  0.079893  0  3.75114  0  0  0.087426  0  3.986852  0  0  0.091809  0  4.005954  0  0  0.001864  0.084739  0  3.973699  0
C  C31  1  0.53344652  0.54266431  0.42754876  1  0  0.079872  0  3.751249  0  0  0.087391  0  3.986982  0  0  0.091775  0  4.006086  0  0  0.0019  0.084699  0  3.973835  0
C  C32  1  0.55797345  0.28419513  0.67035932  1  0  -0.116463  0  3.722191  0  0  -0.1362  0  3.975221  0  0  -0.14122  0  3.99276  0  0  -0.078391  -0.133197  0  3.963612  0
C  C33  1  0.44203003  0.71579994  0.32963958  1  0  -0.116486  0  3.722373  0  0  -0.136222  0  3.975395  0  0  -0.141244  0  3.992937  0  0  -0.078408  -0.133216  0  3.96378  0
C  C34  1  0.30913839  0.54383007  0.62211659  1  0  -0.119024  0  3.701355  0  0  -0.136573  0  3.949085  0  0  -0.141789  0  3.967028  0  0  -0.075255  -0.133409  0  3.937214  0
C  C35  1  0.69086639  0.45616757  0.37787797  1  0  -0.119041  0  3.701364  0  0  -0.136615  0  3.949096  0  0  -0.141836  0  3.967042  0  0  -0.075289  -0.133449  0  3.937227  0
C  C36  1  0.49322523  0.20385140  0.80470570  1  0  0.00352  0  3.608135  0  0  -0.039447  0  3.877519  0  0  -0.032874  0  3.88924  0  0  0.031826  -0.043509  0  3.869766  0
C  C37  1  0.50677554  0.79614755  0.19529410  1  0  0.003478  0  3.608244  0  0  -0.039483  0  3.877608  0  0  -0.032909  0  3.88933  0  0  0.03183  -0.043546  0  3.869859  0
Br  Br38  1  0.06300166  0.10983454  0.28683072  1  0  -0.506019  0  1.027783  0  0  -0.442723  0  1.334755  0  0  -0.46612  0  1.31265  0  0  -0.250555  -0.425572  0  1.34962  0
Br  Br39  1  0.93699397  0.89017732  0.71316240  1  0  -0.506009  0  1.027784  0  0  -0.442693  0  1.334719  0  0  -0.466088  0  1.312614  0  0  -0.25054  -0.425543  0  1.349584  0
Br  Br40  1  0.84071075  0.42660083  0.82160454  1  0  -0.536854  0  0.976634  0  0  -0.480135  0  1.265001  0  0  -0.499807  0  1.239564  0  0  -0.271789  -0.465725  0  1.282225  0
Br  Br41  1  0.15928226  0.57340591  0.17840050  1  0  -0.536835  0  0.976653  0  0  -0.480113  0  1.265004  0  0  -0.499784  0  1.239568  0  0  -0.271775  -0.465701  0  1.282227  0
N  N42  1  0.24098121  0.98188098  0.81806432  1  0  0.262044  0  3.697255  0  0  0.311446  0  3.955894  0  0  0.311104  0  3.977597  0  0  -0.12206  0.310997  0  3.94128  0
N  N43  1  0.75901839  0.01811799  0.18193774  1  0  0.26203  0  3.697354  0  0  0.311431  0  3.955977  0  0  0.311094  0  3.977681  0  0  -0.122126  0.310973  0  3.941378  0
N  N44  1  0.33893624  0.29128522  0.84724154  1  0  0.265206  0  3.705618  0  0  0.319225  0  3.961692  0  0  0.3186  0  3.985007  0  0  -0.117895  0.318977  0  3.945903  0
N  N45  1  0.66106415  0.70871760  0.15275465  1  0  0.265101  0  3.705816  0  0  0.319185  0  3.961845  0  0  0.318558  0  3.985162  0  0  -0.117977  0.318935  0  3.946059  0
O  O46  1  0.14711597  0.97325496  0.94100295  1  0  -0.539716  0  1.998922  0  0  -0.476147  0  2.279027  0  0  -0.503517  0  2.273869  0  0  -0.234564  -0.456711  0  2.281938  0
O  O47  1  0.85288245  0.02674401  0.05900136  1  0  -0.53969  0  1.998945  0  0  -0.476156  0  2.279101  0  0  -0.5035  0  2.273882  0  0  -0.234522  -0.456715  0  2.282017  0
O  O48  1  0.28284813  0.20976007  0.97880856  1  0  -0.541173  0  1.886958  0  0  -0.491807  0  2.15107  0  0  -0.518546  0  2.149465  0  0  -0.240924  -0.47287  0  2.151682  0
O  O49  1  0.71715110  0.79024274  0.02118773  1  0  -0.540996  0  1.886926  0  0  -0.491782  0  2.151143  0  0  -0.518522  0  2.149539  0  0  -0.240898  -0.472854  0  2.151775  0
