# generated using pymatgen
data_CoP2H20(C6O)4
_symmetry_space_group_name_H-M   'P 1'
_cell_length_a   8.96681272
_cell_length_b   12.81513896
_cell_length_c   23.45815501
_cell_angle_alpha   89.99945759
_cell_angle_beta   89.99913259
_cell_angle_gamma   105.21966995
_symmetry_Int_Tables_number   1
_chemical_formula_structural   CoP2H20(C6O)4
_chemical_formula_sum   'Co4 P8 H80 C96 O16'
_cell_volume   2601.05461547
_cell_formula_units_Z   4
loop_
 _symmetry_equiv_pos_site_id
 _symmetry_equiv_pos_as_xyz
  1  'x, y, z'
loop_
 _atom_site_type_symbol
 _atom_site_label
 _atom_site_symmetry_multiplicity
 _atom_site_fract_x
 _atom_site_fract_y
 _atom_site_fract_z
 _atom_site_occupancy
 _atom_site_pbe_bader_charge
 _atom_site_pbe_bader_spin_density
 _atom_site_pbe_cm5_charge
 _atom_site_pbe_ddec_charge
 _atom_site_pbe_ddec_spin_density
 _atom_site_pbe_ddec_sum_bond_order
 _atom_site_pbe_magmom
Co  Co0  1  0.90985324  0.13710346  0.74821144  1  1.308365  2.624934  0.69661  1.123704  2.803969  2.40478  2.575
Co  Co1  1  0.59014534  0.86297857  0.24823764  1  1.308314  2.624998  0.696769  1.124092  2.804056  2.404409  2.575
Co  Co2  1  0.09018753  0.86290610  0.25177944  1  1.308585  2.62494  0.696656  1.12367  2.803948  2.404521  2.575
Co  Co3  1  0.40983889  0.13707119  0.75178776  1  1.308431  2.624936  0.69662  1.123659  2.803959  2.404873  2.575
P  P4  1  0.61756664  0.02137610  0.83095609  1  3.120223  0.011823  0.314021  1.058831  0.013688  5.226389  0.013
P  P5  1  0.88243681  0.97862221  0.33094164  1  3.10426  0.011888  0.314081  1.058973  0.013691  5.226961  0.013
P  P6  1  0.38240036  0.97861787  0.16905141  1  3.120254  0.011828  0.314043  1.058821  0.013692  5.226921  0.013
P  P7  1  0.11759704  0.02137763  0.66904455  1  3.119892  0.011827  0.313916  1.05872  0.013686  5.226412  0.013
P  P8  1  0.22163861  0.29509922  0.80491185  1  3.068422  0.010728  0.317311  1.063039  0.012336  5.183972  0.011
P  P9  1  0.27838743  0.70490091  0.30491093  1  3.069006  0.010731  0.317295  1.063261  0.012336  5.18382  0.011
P  P10  1  0.77839000  0.70484407  0.19509224  1  3.068257  0.010722  0.316775  1.062151  0.012322  5.184783  0.011
P  P11  1  0.72162230  0.29510612  0.69509358  1  3.069125  0.010727  0.317282  1.063014  0.012337  5.183755  0.011
H  H12  1  0.34290944  0.84346233  0.81703932  1  0.083986  0.000206  0.108585  0.116854  -6.6e-05  0.989613  0.0
H  H13  1  0.15712324  0.15656012  0.31703345  1  0.084071  0.000206  0.108578  0.116888  -6.6e-05  0.989507  0.0
H  H14  1  0.65709353  0.15655357  0.18294899  1  0.084143  0.000207  0.10865  0.117026  -6.6e-05  0.989403  0.0
H  H15  1  0.84290154  0.84345746  0.68296808  1  0.08395  0.000206  0.108552  0.116832  -6.6e-05  0.989496  0.0
H  H16  1  0.28470224  0.64720426  0.84316823  1  0.103459  0.000123  0.096346  0.089469  4.3e-05  1.031278  0.0
H  H17  1  0.21532335  0.35283202  0.34316611  1  0.103505  0.000123  0.0963  0.089359  4.3e-05  1.031113  0.0
H  H18  1  0.71531280  0.35282621  0.15682222  1  0.103729  0.000123  0.096356  0.089388  4.3e-05  1.031072  0.0
H  H19  1  0.78470405  0.64720172  0.65683457  1  0.10347  0.000123  0.096329  0.089464  4.3e-05  1.031256  0.0
H  H20  1  0.48119464  0.57751894  0.89401882  1  0.073969  1.4e-05  0.093395  0.084514  0.0  1.050063  0.0
H  H21  1  0.01878039  0.42247950  0.39402003  1  0.074086  1.4e-05  0.093419  0.084642  1e-06  1.050023  0.0
H  H22  1  0.51877109  0.42248067  0.10598016  1  0.074137  1.4e-05  0.093458  0.08459  1e-06  1.050315  0.0
H  H23  1  0.98119458  0.57752096  0.60597767  1  0.073907  1.4e-05  0.093458  0.084636  0.0  1.050012  0.0
H  H24  1  0.73817687  0.70182005  0.91741345  1  0.061041  0.000184  0.097713  0.090636  7.1e-05  1.020354  0.0
H  H25  1  0.76177712  0.29817745  0.41740623  1  0.062028  0.000184  0.097692  0.090641  7.1e-05  1.020374  0.0
H  H26  1  0.26177384  0.29819324  0.08258296  1  0.061478  0.000184  0.097628  0.090566  7.1e-05  1.020185  0.0
H  H27  1  0.23818140  0.70182376  0.58258763  1  0.060733  0.000184  0.097728  0.090633  7.1e-05  1.020325  0.0
H  H28  1  0.79791091  0.89556246  0.88928268  1  0.092887  0.000162  0.109772  0.110823  -9e-06  0.978939  0.0
H  H29  1  0.70209345  0.10442948  0.38926659  1  0.092589  0.000161  0.109727  0.110857  -9e-06  0.978968  0.0
H  H30  1  0.20207158  0.10443721  0.11071629  1  0.092746  0.000162  0.109698  0.110751  -9e-06  0.979  0.0
H  H31  1  0.29791710  0.89556463  0.61072386  1  0.092758  0.000162  0.109765  0.110833  -9e-06  0.978934  0.0
H  H32  1  0.40402482  0.02733515  0.92383569  1  0.084609  3.1e-05  0.106708  0.105124  -4e-05  0.984635  0.0
H  H33  1  0.09600003  0.97265945  0.42383401  1  0.084407  3.1e-05  0.106684  0.104991  -4e-05  0.984629  0.0
H  H34  1  0.59596682  0.97266213  0.07616072  1  0.084785  3.1e-05  0.106683  0.105099  -4e-05  0.984696  0.0
H  H35  1  0.90402778  0.02732099  0.57616837  1  0.084546  3e-05  0.106726  0.105097  -4e-05  0.984626  0.0
H  H36  1  0.42744538  0.14082677  0.01102228  1  0.069002  4.1e-05  0.096858  0.094324  1.7e-05  1.024289  0.0
H  H37  1  0.07260943  0.85919242  0.51103859  1  0.068516  4.1e-05  0.096857  0.094413  1.7e-05  1.023778  0.0
H  H38  1  0.57257977  0.85918273  0.98896135  1  0.068602  4.1e-05  0.096841  0.094436  1.7e-05  1.023894  0.0
H  H39  1  0.92741957  0.14079125  0.48897658  1  0.068996  4.1e-05  0.096803  0.094393  1.7e-05  1.0241  0.0
H  H40  1  0.66990999  0.28190189  0.03060758  1  0.050146  2e-06  0.0908  0.083262  -6e-06  1.055984  0.0
H  H41  1  0.83010274  0.71811640  0.53061759  1  0.049798  2e-06  0.090812  0.083303  -6e-06  1.05598  0.0
H  H42  1  0.33008523  0.71810510  0.96938884  1  0.049958  2e-06  0.090816  0.083281  -6e-06  1.05606  0.0
H  H43  1  0.16987542  0.28187760  0.46937925  1  0.049857  2e-06  0.090806  0.083238  -6e-06  1.055997  0.0
H  H44  1  0.89172562  0.31044448  0.96256293  1  0.067491  9e-06  0.090436  0.086092  -0.0  1.038123  0.0
H  H45  1  0.60826736  0.68953663  0.46257459  1  0.055687  9e-06  0.090448  0.086089  -1e-06  1.037922  0.0
H  H46  1  0.10824248  0.68952526  0.03743135  1  0.067029  9e-06  0.090417  0.086112  -1e-06  1.037702  0.0
H  H47  1  0.39169651  0.31045490  0.53742268  1  0.055472  9e-06  0.090455  0.08619  -1e-06  1.038155  0.0
H  H48  1  0.87005990  0.19605988  0.87588257  1  0.133336  3.7e-05  0.102839  0.113101  -0.000258  1.032154  0.0
H  H49  1  0.62996931  0.80392846  0.37588711  1  0.133753  3.7e-05  0.102719  0.112915  -0.000259  1.03206  0.0
H  H50  1  0.12993307  0.80392287  0.12411641  1  0.133415  3.7e-05  0.102859  0.113171  -0.000258  1.03204  0.0
H  H51  1  0.37005003  0.19608345  0.62410547  1  0.133836  3.7e-05  0.102772  0.112982  -0.000259  1.032058  0.0
H  H52  1  0.10860060  0.31337161  0.68855941  1  0.111268  0.000932  0.102778  0.096882  0.00059  1.046954  0.0
H  H53  1  0.39139919  0.68662338  0.18855197  1  0.111373  0.000931  0.102758  0.096867  0.00059  1.046909  0.0
H  H54  1  0.89141628  0.68663059  0.31145405  1  0.111155  0.00093  0.102815  0.096973  0.000588  1.046689  0.0
H  H55  1  0.60858731  0.31336903  0.81145340  1  0.111072  0.00093  0.102803  0.096918  0.000589  1.046763  0.0
H  H56  1  0.18806689  0.45249139  0.61410028  1  0.053587  2e-06  0.095074  0.087061  -1.5e-05  1.033213  0.0
H  H57  1  0.31192354  0.54749744  0.11409360  1  0.053438  2e-06  0.095063  0.086955  -1.5e-05  1.033332  0.0
H  H58  1  0.81186273  0.54750407  0.38588974  1  0.052818  2e-06  0.095025  0.086878  -1.5e-05  1.033678  0.0
H  H59  1  0.68807666  0.45249582  0.88591049  1  0.053667  2e-06  0.095014  0.086924  -1.5e-05  1.033324  0.0
H  H60  1  0.39909896  0.61998908  0.63327508  1  0.039788  2.8e-05  0.099484  0.091148  5e-06  1.01033  0.0
H  H61  1  0.10088280  0.38001457  0.13327987  1  0.039799  2.8e-05  0.099448  0.091144  4e-06  1.010512  0.0
H  H62  1  0.60086328  0.38001618  0.36673114  1  0.039173  2.8e-05  0.099487  0.091072  5e-06  1.010453  0.0
H  H63  1  0.89911450  0.61998596  0.86672976  1  0.039816  2.8e-05  0.099457  0.091152  4e-06  1.010431  0.0
H  H64  1  0.53407279  0.64334731  0.72718952  1  0.066791  2.9e-05  0.10591  0.107496  1.5e-05  0.984936  0.0
H  H65  1  0.96590840  0.35665201  0.22719530  1  0.066691  2.9e-05  0.105908  0.107501  1.5e-05  0.984856  0.0
H  H66  1  0.46596906  0.35670748  0.27281756  1  0.067448  2.9e-05  0.105957  0.107517  1.5e-05  0.985271  0.0
H  H67  1  0.03408324  0.64334526  0.77281049  1  0.066694  2.9e-05  0.10588  0.107461  1.5e-05  0.984882  0.0
H  H68  1  0.46015960  0.50103233  0.80059016  1  0.075642  2e-06  0.097215  0.087708  -2.6e-05  1.050515  0.0
H  H69  1  0.03984499  0.49897269  0.30059298  1  0.075451  2e-06  0.097148  0.087603  -2.6e-05  1.050659  0.0
H  H70  1  0.53987984  0.49897965  0.19941222  1  0.075273  2e-06  0.09722  0.08764  -2.6e-05  1.05073  0.0
H  H71  1  0.96014665  0.50102459  0.69941111  1  0.075678  2e-06  0.097145  0.087621  -2.6e-05  1.050768  0.0
H  H72  1  0.05872860  0.44144949  0.85424489  1  0.099348  0.000152  0.101136  0.098597  2e-06  1.0429  0.0
H  H73  1  0.44127191  0.55852907  0.35424635  1  0.100697  0.000151  0.101115  0.098557  2e-06  1.042875  0.0
H  H74  1  0.94129422  0.55853255  0.14574556  1  0.100915  0.000152  0.101099  0.098534  2e-06  1.042993  0.0
H  H75  1  0.55871927  0.44146093  0.64575518  1  0.100633  0.000152  0.101086  0.098503  2e-06  1.042931  0.0
H  H76  1  0.07535822  0.53206556  0.94852866  1  0.059493  0.000173  0.099863  0.094094  6.4e-05  1.011204  0.0
H  H77  1  0.42463376  0.46792425  0.44853496  1  0.05946  0.000173  0.099798  0.094027  6.3e-05  1.011135  0.0
H  H78  1  0.92460863  0.46793406  0.05146349  1  0.059529  0.000173  0.099781  0.094002  6.3e-05  1.011559  0.0
H  H79  1  0.57536413  0.53206578  0.55147254  1  0.059613  0.000173  0.099792  0.093996  6.3e-05  1.011297  0.0
H  H80  1  0.26347934  0.50365229  0.02107162  1  0.063777  1.2e-05  0.097578  0.090099  -4e-06  1.027221  0.0
H  H81  1  0.23649472  0.49636072  0.52106969  1  0.063692  1.2e-05  0.097562  0.090109  -4e-06  1.027372  0.0
H  H82  1  0.73648721  0.49634652  0.97892522  1  0.063571  1.2e-05  0.097572  0.090136  -4e-06  1.027134  0.0
H  H83  1  0.76349708  0.50365513  0.47893014  1  0.063639  1.2e-05  0.097631  0.09023  -4e-06  1.02718  0.0
H  H84  1  0.43438468  0.38322023  0.99893521  1  0.082784  0.000114  0.097024  0.092259  3.8e-05  1.042955  0.0
H  H85  1  0.06560103  0.61679732  0.49893769  1  0.082663  0.000114  0.096971  0.092258  3.8e-05  1.042893  0.0
H  H86  1  0.56561873  0.61679082  0.00108252  1  0.08278  0.000114  0.097009  0.092245  3.8e-05  1.042994  0.0
H  H87  1  0.93438928  0.38321449  0.50106554  1  0.082813  0.000114  0.097012  0.092275  3.8e-05  1.042891  0.0
H  H88  1  0.41873238  0.29391750  0.90423239  1  0.120915  0.000253  0.104468  0.111257  -1.4e-05  1.017348  0.0
H  H89  1  0.08127401  0.70609451  0.40422920  1  0.120871  0.000252  0.10435  0.111146  -1.4e-05  1.017257  0.0
H  H90  1  0.58128718  0.70609199  0.09578406  1  0.121087  0.000252  0.104427  0.111244  -1.4e-05  1.017101  0.0
H  H91  1  0.91872180  0.29391409  0.59576935  1  0.120991  0.000252  0.104453  0.111278  -1.4e-05  1.017292  0.0
C  C92  1  0.42795289  0.81133625  0.83935549  1  -0.016046  0.001595  -0.077977  -0.067058  0.000718  3.965384  0.001
C  C93  1  0.07205768  0.18867100  0.33935293  1  -0.015577  0.001598  -0.077965  -0.067037  0.00072  3.964518  0.001
C  C94  1  0.57201462  0.18865610  0.16063325  1  -0.015546  0.001596  -0.07813  -0.067535  0.000719  3.965023  0.001
C  C95  1  0.92795176  0.81133522  0.66064733  1  -0.015896  0.001593  -0.077967  -0.067054  0.000717  3.965163  0.001
C  C96  1  0.39619057  0.70209951  0.85390518  1  -0.110946  2.9e-05  -0.092616  -0.088319  -0.00011  4.017333  0.0
C  C97  1  0.10380321  0.29792427  0.35389675  1  -0.111184  2.8e-05  -0.09263  -0.088244  -0.000111  4.016575  0.0
C  C98  1  0.60379505  0.29791471  0.14609379  1  -0.11093  2.8e-05  -0.092579  -0.088068  -0.00011  4.01619  0.0
C  C99  1  0.89619380  0.70209968  0.64609669  1  -0.110986  2.9e-05  -0.092589  -0.088274  -0.000109  4.017304  0.0
C  C100  1  0.50741670  0.66268427  0.88211946  1  -0.093262  0.000704  -0.090765  -0.081789  0.000354  4.003507  0.0
C  C101  1  0.99257819  0.33731752  0.38212775  1  -0.092715  0.000706  -0.090855  -0.082111  0.000355  4.003481  0.0
C  C102  1  0.49258478  0.33732758  0.11786545  1  -0.093104  0.000702  -0.090942  -0.082002  0.000353  4.003497  0.0
C  C103  1  0.00741851  0.66268139  0.61787847  1  -0.093102  0.000702  -0.090836  -0.081974  0.000353  4.003655  0.0
C  C104  1  0.65154959  0.73234000  0.89517573  1  -0.045511  0.0003  -0.092991  -0.091997  0.000102  4.02026  0.0
C  C105  1  0.84842068  0.26766298  0.39516262  1  -0.047295  0.000299  -0.092895  -0.091741  0.000101  4.019682  0.0
C  C106  1  0.34842665  0.26767904  0.10482964  1  -0.046803  0.0003  -0.092853  -0.09183  0.000102  4.019342  0.0
C  C107  1  0.15155123  0.73233827  0.60482569  1  -0.04529  0.0003  -0.09303  -0.091926  0.000102  4.020134  0.0
C  C108  1  0.68462911  0.84126858  0.88010553  1  -0.065184  0.001723  -0.077367  -0.066079  0.000823  3.979171  0.001
C  C109  1  0.81538381  0.15872444  0.38009490  1  -0.064969  0.001725  -0.077497  -0.066457  0.000824  3.979232  0.001
C  C110  1  0.31536431  0.15873355  0.11989600  1  -0.065352  0.001724  -0.077318  -0.066219  0.000824  3.97877  0.001
C  C111  1  0.18463344  0.84126969  0.61989811  1  -0.065145  0.001722  -0.077311  -0.066088  0.000822  3.979003  0.001
C  C112  1  0.57237136  0.88126432  0.85246249  1  -0.551499  0.010782  -0.024205  -0.159483  0.004795  3.983378  0.007
C  C113  1  0.92764627  0.11870521  0.35246377  1  -0.535527  0.010717  -0.02399  -0.159326  0.004793  3.98347  0.007
C  C114  1  0.42760626  0.11869495  0.14752966  1  -0.551768  0.010773  -0.024112  -0.159159  0.00479  3.983452  0.007
C  C115  1  0.07237409  0.88126713  0.64753946  1  -0.551355  0.010779  -0.024191  -0.159458  0.004794  3.983287  0.007
C  C116  1  0.51098057  0.08932937  0.93238960  1  -0.054496  0.000127  -0.07824  -0.06278  -9.5e-05  3.981634  0.0
C  C117  1  0.98902433  0.91066872  0.43238725  1  -0.055439  0.000129  -0.078167  -0.062461  -9.4e-05  3.980637  0.0
C  C118  1  0.48899350  0.91066866  0.06761107  1  -0.054664  0.000128  -0.078282  -0.062683  -9.4e-05  3.980971  0.0
C  C119  1  0.01098383  0.08931892  0.56761172  1  -0.05501  0.000128  -0.07828  -0.06285  -9.4e-05  3.981669  0.0
C  C120  1  0.52363307  0.15314585  0.98117840  1  -0.085727  0.000337  -0.092369  -0.082067  0.000164  4.001309  0.0
C  C121  1  0.97638685  0.84685586  0.48118797  1  -0.084965  0.000338  -0.09241  -0.082475  0.000165  4.000465  0.0
C  C122  1  0.47637249  0.84684986  0.01881418  1  -0.084624  0.000336  -0.092441  -0.082626  0.000164  4.000815  0.0
C  C123  1  0.02361721  0.15312369  0.51881868  1  -0.085546  0.000337  -0.092408  -0.082181  0.000164  4.001107  0.0
C  C124  1  0.66057744  0.23283811  0.99214968  1  -0.015686  -0.000232  -0.095528  -0.086828  -0.000261  4.007995  0.0
C  C125  1  0.83942950  0.76716892  0.49216130  1  -0.015276  -0.000233  -0.095408  -0.086688  -0.000262  4.008088  0.0
C  C126  1  0.33941592  0.76717290  0.00783736  1  -0.015702  -0.000231  -0.095352  -0.086433  -0.00026  4.008004  0.0
C  C127  1  0.16054568  0.23281699  0.50783682  1  -0.015545  -0.000231  -0.095317  -0.086573  -0.00026  4.008257  0.0
C  C128  1  0.78465403  0.24845067  0.95424689  1  -0.06616  0.000214  -0.098804  -0.090352  0.000102  4.012811  0.0
C  C129  1  0.71536505  0.75154285  0.45424994  1  -0.05417  0.000214  -0.098895  -0.09037  0.000102  4.012371  0.0
C  C130  1  0.21534274  0.75152724  0.04574952  1  -0.065949  0.000214  -0.098771  -0.090476  0.000102  4.012114  0.0
C  C131  1  0.28462130  0.24845521  0.54574051  1  -0.053499  0.000213  -0.098937  -0.090669  0.000102  4.013294  0.0
C  C132  1  0.77316630  0.18414862  0.90548538  1  -0.085004  -7.3e-05  -0.083598  -0.06778  -0.000157  3.964771  0.0
C  C133  1  0.72687820  0.81586322  0.40548716  1  -0.086228  -7.5e-05  -0.083496  -0.067694  -0.000159  3.964358  0.0
C  C134  1  0.22684714  0.81583823  0.09451616  1  -0.085134  -7.2e-05  -0.083768  -0.068006  -0.000156  3.964451  0.0
C  C135  1  0.27315171  0.18415922  0.59450542  1  -0.086008  -7.3e-05  -0.083591  -0.067628  -0.000157  3.964786  0.0
C  C136  1  0.63586224  0.10422497  0.89439559  1  -0.555976  0.002037  -0.031531  -0.186658  0.000459  4.011575  0.001
C  C137  1  0.86416079  0.89580001  0.39437784  1  -0.554664  0.002046  -0.031619  -0.186724  0.000464  4.011157  0.001
C  C138  1  0.36411326  0.89579810  0.10561233  1  -0.556115  0.002038  -0.031401  -0.186426  0.00046  4.011172  0.001
C  C139  1  0.13586653  0.10423050  0.60560579  1  -0.555479  0.002039  -0.031508  -0.186604  0.00046  4.011724  0.001
C  C140  1  0.20424927  0.38416575  0.69683923  1  0.003079  0.000461  -0.077653  -0.058416  0.00018  3.967048  0.0
C  C141  1  0.29574452  0.61582902  0.19683783  1  0.002844  0.00046  -0.077561  -0.058371  0.00018  3.966985  0.0
C  C142  1  0.79576887  0.61583081  0.30317296  1  0.00396  0.000459  -0.077703  -0.058713  0.000179  3.967227  0.0
C  C143  1  0.70424734  0.38416584  0.80317223  1  0.004177  0.000459  -0.077854  -0.05882  0.00018  3.966965  0.0
C  C144  1  0.24823548  0.46369503  0.65496007  1  -0.048801  0.000423  -0.093285  -0.090319  0.000169  4.005837  0.0
C  C145  1  0.25175993  0.53630567  0.15495720  1  -0.048744  0.000423  -0.093295  -0.090229  0.000169  4.005889  0.0
C  C146  1  0.75174565  0.53629494  0.34503848  1  -0.048498  0.000421  -0.093368  -0.090087  0.000168  4.006548  0.0
C  C147  1  0.74824697  0.46369973  0.84504902  1  -0.049528  0.000423  -0.093206  -0.090147  0.000169  4.005659  0.0
C  C148  1  0.36624242  0.55718874  0.66569519  1  -0.082667  -0.000297  -0.089328  -0.08098  -0.000352  4.017181  0.0
C  C149  1  0.13375552  0.44281089  0.16569350  1  -0.082769  -0.000299  -0.089317  -0.080948  -0.000353  4.017443  0.0
C  C150  1  0.63371744  0.44282217  0.33431700  1  -0.082495  -0.000294  -0.089219  -0.080902  -0.000349  4.017631  0.0
C  C151  1  0.86626374  0.55719779  0.83430803  1  -0.082655  -0.000298  -0.089283  -0.081023  -0.000353  4.017272  0.0
C  C152  1  0.44237093  0.57042439  0.71824255  1  -0.061711  0.000312  -0.089599  -0.084582  0.000138  3.992809  0.0
C  C153  1  0.05762076  0.42957303  0.21823838  1  -0.061722  0.000312  -0.089606  -0.084623  0.000138  3.99264  0.0
C  C154  1  0.55765683  0.42958916  0.28176666  1  -0.061845  0.00031  -0.089762  -0.084647  0.000137  3.993791  0.0
C  C155  1  0.94237891  0.57042185  0.78175889  1  -0.061778  0.000312  -0.089607  -0.084497  0.000138  3.992837  0.0
C  C156  1  0.39999895  0.49027051  0.75983439  1  -0.030309  8.9e-05  -0.081349  -0.065286  -7.8e-05  3.988852  0.0
C  C157  1  0.09998986  0.50972663  0.25983382  1  -0.030004  8.8e-05  -0.081276  -0.065218  -7.9e-05  3.988617  0.0
C  C158  1  0.60001457  0.50971957  0.24017439  1  -0.029804  9e-05  -0.081294  -0.065307  -7.7e-05  3.989664  0.0
C  C159  1  0.89998911  0.49025445  0.74017070  1  -0.030117  8.8e-05  -0.081266  -0.065394  -7.9e-05  3.989057  0.0
C  C160  1  0.27978900  0.39713855  0.74978304  1  -0.579821  0.000774  -0.027025  -0.176015  -0.000241  3.983682  0.0
C  C161  1  0.22021401  0.60285971  0.24978811  1  -0.57963  0.000777  -0.027112  -0.176138  -0.000239  3.983566  0.0
C  C162  1  0.72019823  0.60283771  0.25023896  1  -0.580872  0.000772  -0.026925  -0.175506  -0.000242  3.984103  0.0
C  C163  1  0.77976446  0.39713510  0.75022195  1  -0.580355  0.000775  -0.02683  -0.175535  -0.00024  3.983542  0.0
C  C164  1  0.14230447  0.42999756  0.88575397  1  -0.050162  0.001828  -0.077237  -0.062204  0.000887  3.962888  0.001
C  C165  1  0.35768206  0.56999790  0.38575288  1  -0.051708  0.001829  -0.077195  -0.062238  0.000888  3.962551  0.001
C  C166  1  0.85771225  0.56998607  0.11424330  1  -0.051642  0.001827  -0.077244  -0.062495  0.000887  3.963567  0.001
C  C167  1  0.64230773  0.43001552  0.61424780  1  -0.051768  0.001827  -0.077155  -0.062079  0.000887  3.962686  0.001
C  C168  1  0.15083898  0.47997912  0.93893319  1  -0.060884  0.000219  -0.092556  -0.094488  3.1e-05  4.018357  0.0
C  C169  1  0.34914775  0.52001658  0.43893923  1  -0.060846  0.000218  -0.092609  -0.094572  3e-05  4.017942  0.0
C  C170  1  0.84914938  0.52000927  0.06106450  1  -0.061434  0.000218  -0.092621  -0.09441  3e-05  4.018933  0.0
C  C171  1  0.65085029  0.47997992  0.56106316  1  -0.061702  0.000219  -0.092625  -0.094561  3.1e-05  4.018362  0.0
C  C172  1  0.25614032  0.46354033  0.97972813  1  -0.070012  0.001148  -0.090829  -0.088194  0.000581  4.013481  0.001
C  C173  1  0.24383024  0.53644617  0.47972829  1  -0.069978  0.001147  -0.090762  -0.088028  0.00058  4.013682  0.001
C  C174  1  0.74386651  0.53646184  0.02026786  1  -0.06589  0.001147  -0.090841  -0.088169  0.000581  4.013608  0.001
C  C175  1  0.75614545  0.46352602  0.52026727  1  -0.068729  0.001147  -0.090762  -0.088161  0.00058  4.013481  0.001
C  C176  1  0.35268522  0.39682364  0.96724366  1  -0.066291  -6.1e-05  -0.094075  -0.0943  -0.000208  4.010815  0.0
C  C177  1  0.14731336  0.60317701  0.46724702  1  -0.066247  -6.1e-05  -0.093978  -0.094319  -0.000209  4.01066  0.0
C  C178  1  0.64731162  0.60315750  0.03276043  1  -0.070028  -5.9e-05  -0.094049  -0.09435  -0.000207  4.011363  0.0
C  C179  1  0.85269473  0.39681952  0.53276133  1  -0.066174  -6e-05  -0.094041  -0.094287  -0.000208  4.01086  0.0
C  C180  1  0.34530175  0.34725059  0.91392760  1  -0.080199  0.002024  -0.079293  -0.067068  0.000923  3.957372  0.001
C  C181  1  0.15472307  0.65275800  0.41392682  1  -0.079708  0.002025  -0.079169  -0.066996  0.000924  3.956822  0.001
C  C182  1  0.65470485  0.65274190  0.08607265  1  -0.080381  0.002024  -0.079255  -0.067132  0.000923  3.957169  0.001
C  C183  1  0.84529433  0.34725471  0.58608068  1  -0.080492  0.002024  -0.079379  -0.067216  0.000923  3.957479  0.001
C  C184  1  0.24007913  0.36386652  0.87292762  1  -0.544282  0.010619  -0.022672  -0.155814  0.004786  3.959757  0.007
C  C185  1  0.25992069  0.63613336  0.37291310  1  -0.544733  0.010609  -0.022634  -0.15579  0.004779  3.959851  0.007
C  C186  1  0.75995858  0.63611960  0.12705984  1  -0.543535  0.010613  -0.022498  -0.155132  0.004784  3.959728  0.007
C  C187  1  0.74005911  0.36387115  0.62707649  1  -0.54435  0.010619  -0.02266  -0.155759  0.004785  3.959714  0.007
O  O188  1  0.77464862  0.04600600  0.80194008  1  -1.426788  0.080249  -0.370124  -0.728501  0.039683  2.430557  0.055
O  O189  1  0.72535685  0.95398257  0.30192666  1  -1.426793  0.080377  -0.370109  -0.72852  0.039741  2.431357  0.055
O  O190  1  0.22532367  0.95399929  0.19804739  1  -1.426573  0.080228  -0.370062  -0.728373  0.039677  2.43138  0.055
O  O191  1  0.27468354  0.04601083  0.69804972  1  -1.426621  0.080268  -0.370061  -0.728375  0.039693  2.430815  0.055
O  O192  1  0.05046798  0.23951340  0.79699882  1  -1.421115  0.075586  -0.366656  -0.734296  0.037627  2.438166  0.052
O  O193  1  0.44954626  0.76050224  0.29698896  1  -1.420927  0.075564  -0.366682  -0.734484  0.037619  2.438085  0.052
O  O194  1  0.94956908  0.76049210  0.20300740  1  -1.421008  0.075674  -0.366664  -0.734305  0.03767  2.437778  0.052
O  O195  1  0.55045106  0.23952252  0.70300661  1  -1.421205  0.075575  -0.36669  -0.734364  0.037619  2.43785  0.052
O  O196  1  0.97900204  0.03251453  0.70391732  1  -1.417636  0.081204  -0.368004  -0.730104  0.040007  2.420126  0.056
O  O197  1  0.52104603  0.96749128  0.20391056  1  -1.417646  0.081265  -0.368165  -0.730172  0.040039  2.420099  0.056
O  O198  1  0.02110277  0.96752351  0.29610808  1  -1.417664  0.081147  -0.368122  -0.729957  0.039963  2.419912  0.056
O  O199  1  0.47896086  0.03250201  0.79609055  1  -1.417669  0.08124  -0.368165  -0.730115  0.040019  2.420435  0.056
O  O200  1  0.83214572  0.22237918  0.69292363  1  -1.407741  0.077884  -0.366085  -0.734481  0.038571  2.418979  0.054
O  O201  1  0.66794197  0.77760282  0.19291317  1  -1.407191  0.07767  -0.365738  -0.734387  0.038476  2.418866  0.054
O  O202  1  0.16783274  0.77760352  0.30708430  1  -1.407808  0.07788  -0.366175  -0.734633  0.038572  2.418795  0.054
O  O203  1  0.33216259  0.22237706  0.80707685  1  -1.407266  0.077854  -0.366086  -0.734525  0.03856  2.418869  0.054
