# generated using pymatgen
data_CdB2H14(C2N3)6
_symmetry_space_group_name_H-M   'P 1'
_cell_length_a   8.73869087
_cell_length_b   8.73869952
_cell_length_c   15.61453915
_cell_angle_alpha   102.31116165
_cell_angle_beta   102.31119280
_cell_angle_gamma   100.96667145
_symmetry_Int_Tables_number   1
_chemical_formula_structural   CdB2H14(C2N3)6
_chemical_formula_sum   'Cd2 B4 H28 C24 N36'
_cell_volume   1102.94551997
_cell_formula_units_Z   2
loop_
 _symmetry_equiv_pos_site_id
 _symmetry_equiv_pos_as_xyz
  1  'x, y, z'
loop_
 _atom_site_type_symbol
 _atom_site_label
 _atom_site_symmetry_multiplicity
 _atom_site_fract_x
 _atom_site_fract_y
 _atom_site_fract_z
 _atom_site_occupancy
 _atom_site_hle17_bader_spin_density
 _atom_site_hle17_ddec_charge
 _atom_site_hle17_ddec_spin_density
 _atom_site_hle17_ddec_sum_bond_order
 _atom_site_hle17_magmom
 _atom_site_hse06_10hf_bader_spin_density
 _atom_site_hse06_10hf_ddec_charge
 _atom_site_hse06_10hf_ddec_spin_density
 _atom_site_hse06_10hf_ddec_sum_bond_order
 _atom_site_hse06_10hf_magmom
 _atom_site_hse06_bader_spin_density
 _atom_site_hse06_ddec_charge
 _atom_site_hse06_ddec_spin_density
 _atom_site_hse06_ddec_sum_bond_order
 _atom_site_hse06_magmom
 _atom_site_pbe_bader_spin_density
 _atom_site_pbe_cm5_charge
 _atom_site_pbe_ddec_charge
 _atom_site_pbe_ddec_spin_density
 _atom_site_pbe_ddec_sum_bond_order
 _atom_site_pbe_magmom
Cd  Cd0  1  0.49999998  0.00000009  0.50000006  1  0  0.910538  0  1.918675  0  0  0.680647  0  2.375454  0  0  0.727812  0  2.338508  0  0  0.80597  0.647647  0  2.400375  0
Cd  Cd1  1  0.99999953  0.49999970  0.99999999  1  0  0.910547  0  1.91865  0  0  0.680665  0  2.375409  0  0  0.72783  0  2.338463  0  0  0.805979  0.647666  0  2.400329  0
B  B2  1  0.13873715  0.41508414  0.65149237  1  0  0.497113  0  3.179135  0  0  0.314333  0  3.499974  0  0  0.333639  0  3.500145  0  0  -0.045296  0.300809  0  3.500738  0
B  B3  1  0.58491700  0.86126344  0.84850790  1  0  0.497086  0  3.179203  0  0  0.314315  0  3.500005  0  0  0.333625  0  3.500171  0  0  -0.045329  0.30079  0  3.500768  0
B  B4  1  0.86126196  0.58491507  0.34850749  1  0  0.497114  0  3.179164  0  0  0.314312  0  3.500031  0  0  0.333626  0  3.500182  0  0  -0.04531  0.300786  0  3.500797  0
B  B5  1  0.41508358  0.13873698  0.15149292  1  0  0.497127  0  3.179126  0  0  0.314336  0  3.499972  0  0  0.33365  0  3.500123  0  0  -0.045311  0.300811  0  3.500737  0
H  H6  1  0.06656677  0.35570505  0.45377833  1  0  0.117698  0  0.935936  0  0  0.13099  0  0.990372  0  0  0.133788  0  0.988896  0  0  0.130916  0.128953  0  0.991551  0
H  H7  1  0.64429442  0.93343160  0.04622141  1  0  0.117691  0  0.935899  0  0  0.13096  0  0.990367  0  0  0.133757  0  0.988891  0  0  0.130901  0.128923  0  0.991545  0
H  H8  1  0.93343233  0.64429417  0.54622153  1  0  0.117677  0  0.935924  0  0  0.13097  0  0.990357  0  0  0.133766  0  0.988883  0  0  0.130909  0.128933  0  0.991535  0
H  H9  1  0.35570438  0.06656641  0.95377891  1  0  0.117711  0  0.935913  0  0  0.130985  0  0.99037  0  0  0.133781  0  0.988895  0  0  0.130912  0.128947  0  0.991549  0
H  H10  1  0.75469328  0.15176449  0.36686425  1  0  0.111683  0  0.966489  0  0  0.11535  0  1.0372  0  0  0.119119  0  1.033974  0  0  0.119435  0.11261  0  1.039646  0
H  H11  1  0.84823535  0.24530627  0.13313576  1  0  0.111699  0  0.966478  0  0  0.115379  0  1.03718  0  0  0.119149  0  1.033952  0  0  0.119442  0.112638  0  1.039625  0
H  H12  1  0.24530613  0.84823593  0.63313579  1  0  0.111702  0  0.966487  0  0  0.115359  0  1.037206  0  0  0.119127  0  1.033981  0  0  0.11944  0.112619  0  1.039652  0
H  H13  1  0.15176493  0.75469294  0.86686360  1  0  0.111678  0  0.966489  0  0  0.115343  0  1.037207  0  0  0.119111  0  1.033981  0  0  0.119432  0.112602  0  1.039653  0
H  H14  1  0.10351634  0.15316964  0.88616979  1  0  0.108902  0  0.960914  0  0  0.115427  0  1.026954  0  0  0.117883  0  1.026495  0  0  0.120272  0.11363  0  1.027452  0
H  H15  1  0.84683259  0.89648381  0.61382930  1  0  0.108942  0  0.960859  0  0  0.115432  0  1.026935  0  0  0.117887  0  1.026476  0  0  0.120268  0.113635  0  1.027432  0
H  H16  1  0.89648454  0.84683200  0.11382929  1  0  0.108896  0  0.960932  0  0  0.115421  0  1.02697  0  0  0.117875  0  1.026512  0  0  0.120282  0.113623  0  1.027469  0
H  H17  1  0.15316915  0.10351662  0.38617038  1  0  0.108897  0  0.960887  0  0  0.115433  0  1.026923  0  0  0.117867  0  1.026487  0  0  0.12027  0.11363  0  1.027429  0
H  H18  1  0.17706412  0.12939806  0.71644267  1  0  0.119886  0  0.947614  0  0  0.12811  0  1.01139  0  0  0.131407  0  1.00847  0  0  0.130593  0.125707  0  1.013544  0
H  H19  1  0.87060195  0.82293503  0.78355733  1  0  0.119933  0  0.947589  0  0  0.128152  0  1.011372  0  0  0.13145  0  1.00845  0  0  0.130597  0.125749  0  1.013525  0
H  H20  1  0.82293616  0.87060116  0.28355733  1  0  0.119896  0  0.947618  0  0  0.128121  0  1.011396  0  0  0.131419  0  1.008475  0  0  0.130594  0.125718  0  1.01355  0
H  H21  1  0.12939950  0.17706419  0.21644281  1  0  0.119895  0  0.947628  0  0  0.128117  0  1.011408  0  0  0.131415  0  1.008488  0  0  0.130588  0.125715  0  1.013562  0
H  H22  1  0.65213887  0.43172647  0.59365576  1  0  0.112027  0  0.951267  0  0  0.120061  0  1.012309  0  0  0.122888  0  1.011151  0  0  0.121182  0.118033  0  1.013241  0
H  H23  1  0.56827305  0.34786091  0.90634363  1  0  0.112062  0  0.951194  0  0  0.120083  0  1.012255  0  0  0.122908  0  1.011101  0  0  0.121186  0.118053  0  1.013187  0
H  H24  1  0.34786053  0.56827396  0.40634364  1  0  0.112021  0  0.951279  0  0  0.120055  0  1.01232  0  0  0.122881  0  1.011163  0  0  0.121178  0.118026  0  1.013252  0
H  H25  1  0.43172635  0.65213951  0.09365577  1  0  0.112075  0  0.951172  0  0  0.120094  0  1.01223  0  0  0.122921  0  1.01107  0  0  0.121195  0.118065  0  1.013162  0
H  H26  1  0.44419337  0.62003218  0.64939101  1  0  0.119723  0  0.968788  0  0  0.12556  0  1.036027  0  0  0.127854  0  1.03529  0  0  0.128624  0.123881  0  1.036607  0
H  H27  1  0.37996794  0.55580832  0.85060993  1  0  0.119739  0  0.968776  0  0  0.125582  0  1.036002  0  0  0.127876  0  1.035264  0  0  0.128633  0.123903  0  1.036582  0
H  H28  1  0.55580633  0.37996946  0.35060921  1  0  0.119708  0  0.968842  0  0  0.125573  0  1.036044  0  0  0.127867  0  1.035307  0  0  0.128626  0.123894  0  1.036625  0
H  H29  1  0.62003117  0.44419090  0.14938994  1  0  0.119654  0  0.968866  0  0  0.125571  0  1.036009  0  0  0.127865  0  1.035271  0  0  0.128638  0.123892  0  1.03659  0
H  H30  1  0.14551175  0.55766927  0.66630839  1  0  -0.204764  0  0.922075  0  0  -0.165483  0  1.014519  0  0  -0.169643  0  1.013248  0  0  0.060436  -0.162541  0  1.015385  0
H  H31  1  0.44233079  0.85448719  0.83369154  1  0  -0.204765  0  0.922065  0  0  -0.165483  0  1.014509  0  0  -0.169644  0  1.013238  0  0  0.060438  -0.162541  0  1.015375  0
H  H32  1  0.85448736  0.44232995  0.33369147  1  0  -0.204774  0  0.922078  0  0  -0.165485  0  1.014525  0  0  -0.169646  0  1.013252  0  0  0.060431  -0.162542  0  1.015391  0
H  H33  1  0.55766832  0.14551203  0.16630768  1  0  -0.204764  0  0.922073  0  0  -0.165474  0  1.014517  0  0  -0.169635  0  1.013245  0  0  0.060444  -0.162531  0  1.015383  0
C  C34  1  0.97356547  0.29663842  0.48022555  1  0  -0.026365  0  3.698817  0  0  -0.073936  0  3.963627  0  0  -0.070764  0  3.980111  0  0  0.022675  -0.075926  0  3.952477  0
C  C35  1  0.70336111  0.02643300  0.01977430  1  0  -0.026276  0  3.698671  0  0  -0.073825  0  3.963483  0  0  -0.070653  0  3.979969  0  0  0.022698  -0.075815  0  3.952332  0
C  C36  1  0.02643481  0.70336080  0.51977509  1  0  -0.026288  0  3.698706  0  0  -0.073849  0  3.963508  0  0  -0.070677  0  3.979994  0  0  0.022684  -0.07584  0  3.952359  0
C  C37  1  0.29663917  0.97356622  0.98022570  1  0  -0.026348  0  3.698736  0  0  -0.073904  0  3.963554  0  0  -0.070732  0  3.98004  0  0  0.022676  -0.075894  0  3.952402  0
C  C38  1  0.82157763  0.19629809  0.43785182  1  0  -0.027665  0  3.747298  0  0  -0.063854  0  4.021695  0  0  -0.064075  0  4.039844  0  0  0.005031  -0.063809  0  4.009556  0
C  C39  1  0.80370179  0.17842085  0.06214807  1  0  -0.02768  0  3.747203  0  0  -0.063888  0  4.021599  0  0  -0.06411  0  4.039749  0  0  0.005038  -0.063842  0  4.009458  0
C  C40  1  0.17842148  0.80370113  0.56214804  1  0  -0.027687  0  3.747258  0  0  -0.063866  0  4.02166  0  0  -0.064087  0  4.039809  0  0  0.005037  -0.063821  0  4.00952  0
C  C41  1  0.19629849  0.82157837  0.93785193  1  0  -0.027665  0  3.747262  0  0  -0.063852  0  4.021653  0  0  -0.064073  0  4.039803  0  0  0.005037  -0.063806  0  4.009511  0
C  C42  1  0.10597718  0.23534097  0.84314700  1  0  -0.027879  0  3.743266  0  0  -0.062626  0  4.013202  0  0  -0.063541  0  4.033024  0  0  0.005735  -0.062124  0  3.999877  0
C  C43  1  0.76466162  0.89402184  0.65685327  1  0  -0.027862  0  3.743217  0  0  -0.062569  0  4.01314  0  0  -0.063486  0  4.032963  0  0  0.005754  -0.062071  0  3.999821  0
C  C44  1  0.89402282  0.76466188  0.15685404  1  0  -0.027936  0  3.743319  0  0  -0.062686  0  4.013258  0  0  -0.063602  0  4.033081  0  0  0.005697  -0.062186  0  3.999938  0
C  C45  1  0.23534013  0.10597859  0.34314769  1  0  -0.027862  0  3.743142  0  0  -0.062623  0  4.013072  0  0  -0.063518  0  4.032905  0  0  0.005728  -0.062117  0  3.999754  0
C  C46  1  0.14091160  0.22200379  0.76015162  1  0  -0.011278  0  3.669903  0  0  -0.057516  0  3.929182  0  0  -0.053903  0  3.945106  0  0  0.029085  -0.05975  0  3.918416  0
C  C47  1  0.77799836  0.85908917  0.73984817  1  0  -0.011408  0  3.669915  0  0  -0.05765  0  3.929198  0  0  -0.054037  0  3.945121  0  0  0.029059  -0.059885  0  3.918432  0
C  C48  1  0.85908897  0.77799664  0.23984856  1  0  -0.011266  0  3.669868  0  0  -0.057506  0  3.929148  0  0  -0.053894  0  3.945073  0  0  0.029082  -0.059741  0  3.918384  0
C  C49  1  0.22200222  0.14091126  0.26015137  1  0  -0.011276  0  3.669793  0  0  -0.057511  0  3.929074  0  0  -0.053898  0  3.944993  0  0  0.029101  -0.059746  0  3.918308  0
C  C50  1  0.53081236  0.39749293  0.60099547  1  0  -0.023742  0  3.737467  0  0  -0.06074  0  4.007999  0  0  -0.061541  0  4.026764  0  0  0.006863  -0.060378  0  3.995432  0
C  C51  1  0.60250603  0.46918996  0.89900415  1  0  -0.023789  0  3.737473  0  0  -0.060772  0  4.008002  0  0  -0.061574  0  4.026764  0  0  0.006849  -0.060409  0  3.995434  0
C  C52  1  0.46918674  0.60250628  0.39900439  1  0  -0.023764  0  3.737432  0  0  -0.06076  0  4.007967  0  0  -0.061561  0  4.026732  0  0  0.006853  -0.060397  0  3.995401  0
C  C53  1  0.39749425  0.53080926  0.10099586  1  0  -0.023807  0  3.737488  0  0  -0.06078  0  4.008027  0  0  -0.061581  0  4.02679  0  0  0.006857  -0.060417  0  3.995459  0
C  C54  1  0.43056782  0.49065886  0.62907737  1  0  -0.013105  0  3.670643  0  0  -0.057647  0  3.930031  0  0  -0.053745  0  3.947323  0  0  0.026073  -0.060059  0  3.918285  0
C  C55  1  0.50934237  0.56943454  0.87092443  1  0  -0.013128  0  3.670719  0  0  -0.057678  0  3.930116  0  0  -0.053774  0  3.947407  0  0  0.026055  -0.06009  0  3.918369  0
C  C56  1  0.56943276  0.50934156  0.37092346  1  0  -0.013101  0  3.670725  0  0  -0.05767  0  3.930105  0  0  -0.053768  0  3.947398  0  0  0.026046  -0.060083  0  3.918361  0
C  C57  1  0.49065673  0.43056468  0.12907479  1  0  -0.013012  0  3.670752  0  0  -0.05762  0  3.930109  0  0  -0.053718  0  3.947401  0  0  0.026039  -0.060031  0  3.918363  0
N  N58  1  0.75574764  0.15773201  0.50433731  1  0  -0.224074  0  3.213514  0  0  -0.160531  0  3.506207  0  0  -0.172752  0  3.522466  0  0  -0.223677  -0.15197  0  3.494878  0
N  N59  1  0.84226778  0.24425254  0.99566284  1  0  -0.224093  0  3.213459  0  0  -0.16055  0  3.506153  0  0  -0.172771  0  3.522413  0  0  -0.22368  -0.151989  0  3.494824  0
N  N60  1  0.24425147  0.84226720  0.49566256  1  0  -0.224098  0  3.21346  0  0  -0.160556  0  3.506153  0  0  -0.172776  0  3.522412  0  0  -0.223683  -0.151995  0  3.494825  0
N  N61  1  0.15773163  0.75574788  0.00433720  1  0  -0.224073  0  3.213514  0  0  -0.16053  0  3.506205  0  0  -0.172751  0  3.522465  0  0  -0.223671  -0.151969  0  3.494875  0
N  N62  1  0.45001028  0.23970282  0.58243375  1  0  -0.2103  0  3.21438  0  0  -0.148265  0  3.505751  0  0  -0.159468  0  3.52203  0  0  -0.217123  -0.140345  0  3.494433  0
N  N63  1  0.76029697  0.54998856  0.91756555  1  0  -0.210325  0  3.214392  0  0  -0.148289  0  3.50576  0  0  -0.159491  0  3.522037  0  0  -0.217136  -0.140369  0  3.494441  0
N  N64  1  0.54999000  0.76029640  0.41756625  1  0  -0.21028  0  3.214363  0  0  -0.148245  0  3.505732  0  0  -0.159448  0  3.52201  0  0  -0.217116  -0.140325  0  3.494414  0
N  N65  1  0.23970213  0.45001065  0.08243431  1  0  -0.210313  0  3.214389  0  0  -0.148284  0  3.505754  0  0  -0.159486  0  3.522029  0  0  -0.217121  -0.140364  0  3.494436  0
N  N66  1  0.06792820  0.37986690  0.86648969  1  0  -0.215501  0  3.220756  0  0  -0.156179  0  3.515817  0  0  -0.167507  0  3.531732  0  0  -0.22225  -0.14818  0  3.504709  0
N  N67  1  0.62013555  0.93207129  0.63350996  1  0  -0.215479  0  3.220776  0  0  -0.156153  0  3.515818  0  0  -0.167481  0  3.531734  0  0  -0.222239  -0.148154  0  3.504712  0
N  N68  1  0.93207180  0.62013594  0.13351071  1  0  -0.215421  0  3.220815  0  0  -0.156093  0  3.515866  0  0  -0.16742  0  3.531783  0  0  -0.222212  -0.148093  0  3.504759  0
N  N69  1  0.37986590  0.06792793  0.36649018  1  0  -0.215496  0  3.220743  0  0  -0.156172  0  3.51581  0  0  -0.1675  0  3.531719  0  0  -0.222251  -0.148173  0  3.504702  0
N  N70  1  0.99208061  0.31308772  0.57069072  1  0  -0.137645  0  3.519829  0  0  -0.039093  0  3.758969  0  0  -0.051626  0  3.780657  0  0  -0.108217  -0.030708  0  3.744339  0
N  N71  1  0.68691302  0.00791859  0.92930878  1  0  -0.137729  0  3.519835  0  0  -0.03918  0  3.758983  0  0  -0.051714  0  3.78067  0  0  -0.108232  -0.030796  0  3.744353  0
N  N72  1  0.00791850  0.68691149  0.42930914  1  0  -0.13771  0  3.519692  0  0  -0.039166  0  3.758855  0  0  -0.051701  0  3.78054  0  0  -0.108241  -0.030781  0  3.744227  0
N  N73  1  0.31308726  0.99208063  0.07069122  1  0  -0.137702  0  3.519774  0  0  -0.039148  0  3.758918  0  0  -0.051683  0  3.780605  0  0  -0.108225  -0.030763  0  3.744288  0
N  N74  1  0.12212722  0.36041756  0.73742485  1  0  -0.13639  0  3.53478  0  0  -0.040294  0  3.775595  0  0  -0.053059  0  3.797602  0  0  -0.109769  -0.031774  0  3.760756  0
N  N75  1  0.63958204  0.87787295  0.76257519  1  0  -0.136344  0  3.534741  0  0  -0.040236  0  3.775549  0  0  -0.053004  0  3.797559  0  0  -0.109766  -0.031714  0  3.760708  0
N  N76  1  0.87787276  0.63958045  0.26257497  1  0  -0.136362  0  3.534784  0  0  -0.040256  0  3.775597  0  0  -0.053025  0  3.797607  0  0  -0.109744  -0.031735  0  3.760759  0
N  N77  1  0.36041824  0.12212627  0.23742417  1  0  -0.136401  0  3.534734  0  0  -0.040297  0  3.775549  0  0  -0.053066  0  3.797561  0  0  -0.109757  -0.031776  0  3.760711  0
N  N78  1  0.07747523  0.45583445  0.80268714  1  0  -0.081923  0  2.882382  0  0  -0.086021  0  3.157323  0  0  -0.083258  0  3.168936  0  0  -0.085803  -0.087568  0  3.149349  0
N  N79  1  0.54416550  0.92252477  0.69731163  1  0  -0.081944  0  2.882421  0  0  -0.086051  0  3.157364  0  0  -0.083286  0  3.168977  0  0  -0.085796  -0.087598  0  3.149389  0
N  N80  1  0.92252388  0.54416477  0.19731208  1  0  -0.081949  0  2.88246  0  0  -0.08606  0  3.157417  0  0  -0.083297  0  3.169032  0  0  -0.085801  -0.087607  0  3.149444  0
N  N81  1  0.45583508  0.07747565  0.30268727  1  0  -0.081932  0  2.882381  0  0  -0.086034  0  3.157323  0  0  -0.08327  0  3.168939  0  0  -0.0858  -0.087582  0  3.149352  0
N  N82  1  0.29333385  0.38350859  0.62609869  1  0  -0.147202  0  3.533231  0  0  -0.046367  0  3.767906  0  0  -0.059985  0  3.791086  0  0  -0.115095  -0.037229  0  3.752206  0
N  N83  1  0.61649114  0.70666601  0.87390070  1  0  -0.14721  0  3.533228  0  0  -0.046373  0  3.767909  0  0  -0.059992  0  3.791089  0  0  -0.115093  -0.037234  0  3.752207  0
N  N84  1  0.70666526  0.61649063  0.37390117  1  0  -0.147229  0  3.53334  0  0  -0.046384  0  3.768012  0  0  -0.060002  0  3.791191  0  0  -0.115079  -0.037244  0  3.752312  0
N  N85  1  0.38350797  0.29333321  0.12609916  1  0  -0.147251  0  3.533176  0  0  -0.046421  0  3.767882  0  0  -0.060041  0  3.791061  0  0  -0.115111  -0.037283  0  3.752182  0
N  N86  1  0.85871960  0.22862259  0.58482911  1  0  -0.066218  0  2.869589  0  0  -0.075518  0  3.141178  0  0  -0.07163  0  3.153884  0  0  -0.088414  -0.077852  0  3.132476  0
N  N87  1  0.77137757  0.14128076  0.91517110  1  0  -0.066189  0  2.8696  0  0  -0.075487  0  3.141185  0  0  -0.071599  0  3.153891  0  0  -0.088406  -0.077822  0  3.132482  0
N  N88  1  0.14128067  0.77137662  0.41517089  1  0  -0.066191  0  2.86951  0  0  -0.075483  0  3.141094  0  0  -0.071595  0  3.1538  0  0  -0.088405  -0.077819  0  3.132393  0
N  N89  1  0.22862271  0.85871846  0.08482890  1  0  -0.066195  0  2.869587  0  0  -0.075492  0  3.14117  0  0  -0.071603  0  3.153878  0  0  -0.088411  -0.077827  0  3.132469  0
N  N90  1  0.30629509  0.23082376  0.59745117  1  0  -0.088247  0  2.883699  0  0  -0.09609  0  3.159289  0  0  -0.093991  0  3.173025  0  0  -0.094263  -0.097236  0  3.149861  0
N  N91  1  0.76917626  0.69370367  0.90254814  1  0  -0.088206  0  2.883683  0  0  -0.096052  0  3.15927  0  0  -0.093951  0  3.173005  0  0  -0.094238  -0.097198  0  3.149841  0
N  N92  1  0.69370518  0.76917546  0.40254947  1  0  -0.088226  0  2.883738  0  0  -0.096073  0  3.159324  0  0  -0.093974  0  3.17306  0  0  -0.09425  -0.097218  0  3.149896  0
N  N93  1  0.23082285  0.30629554  0.09745172  1  0  -0.088219  0  2.88371  0  0  -0.09606  0  3.159293  0  0  -0.093959  0  3.173028  0  0  -0.094245  -0.097205  0  3.149866  0
