# generated using pymatgen
data_CuH15C13(NO2)2
_symmetry_space_group_name_H-M   'P 1'
_cell_length_a   7.58150608
_cell_length_b   8.12321139
_cell_length_c   11.08915459
_cell_angle_alpha   97.38303765
_cell_angle_beta   90.57960285
_cell_angle_gamma   104.73074051
_symmetry_Int_Tables_number   1
_chemical_formula_structural   CuH15C13(NO2)2
_chemical_formula_sum   'Cu2 H30 C26 N4 O8'
_cell_volume   654.36324015
_cell_formula_units_Z   2
loop_
 _symmetry_equiv_pos_site_id
 _symmetry_equiv_pos_as_xyz
  1  'x, y, z'
loop_
 _atom_site_type_symbol
 _atom_site_label
 _atom_site_symmetry_multiplicity
 _atom_site_fract_x
 _atom_site_fract_y
 _atom_site_fract_z
 _atom_site_occupancy
 _atom_site_hle17_ddec_charge
 _atom_site_hle17_ddec_spin_density
 _atom_site_hle17_ddec_sum_bond_order
 _atom_site_hle17_magmom
 _atom_site_hse06_10hf_ddec_charge
 _atom_site_hse06_10hf_ddec_spin_density
 _atom_site_hse06_10hf_ddec_sum_bond_order
 _atom_site_hse06_10hf_magmom
 _atom_site_hse06_ddec_charge
 _atom_site_hse06_ddec_spin_density
 _atom_site_hse06_ddec_sum_bond_order
 _atom_site_hse06_magmom
 _atom_site_pbe_cm5_charge
 _atom_site_pbe_ddec_charge
 _atom_site_pbe_ddec_spin_density
 _atom_site_pbe_ddec_sum_bond_order
 _atom_site_pbe_magmom
Cu  Cu0  1  0.40311772  0.44232609  0.08871805  1  0.823082  0.664356  1.903559  0.477  0.810983  0.798979  2.313661  0.633  0.916455  0.889578  2.229425  0.736  0.671134  0.743514  0.697338  2.373553  0.54
Cu  Cu1  1  0.59688429  0.55768288  0.91128295  1  0.823048  -0.664358  1.903526  -0.477  0.810917  -0.798978  2.313736  -0.633  0.916385  -0.889574  2.229398  -0.736  0.671179  0.743441  -0.697346  2.373608  -0.54
H  H2  1  0.73958119  0.44206606  0.29825951  1  0.279745  -0.000128  0.933075  0.0  0.266497  5.3e-05  0.992315  0.0  0.27316  1.4e-05  0.988353  0.0  0.301993  0.261805  8.1e-05  0.995166  0.0
H  H3  1  0.26042321  0.55794173  0.70175312  1  0.279846  0.000129  0.932967  0.0  0.266536  -5.3e-05  0.992274  0.0  0.273197  -1.4e-05  0.988313  0.0  0.302032  0.26184  -8.1e-05  0.995138  0.0
H  H4  1  0.01796684  0.46092628  0.18182080  1  0.091225  -8.5e-05  0.9381  0.0  0.103046  -4.3e-05  0.996572  0.0  0.10665  -4.5e-05  0.99381  0.0  0.115326  0.100391  -3.4e-05  0.998779  0.0
H  H5  1  0.98202088  0.53907384  0.81818746  1  0.091202  8.6e-05  0.938147  0.0  0.103047  4.3e-05  0.996592  0.0  0.106653  4.5e-05  0.993827  0.0  0.115295  0.100393  3.4e-05  0.998798  0.0
H  H6  1  0.93396965  0.19868951  0.50166985  1  0.097475  2.1e-05  0.975458  0.0  0.109889  4.2e-05  1.036481  0.0  0.112761  2.8e-05  1.035336  0.0  0.103009  0.107849  5e-05  1.03733  0.0
H  H7  1  0.06602505  0.80128860  0.49832653  1  0.097435  -2e-05  0.975563  0.0  0.109874  -4.2e-05  1.036563  0.0  0.112737  -2.8e-05  1.03541  0.0  0.102995  0.107833  -5e-05  1.037407  0.0
H  H8  1  0.22702037  0.11958067  0.46130829  1  0.09271  1.3e-05  0.98511  0.0  0.102877  2.4e-05  1.046486  0.0  0.104931  1.4e-05  1.047441  0.0  0.100803  0.101415  3.2e-05  1.045925  0.0
H  H9  1  0.77297293  0.88039737  0.53867906  1  0.092612  -1.4e-05  0.985182  0.0  0.102797  -2.4e-05  1.046559  0.0  0.10485  -1.4e-05  1.047513  0.0  0.100745  0.101333  -3.2e-05  1.046008  0.0
H  H10  1  0.40146073  0.21568169  0.28060232  1  0.075749  -0.000139  0.991256  0.0  0.080878  -7.9e-05  1.065577  0.0  0.084327  -7.8e-05  1.0627  0.0  0.106502  0.078368  -7e-05  1.067717  0.0
H  H11  1  0.59853271  0.78431568  0.71939039  1  0.075708  0.00014  0.991262  0.0  0.080869  7.9e-05  1.065537  0.0  0.084315  7.8e-05  1.062661  0.0  0.106513  0.078365  7e-05  1.067662  0.0
H  H12  1  0.57932838  0.42351992  0.46631270  1  0.072236  7e-06  0.93622  0.0  0.09173  6e-06  0.996475  0.0  0.091973  2e-06  0.996605  0.0  0.110694  0.091459  8e-06  0.996536  0.0
H  H13  1  0.42066766  0.57646734  0.53369984  1  0.072194  -6e-06  0.936263  0.0  0.091692  -5e-06  0.996541  0.0  0.091932  -2e-06  0.996674  0.0  0.110664  0.091421  -8e-06  0.996601  0.0
H  H14  1  0.77422177  0.41411303  0.55001782  1  0.056395  8.6e-05  0.959188  0.0  0.070822  -3e-06  1.028657  0.0  0.069492  -3e-06  1.031514  0.0  0.099487  0.071663  0.0  1.026768  0.0
H  H15  1  0.22577830  0.58587931  0.44999069  1  0.056352  -8.6e-05  0.959257  0.0  0.070822  3e-06  1.028697  0.0  0.069499  3e-06  1.031547  0.0  0.099475  0.071664  -1e-06  1.026805  0.0
H  H16  1  0.56003316  0.23182760  0.67647319  1  0.110521  3.7e-05  0.957808  0.0  0.119435  2.1e-05  1.01919  0.0  0.122744  3.7e-05  1.017745  0.0  0.100537  0.116999  4e-06  1.02046  0.0
H  H17  1  0.43997010  0.76816211  0.32353058  1  0.110508  -3.7e-05  0.957809  0.0  0.119444  -2.2e-05  1.019174  0.0  0.122751  -3.7e-05  1.017732  0.0  0.100515  0.117  -4e-06  1.020456  0.0
H  H18  1  0.60745155  0.06528928  0.29646665  1  0.094219  -1.4e-05  0.957794  0.0  0.106249  7e-06  1.016845  0.0  0.109612  -1e-06  1.015114  0.0  0.101488  0.103794  1.4e-05  1.018208  0.0
H  H19  1  0.39254982  0.93470305  0.70354096  1  0.094221  1.4e-05  0.957705  0.0  0.106254  -7e-06  1.01677  0.0  0.109616  1e-06  1.015043  0.0  0.101485  0.103828  -1.4e-05  1.018105  0.0
H  H20  1  0.73377802  0.05471343  0.08238290  1  0.133799  -0.001326  0.942588  -0.002  0.15147  -0.000913  1.001916  -0.001  0.15326  -0.00061  1.001701  -0.001  0.093722  0.149986  -0.001089  1.002148  -0.001
H  H21  1  0.26619657  0.94526760  0.91763892  1  0.13396  0.001327  0.942379  0.002  0.151654  0.000915  1.001668  0.001  0.153437  0.00061  1.001459  0.001  0.093824  0.150169  0.001089  1.001916  0.001
H  H22  1  0.90855525  0.17181644  0.99430670  1  0.152771  0.001023  0.948011  0.001  0.168518  0.000733  1.009798  0.001  0.171186  0.00046  1.009168  0.001  0.09939  0.166485  0.000894  1.010306  0.001
H  H23  1  0.09141403  0.82816459  0.00571149  1  0.152977  -0.001022  0.94835  -0.001  0.168737  -0.000733  1.010052  -0.001  0.1714  -0.00046  1.009431  -0.001  0.099521  0.166704  -0.000894  1.010562  -0.001
H  H24  1  0.71300581  0.01960169  0.92124576  1  0.152346  0.000507  0.932811  0.001  0.171084  0.000321  0.990261  0.0  0.173149  0.000222  0.990249  0.0  0.103299  0.169514  0.000373  0.990306  0.0
H  H25  1  0.28695631  0.98039612  0.07877663  1  0.15249  -0.000507  0.932922  -0.001  0.171225  -0.000322  0.990361  0.0  0.173289  -0.000222  0.990347  0.0  0.103399  0.169654  -0.000373  0.990407  0.0
H  H26  1  0.92906985  0.93437226  0.22508473  1  0.141356  0.000771  0.945181  0.001  0.161091  0.000544  1.002092  0.001  0.162176  0.000384  1.003957  0.0  0.101356  0.160102  0.000596  1.00088  0.001
H  H27  1  0.07098493  0.06565665  0.77487769  1  0.141007  -0.000774  0.945004  -0.001  0.160863  -0.000544  1.001861  -0.001  0.16195  -0.000384  1.003727  0.0  0.101225  0.159875  -0.000596  1.000648  -0.001
H  H28  1  0.02044761  0.75745625  0.23695314  1  0.147362  0.000441  0.932306  0.0  0.165229  0.000293  0.993712  0.0  0.167641  0.000177  0.992811  0.0  0.10459  0.16342  0.000363  0.994354  0.0
H  H29  1  0.97957977  0.24255479  0.76300845  1  0.147215  -0.000443  0.932187  0.0  0.165103  -0.000294  0.993635  0.0  0.167515  -0.000177  0.99274  0.0  0.104539  0.163296  -0.000363  0.994277  0.0
H  H30  1  0.85161946  0.80014774  0.34028504  1  0.133827  -0.001134  0.963638  -0.001  0.149732  -0.000804  1.028717  -0.001  0.151045  -0.00055  1.029346  -0.001  0.094457  0.148533  -0.000911  1.028415  -0.001
H  H31  1  0.14841728  0.19988259  0.65968195  1  0.13381  0.001131  0.963497  0.001  0.149724  0.000805  1.028651  0.001  0.151042  0.00055  1.029277  0.001  0.094412  0.148526  0.000911  1.028345  0.001
C  C32  1  0.05788653  0.38399435  0.24596207  1  0.003021  0.001585  3.672813  0.001  -0.024077  -0.000289  3.93228  0.0  -0.020412  -0.000279  3.947083  0.0  0.031561  -0.026468  -0.000268  3.922602  0.0
C  C33  1  0.94210475  0.61600443  0.75404247  1  0.003006  -0.001614  3.673017  -0.001  -0.024136  0.00029  3.932501  0.0  -0.020473  0.00028  3.947307  0.0  0.031616  -0.026525  0.000268  3.92282  0.0
C  C34  1  0.94668187  0.33394672  0.34367627  1  0.206921  -0.000448  3.858301  -0.001  0.201397  4.2e-05  4.107788  0.0  0.209833  5.7e-05  4.126943  0.0  0.103987  0.195401  3.6e-05  4.094867  0.0
C  C35  1  0.05330807  0.66605205  0.65632646  1  0.206806  0.000472  3.858525  0.001  0.201288  -4.3e-05  4.107968  0.0  0.209723  -5.8e-05  4.127118  0.0  0.10383  0.195292  -3.5e-05  4.095045  0.0
C  C36  1  0.01222629  0.23911182  0.42411611  1  -0.150962  0.000887  3.719513  0.001  -0.171663  -0.00013  3.965369  0.0  -0.172603  -0.000148  3.981128  0.0  -0.094549  -0.170895  -0.000121  3.954801  0.0
C  C37  1  0.98776636  0.76087788  0.57588040  1  -0.150979  -0.000919  3.719748  -0.001  -0.171724  0.000133  3.965638  0.0  -0.172645  0.000148  3.981378  0.0  -0.094532  -0.170952  0.000121  3.955064  0.0
C  C38  1  0.17539157  0.19509231  0.40172133  1  -0.106351  -0.000439  3.806382  0.0  -0.112148  0.000184  4.048684  0.0  -0.113834  0.000164  4.067117  0.0  -0.092363  -0.111123  0.000189  4.03621  0.0
C  C39  1  0.82460296  0.80489477  0.59827045  1  -0.106141  0.000474  3.806577  0.001  -0.11197  -0.000184  4.048905  0.0  -0.113651  -0.000164  4.06733  0.0  -0.092252  -0.110946  -0.000188  4.036427  0.0
C  C40  1  0.27417388  0.24854489  0.30236822  1  0.058145  0.001682  3.753844  0.002  0.024105  -0.000266  4.023138  0.0  0.029088  -0.000293  4.039929  0.0  0.010823  0.020959  -0.0002  4.011864  0.0
C  C41  1  0.72582015  0.75144990  0.69762335  1  0.058237  -0.001715  3.75415  -0.002  0.024197  0.000266  4.023423  0.0  0.029181  0.000294  4.040213  0.0  0.010846  0.021054  0.000201  4.012148  0.0
C  C42  1  0.68510205  0.35301593  0.46868810  1  0.010154  -9.3e-05  3.723353  0.0  -0.056918  0.0  3.985758  0.0  -0.051743  -2e-06  3.998444  0.0  -0.055653  -0.060264  1.1e-05  3.976829  0.0
C  C43  1  0.31489767  0.64697514  0.53132119  1  0.010216  9.3e-05  3.723459  0.0  -0.056907  -5e-06  3.985904  0.0  -0.051746  2e-06  3.998608  0.0  -0.055676  -0.06025  -1.1e-05  3.976957  0.0
C  C44  1  0.59449155  0.16839205  0.48408072  1  0.042185  6.1e-05  3.773166  0.0  0.062893  -5.5e-05  4.012435  0.0  0.061548  -3.4e-05  4.037152  0.0  -0.01923  0.063755  -6.7e-05  3.995644  0.0
C  C45  1  0.40551473  0.83159896  0.51592588  1  0.042219  -6e-05  3.77304  0.0  0.062882  5.5e-05  4.012427  0.0  0.061541  3.3e-05  4.037135  0.0  -0.019126  0.063744  6.6e-05  3.995645  0.0
C  C46  1  0.53460712  0.13033606  0.59881625  1  -0.121531  0.000146  3.738313  0.0  -0.13756  3.5e-05  3.98251  0.0  -0.139727  3.3e-05  4.002687  0.0  -0.09543  -0.135996  3.8e-05  3.968853  0.0
C  C47  1  0.46539315  0.86965240  0.40118830  1  -0.121527  -0.00015  3.738238  0.0  -0.137575  -3.4e-05  3.982461  0.0  -0.13974  -3.3e-05  4.002635  0.0  -0.095443  -0.13601  -3.8e-05  3.968789  0.0
C  C48  1  0.56042465  0.03621833  0.38591353  1  -0.118594  7.7e-05  3.773702  0.0  -0.137479  2.5e-05  4.021205  0.0  -0.14021  1.3e-05  4.042402  0.0  -0.096733  -0.135517  3e-05  4.006801  0.0
C  C49  1  0.43957766  0.96377270  0.61409216  1  -0.118645  -7.5e-05  3.773726  0.0  -0.137546  -2.2e-05  4.021286  0.0  -0.140279  -1.3e-05  4.042486  0.0  -0.096754  -0.135613  -3e-05  4.006882  0.0
C  C50  1  0.66157806  0.25652355  0.00002541  1  0.732764  -0.000787  3.802172  -0.001  0.707155  -0.000357  4.094752  -0.001  0.748754  -0.000376  4.087589  -0.001  0.214309  0.678794  -0.000301  4.098968  -0.001
C  C51  1  0.33839935  0.74347111  0.00000212  1  0.733171  0.000782  3.801679  0.001  0.707888  0.000348  4.09377  0.001  0.749482  0.000373  4.086591  0.001  0.214581  0.679565  0.000296  4.097963  0.001
C  C52  1  0.76124430  0.11763099  0.00057300  1  -0.441939  0.001579  3.614958  0.002  -0.516078  0.00103  3.840716  0.001  -0.525509  0.000669  3.84377  0.001  -0.24262  -0.508265  0.00116  3.838031  0.001
C  C53  1  0.23872622  0.88235908  0.99945142  1  -0.442607  -0.00158  3.615504  -0.002  -0.516887  -0.001032  3.841217  -0.001  -0.526306  -0.000666  3.844257  -0.001  -0.243044  -0.509092  -0.001158  3.83854  -0.001
C  C54  1  0.74811877  0.68903236  0.15799536  1  0.727929  0.000231  3.811668  0.0  0.69887  -0.000172  4.107001  0.0  0.7396  -0.000146  4.099366  0.0  0.2143  0.671092  -0.000167  4.111856  0.0
C  C55  1  0.25190953  0.31100064  0.84197815  1  0.727501  -0.000235  3.811772  0.0  0.698249  0.000171  4.107398  0.0  0.738976  0.000146  4.099782  0.0  0.214074  0.670472  0.000166  4.112245  0.0
C  C56  1  0.89551393  0.80236385  0.24683021  1  -0.448776  -0.000124  3.63171  0.0  -0.527305  7.6e-05  3.863154  0.0  -0.536136  5e-05  3.867131  0.0  -0.243092  -0.519871  0.00012  3.859911  0.0
C  C57  1  0.10452376  0.19766517  0.75313485  1  -0.448163  0.000138  3.631171  0.0  -0.526803  -8.1e-05  3.862579  0.0  -0.535645  -5.1e-05  3.866564  0.0  -0.242916  -0.519369  -0.000122  3.859333  0.0
N  N58  1  0.21655300  0.34367501  0.22734118  1  -0.286168  -0.001834  3.309469  -0.001  -0.239782  -0.000659  3.60039  0.0  -0.257685  -0.000709  3.616711  0.0  -0.342726  -0.22814  -0.000533  3.590523  0.0
N  N59  1  0.78344132  0.65633011  0.77265583  1  -0.286171  0.001863  3.309708  0.001  -0.239772  0.000664  3.60063  0.0  -0.257672  0.000711  3.616938  0.0  -0.342703  -0.228128  0.00054  3.59076  0.0
N  N60  1  0.78525358  0.37746348  0.35961194  1  -0.397931  0.003539  3.373794  0.004  -0.341624  0.000174  3.623067  0.0  -0.362014  6.9e-05  3.636751  0.0  -0.44065  -0.32721  0.00031  3.613051  0.0
N  N61  1  0.21473979  0.62253791  0.64039826  1  -0.397993  -0.003539  3.373807  -0.004  -0.341581  -0.000173  3.62303  0.0  -0.361984  -6.9e-05  3.636745  0.0  -0.440618  -0.327164  -0.000309  3.613012  0.0
O  O62  1  0.54252314  0.26297511  0.07998713  1  -0.587777  0.08372  2.069919  0.11  -0.564867  0.056834  2.348347  0.082  -0.61143  0.043666  2.342736  0.067  -0.314338  -0.534547  0.061154  2.352832  0.085
O  O63  1  0.45743258  0.73700467  0.92002729  1  -0.587602  -0.083693  2.069481  -0.11  -0.564933  -0.056811  2.34799  -0.082  -0.611479  -0.04365  2.342327  -0.067  -0.314359  -0.534632  -0.061131  2.352473  -0.085
O  O64  1  0.70339738  0.35685565  0.91912326  1  -0.597203  -0.073074  2.042477  -0.095  -0.57442  -0.05021  2.313369  -0.072  -0.619953  -0.0389  2.305495  -0.059  -0.322171  -0.544213  -0.054251  2.319022  -0.075
O  O65  1  0.29660608  0.64315755  0.08091780  1  -0.59757  0.073098  2.042498  0.096  -0.574854  0.050227  2.313253  0.072  -0.620394  0.038911  2.305398  0.059  -0.322303  -0.544632  0.05427  2.318846  0.075
O  O66  1  0.61263033  0.58909747  0.20219886  1  -0.599686  0.070516  2.054596  0.093  -0.568794  0.050661  2.321577  0.074  -0.612148  0.040011  2.313744  0.062  -0.314728  -0.540703  0.052179  2.327895  0.073
O  O67  1  0.38741478  0.41092006  0.79777781  1  -0.599639  -0.070528  2.054689  -0.093  -0.568562  -0.050674  2.321617  -0.074  -0.611915  -0.040021  2.313772  -0.062  -0.314819  -0.540465  -0.052192  2.32793  -0.073
O  O68  1  0.77109226  0.70073315  0.04590937  1  -0.57899  -0.069868  2.074159  -0.092  -0.551209  -0.049354  2.341977  -0.071  -0.595952  -0.038918  2.335763  -0.06  -0.308527  -0.52207  -0.050718  2.346911  -0.07
O  O69  1  0.22891867  0.29930380  0.95406353  1  -0.578735  0.069839  2.07405  0.092  -0.550838  0.04933  2.341801  0.071  -0.595571  0.038899  2.335604  0.06  -0.308174  -0.521706  0.050693  2.346743  0.07
