# generated using pymatgen
data_GdH16C15O11
_symmetry_space_group_name_H-M   'P 1'
_cell_length_a   7.53252340
_cell_length_b   9.39318872
_cell_length_c   13.05054278
_cell_angle_alpha   102.55151409
_cell_angle_beta   99.51360723
_cell_angle_gamma   107.69051004
_symmetry_Int_Tables_number   1
_chemical_formula_structural   GdH16C15O11
_chemical_formula_sum   'Gd2 H32 C30 O22'
_cell_volume   831.70427854
_cell_formula_units_Z   2
loop_
 _symmetry_equiv_pos_site_id
 _symmetry_equiv_pos_as_xyz
  1  'x, y, z'
loop_
 _atom_site_type_symbol
 _atom_site_label
 _atom_site_symmetry_multiplicity
 _atom_site_fract_x
 _atom_site_fract_y
 _atom_site_fract_z
 _atom_site_occupancy
 _atom_site_hle17_bader_spin_density
 _atom_site_hle17_ddec_charge
 _atom_site_hle17_ddec_spin_density
 _atom_site_hle17_ddec_sum_bond_order
 _atom_site_hle17_magmom
 _atom_site_hse06_10hf_bader_spin_density
 _atom_site_hse06_10hf_ddec_charge
 _atom_site_hse06_10hf_ddec_spin_density
 _atom_site_hse06_10hf_ddec_sum_bond_order
 _atom_site_hse06_10hf_magmom
 _atom_site_hse06_bader_spin_density
 _atom_site_hse06_ddec_charge
 _atom_site_hse06_ddec_spin_density
 _atom_site_hse06_ddec_sum_bond_order
 _atom_site_hse06_magmom
 _atom_site_pbe_bader_spin_density
 _atom_site_pbe_cm5_charge
 _atom_site_pbe_ddec_charge
 _atom_site_pbe_ddec_spin_density
 _atom_site_pbe_ddec_sum_bond_order
 _atom_site_pbe_magmom
Gd  Gd0  1  0.64771448  0.21491601  0.01158857  1  0  2.165725  0  1.764701  0  0  2.074295  0  2.119406  0  0  2.129293  0  2.064165  0  0  1.458494  2.032435  0  2.162774  0
Gd  Gd1  1  0.35227936  0.78508199  0.98840991  1  0  2.165723  0  1.764665  0  0  2.074319  0  2.119332  0  0  2.129311  0  2.064105  0  0  1.458522  2.032468  0  2.162691  0
H  H2  1  0.28175944  0.24413480  0.27974446  1  0  0.087861  0  0.97264  0  0  0.097328  0  1.038516  0  0  0.098283  0  1.038584  0  0  0.110058  0.096616  0  1.038597  0
H  H3  1  0.71823848  0.75586679  0.72025493  1  0  0.087865  0  0.972645  0  0  0.097339  0  1.038499  0  0  0.0983  0  1.038567  0  0  0.110063  0.096631  0  1.038577  0
H  H4  1  0.08232007  0.22000309  0.17738744  1  0  0.121916  0  0.938941  0  0  0.130811  0  1.001008  0  0  0.133366  0  0.998936  0  0  0.121434  0.128968  0  1.002664  0
H  H5  1  0.91767669  0.77999156  0.82261456  1  0  0.121966  0  0.938883  0  0  0.130829  0  1.00099  0  0  0.133389  0  0.99892  0  0  0.121467  0.128992  0  1.002641  0
H  H6  1  0.88991206  0.76935239  0.26138307  1  0  0.083698  0  0.992949  0  0  0.094184  0  1.060235  0  0  0.097949  0  1.056794  0  0  0.09627  0.091401  0  1.062935  0
H  H7  1  0.11009105  0.23065168  0.73862096  1  0  0.083764  0  0.993013  0  0  0.094258  0  1.060272  0  0  0.098024  0  1.056829  0  0  0.096289  0.091475  0  1.062969  0
H  H8  1  0.95072574  0.68679478  0.43113911  1  0  0.104401  0  0.956882  0  0  0.116287  0  1.0168  0  0  0.119157  0  1.015207  0  0  0.103133  0.114127  0  1.018168  0
H  H9  1  0.04927735  0.31320239  0.56886304  1  0  0.104373  0  0.956914  0  0  0.116268  0  1.016818  0  0  0.119135  0  1.015227  0  0  0.103119  0.114107  0  1.01818  0
H  H10  1  0.42520228  0.12186293  0.57572067  1  0  0.107885  0  0.963216  0  0  0.118271  0  1.024501  0  0  0.121337  0  1.023384  0  0  0.103593  0.116068  0  1.025383  0
H  H11  1  0.57480948  0.87813223  0.42428261  1  0  0.107817  0  0.963161  0  0  0.11815  0  1.024514  0  0  0.12123  0  1.023374  0  0  0.103565  0.115946  0  1.025394  0
H  H12  1  0.35717496  0.20424338  0.41462329  1  0  0.094301  0  1.015468  0  0  0.103934  0  1.08036  0  0  0.105396  0  1.082053  0  0  0.095112  0.102848  0  1.079275  0
H  H13  1  0.64283487  0.79575401  0.58537790  1  0  0.094246  0  1.015491  0  0  0.103885  0  1.080396  0  0  0.105345  0  1.082085  0  0  0.09511  0.102797  0  1.079314  0
H  H14  1  0.29261590  0.06360425  0.71641615  1  0  0.089103  0  0.944329  0  0  0.096629  0  1.015495  0  0  0.097948  0  1.01483  0  0  0.112834  0.095652  0  1.016166  0
H  H15  1  0.70738248  0.93639505  0.28358290  1  0  0.089091  0  0.944302  0  0  0.096598  0  1.015495  0  0  0.097923  0  1.014822  0  0  0.112825  0.095609  0  1.016153  0
H  H16  1  0.48265386  0.99111742  0.70275022  1  0  0.094302  0  0.920326  0  0  0.102861  0  0.985957  0  0  0.104262  0  0.9857  0  0  0.113753  0.101909  0  0.986252  0
H  H17  1  0.51734706  0.00888427  0.29725479  1  0  0.094296  0  0.920346  0  0  0.102862  0  0.985959  0  0  0.104259  0  0.98571  0  0  0.113772  0.101891  0  0.986247  0
H  H18  1  0.35542675  0.36737587  0.72003294  1  0  0.072886  0  0.963789  0  0  0.082696  0  1.034188  0  0  0.083534  0  1.033759  0  0  0.108577  0.08211  0  1.034563  0
H  H19  1  0.64458250  0.63262725  0.27996683  1  0  0.072812  0  0.963801  0  0  0.082635  0  1.034195  0  0  0.083462  0  1.033758  0  0  0.108536  0.08205  0  1.034572  0
H  H20  1  0.52654430  0.55032555  0.80484170  1  0  0.105322  0  0.963629  0  0  0.112808  0  1.030683  0  0  0.116426  0  1.027778  0  0  0.117228  0.110185  0  1.032953  0
H  H21  1  0.47345400  0.44967374  0.19515581  1  0  0.105335  0  0.963607  0  0  0.112797  0  1.0307  0  0  0.116401  0  1.027794  0  0  0.117213  0.11017  0  1.032975  0
H  H22  1  0.33786644  0.54938257  0.64830330  1  0  0.113769  0  0.961542  0  0  0.123979  0  1.022578  0  0  0.127684  0  1.020002  0  0  0.107475  0.121338  0  1.024452  0
H  H23  1  0.66212989  0.45061206  0.35169023  1  0  0.113816  0  0.961469  0  0  0.124017  0  1.022514  0  0  0.127729  0  1.019939  0  0  0.107514  0.121381  0  1.024394  0
H  H24  1  0.76626536  0.39652486  0.52284810  1  0  0.119811  0  0.951369  0  0  0.128854  0  1.012495  0  0  0.132586  0  1.009911  0  0  0.10928  0.126256  0  1.014275  0
H  H25  1  0.23372609  0.60346731  0.47714695  1  0  0.119852  0  0.951306  0  0  0.128848  0  1.012482  0  0  0.132583  0  1.009894  0  0  0.109274  0.126249  0  1.014263  0
H  H26  1  0.07303863  0.39603330  0.00105911  1  0  0.436097  0  0.85168  0  0  0.411933  0  0.904094  0  0  0.421839  0  0.889687  0  0  0.308844  0.404766  0  0.914548  0
H  H27  1  0.92695683  0.60396821  0.99894544  1  0  0.436141  0  0.851749  0  0  0.411994  0  0.904027  0  0  0.421903  0  0.889616  0  0  0.308892  0.404829  0  0.914479  0
H  H28  1  0.99232055  0.21438808  0.97492151  1  0  0.441712  0  0.832293  0  0  0.415494  0  0.89677  0  0  0.426508  0  0.880464  0  0  0.31526  0.407584  0  0.908474  0
H  H29  1  0.00767559  0.78561230  0.02507831  1  0  0.441705  0  0.832309  0  0  0.415494  0  0.896765  0  0  0.426507  0  0.880461  0  0  0.315279  0.407585  0  0.908468  0
H  H30  1  0.69529146  0.56666986  0.08975780  1  0  0.44489  0  0.855428  0  0  0.41136  0  0.922742  0  0  0.423332  0  0.905574  0  0  0.30028  0.402792  0  0.935014  0
H  H31  1  0.30470623  0.43333516  0.91023753  1  0  0.444922  0  0.855378  0  0  0.411389  0  0.922697  0  0  0.423361  0  0.905528  0  0  0.300311  0.402825  0  0.934963  0
H  H32  1  0.88523777  0.54506534  0.15426153  1  0  0.452178  0  0.789484  0  0  0.435603  0  0.838884  0  0  0.443231  0  0.830943  0  0  0.341467  0.430034  0  0.844806  0
H  H33  1  0.11476034  0.45493739  0.84573270  1  0  0.452105  0  0.789502  0  0  0.435538  0  0.838892  0  0  0.443166  0  0.830953  0  0  0.341489  0.429967  0  0.844813  0
C  C34  1  0.27142199  0.10787126  0.12223121  1  0  0.739257  0  3.790241  0  0  0.692171  0  4.091768  0  0  0.726204  0  4.082029  0  0  0.235593  0.668937  0  4.097798  0
C  C35  1  0.72857287  0.89212907  0.87777003  1  0  0.739276  0  3.790308  0  0  0.692188  0  4.091815  0  0  0.726217  0  4.082085  0  0  0.235593  0.668944  0  4.097855  0
C  C36  1  0.17240795  0.15873966  0.20874903  1  0  -0.080597  0  3.604647  0  0  -0.133594  0  3.849602  0  0  -0.131008  0  3.850417  0  0  -0.064641  -0.135623  0  3.849425  0
C  C37  1  0.82758876  0.84125844  0.79125277  1  0  -0.080754  0  3.604537  0  0  -0.133706  0  3.84949  0  0  -0.131143  0  3.85034  0  0  -0.064748  -0.135739  0  3.849314  0
C  C38  1  0.11529506  0.99166314  0.32658010  1  0  0.257214  0  3.800764  0  0  0.245833  0  4.064904  0  0  0.256119  0  4.079944  0  0  0.072068  0.238624  0  4.054759  0
C  C39  1  0.88469980  0.00833374  0.67342058  1  0  0.257218  0  3.800725  0  0  0.245857  0  4.064866  0  0  0.256143  0  4.079905  0  0  0.072059  0.238643  0  4.054729  0
C  C40  1  0.00660338  0.84416833  0.33177194  1  0  -0.1724  0  3.799445  0  0  -0.196816  0  4.062011  0  0  -0.199467  0  4.078844  0  0  -0.111137  -0.194969  0  4.050779  0
C  C41  1  0.99340437  0.15583704  0.66823421  1  0  -0.172531  0  3.799158  0  0  -0.196965  0  4.061734  0  0  -0.199614  0  4.07856  0  0  -0.111168  -0.195116  0  4.050502  0
C  C42  1  0.04113909  0.79838110  0.42512955  1  0  -0.150264  0  3.771586  0  0  -0.172162  0  4.027441  0  0  -0.17421  0  4.046265  0  0  -0.102165  -0.170649  0  4.014714  0
C  C43  1  0.95886073  0.20161826  0.57487116  1  0  -0.150215  0  3.77142  0  0  -0.172106  0  4.027308  0  0  -0.174147  0  4.046117  0  0  -0.102157  -0.170591  0  4.014578  0
C  C44  1  0.18938094  0.89884278  0.51522569  1  0  0.242547  0  3.802702  0  0  0.233396  0  4.063733  0  0  0.241544  0  4.0822  0  0  0.072018  0.227642  0  4.05108  0
C  C45  1  0.81063033  0.10115811  0.48477771  1  0  0.242514  0  3.802696  0  0  0.233305  0  4.063783  0  0  0.241454  0  4.082254  0  0  0.072006  0.227544  0  4.051144  0
C  C46  1  0.30485203  0.04284016  0.50862713  1  0  -0.172895  0  3.774852  0  0  -0.191747  0  4.028004  0  0  -0.195717  0  4.049894  0  0  -0.108637  -0.189044  0  4.013286  0
C  C47  1  0.69514999  0.95716156  0.49137260  1  0  -0.172732  0  3.774521  0  0  -0.191518  0  4.027698  0  0  -0.195496  0  4.049569  0  0  -0.108552  -0.188809  0  4.012979  0
C  C48  1  0.26725703  0.08936608  0.41485492  1  0  -0.176707  0  3.772303  0  0  -0.197768  0  4.025171  0  0  -0.201765  0  4.046507  0  0  -0.112131  -0.195029  0  4.010857  0
C  C49  1  0.73275204  0.91063588  0.58515002  1  0  -0.176707  0  3.772526  0  0  -0.19776  0  4.025346  0  0  -0.201759  0  4.046693  0  0  -0.112167  -0.195024  0  4.011032  0
C  C50  1  0.32868458  0.95692142  0.70338146  1  0  -0.061792  0  3.63151  0  0  -0.114981  0  3.887051  0  0  -0.111986  0  3.888376  0  0  -0.058369  -0.117332  0  3.886494  0
C  C51  1  0.67131441  0.04307905  0.29662090  1  0  -0.061722  0  3.631504  0  0  -0.114888  0  3.887022  0  0  -0.111891  0  3.888352  0  0  -0.05836  -0.117159  0  3.886356  0
C  C52  1  0.30543569  0.89536960  0.80021892  1  0  0.721494  0  3.813492  0  0  0.671547  0  4.122832  0  0  0.705994  0  4.112347  0  0  0.217071  0.648063  0  4.129106  0
C  C53  1  0.69455776  0.10462724  0.19978088  1  0  0.721356  0  3.813582  0  0  0.671388  0  4.122947  0  0  0.705829  0  4.112474  0  0  0.217048  0.647891  0  4.129205  0
C  C54  1  0.55762354  0.35157007  0.84612249  1  0  0.669454  0  3.866986  0  0  0.620126  0  4.175522  0  0  0.652748  0  4.168198  0  0  0.198137  0.598203  0  4.179417  0
C  C55  1  0.44237882  0.64843626  0.15387572  1  0  0.669385  0  3.866944  0  0  0.620012  0  4.175567  0  0  0.652614  0  4.168244  0  0  0.198103  0.598082  0  4.179467  0
C  C56  1  0.50859563  0.42955513  0.76225581  1  0  -0.083473  0  3.680029  0  0  -0.137579  0  3.936419  0  0  -0.135456  0  3.937459  0  0  -0.070017  -0.139299  0  3.935927  0
C  C57  1  0.49140892  0.57045357  0.23774143  1  0  -0.08344  0  3.679874  0  0  -0.137517  0  3.936359  0  0  -0.135318  0  3.93729  0  0  -0.069953  -0.139235  0  3.935872  0
C  C58  1  0.55944817  0.46644607  0.59631986  1  0  0.234307  0  3.826551  0  0  0.224912  0  4.091209  0  0  0.233536  0  4.108343  0  0  0.070571  0.218809  0  4.079498  0
C  C59  1  0.44055332  0.53355448  0.40367811  1  0  0.23431  0  3.826551  0  0  0.224935  0  4.091212  0  0  0.233554  0  4.108357  0  0  0.070606  0.218829  0  4.0795  0
C  C60  1  0.40801835  0.52417103  0.58358331  1  0  -0.198105  0  3.789667  0  0  -0.217285  0  4.046593  0  0  -0.220531  0  4.064695  0  0  -0.109279  -0.214927  0  4.034188  0
C  C61  1  0.59198181  0.47582948  0.41641531  1  0  -0.198125  0  3.78957  0  0  -0.217281  0  4.046497  0  0  -0.220537  0  4.064613  0  0  -0.109279  -0.214929  0  4.034098  0
C  C62  1  0.65146643  0.44381676  0.51300071  1  0  -0.136253  0  3.742047  0  0  -0.159753  0  3.997409  0  0  -0.161146  0  4.013429  0  0  -0.097154  -0.158594  0  3.986362  0
C  C63  1  0.34853211  0.55618255  0.48700143  1  0  -0.136267  0  3.742018  0  0  -0.159712  0  3.997374  0  0  -0.161103  0  4.013392  0  0  -0.097131  -0.158549  0  3.986322  0
O  O64  1  0.39905214  0.21511610  0.10228833  1  0  -0.707818  0  2.035115  0  0  -0.664282  0  2.283799  0  0  -0.691475  0  2.274579  0  0  -0.381924  -0.644979  0  2.289625  0
O  O65  1  0.60094443  0.78488199  0.89771039  1  0  -0.707786  0  2.034988  0  0  -0.664254  0  2.283669  0  0  -0.691457  0  2.274487  0  0  -0.3819  -0.644967  0  2.289549  0
O  O66  1  0.22082501  0.96314018  0.07579659  1  0  -0.724551  0  2.099182  0  0  -0.676282  0  2.345561  0  0  -0.703167  0  2.334547  0  0  -0.383179  -0.657307  0  2.352858  0
O  O67  1  0.77917094  0.03686364  0.92419994  1  0  -0.724516  0  2.099202  0  0  -0.676237  0  2.34556  0  0  -0.70312  0  2.33455  0  0  -0.383155  -0.657255  0  2.352861  0
O  O68  1  0.05106337  0.03018390  0.23477432  1  0  -0.258685  0  2.339558  0  0  -0.190294  0  2.57276  0  0  -0.206081  0  2.573865  0  0  -0.183104  -0.178973  0  2.571665  0
O  O69  1  0.94894707  0.96981811  0.76523073  1  0  -0.258616  0  2.339278  0  0  -0.190265  0  2.572483  0  0  -0.206042  0  2.573592  0  0  -0.183061  -0.178938  0  2.571387  0
O  O70  1  0.20919607  0.84517508  0.60541287  1  0  -0.255356  0  2.321325  0  0  -0.189695  0  2.553499  0  0  -0.206034  0  2.556528  0  0  -0.180964  -0.178045  0  2.551029  0
O  O71  1  0.79080482  0.15481627  0.39458969  1  0  -0.255351  0  2.321371  0  0  -0.189675  0  2.553561  0  0  -0.206018  0  2.556595  0  0  -0.180959  -0.178049  0  2.551071  0
O  O72  1  0.39164730  0.99626113  0.89404632  1  0  -0.830619  0  2.168697  0  0  -0.789311  0  2.434281  0  0  -0.8177  0  2.424842  0  0  -0.447563  -0.76851  0  2.439986  0
O  O73  1  0.60834156  0.00373785  0.10595270  1  0  -0.830579  0  2.168671  0  0  -0.789288  0  2.434299  0  0  -0.817678  0  2.424869  0  0  -0.447623  -0.768487  0  2.440004  0
O  O74  1  0.21682170  0.75500986  0.79336948  1  0  -0.642075  0  1.912791  0  0  -0.606642  0  2.142159  0  0  -0.630067  0  2.132051  0  0  -0.349331  -0.590298  0  2.148951  0
O  O75  1  0.78317039  0.24499038  0.20663076  1  0  -0.641983  0  1.912836  0  0  -0.606534  0  2.142197  0  0  -0.629961  0  2.132095  0  0  -0.349258  -0.590196  0  2.148996  0
O  O76  1  0.44991396  0.33976169  0.91366155  1  0  -0.68913  0  1.98641  0  0  -0.636509  0  2.218095  0  0  -0.663235  0  2.20898  0  0  -0.357764  -0.617371  0  2.223759  0
O  O77  1  0.55009397  0.66024139  0.08633888  1  0  -0.689117  0  1.986432  0  0  -0.636482  0  2.218154  0  0  -0.663208  0  2.209048  0  0  -0.357793  -0.617351  0  2.223848  0
O  O78  1  0.69473609  0.30062657  0.85198130  1  0  -0.650412  0  1.953914  0  0  -0.616364  0  2.193039  0  0  -0.639504  0  2.183869  0  0  -0.368348  -0.60011  0  2.199026  0
O  O79  1  0.30525835  0.69937605  0.14802104  1  0  -0.650339  0  1.95371  0  0  -0.616258  0  2.192823  0  0  -0.639398  0  2.183661  0  0  -0.368297  -0.600005  0  2.198818  0
O  O80  1  0.62369645  0.42631314  0.68695870  1  0  -0.246457  0  2.317653  0  0  -0.180759  0  2.5479  0  0  -0.196097  0  2.549539  0  0  -0.183219  -0.169745  0  2.546375  0
O  O81  1  0.37630598  0.57369664  0.31304161  1  0  -0.246425  0  2.317516  0  0  -0.180798  0  2.547826  0  0  -0.196153  0  2.549442  0  0  -0.183244  -0.169781  0  2.546302  0
O  O82  1  0.00297176  0.31089554  0.02807625  1  0  -0.864459  0  1.836734  0  0  -0.823137  0  2.014079  0  0  -0.842539  0  1.983138  0  0  -0.618189  -0.809246  0  2.036324  0
O  O83  1  0.99702549  0.68910373  0.97192731  1  0  -0.864494  0  1.836813  0  0  -0.823201  0  2.014084  0  0  -0.842603  0  1.983138  0  0  -0.618264  -0.809307  0  2.03633  0
O  O84  1  0.78379883  0.50267664  0.08715302  1  0  -0.898157  0  1.874861  0  0  -0.850424  0  2.062999  0  0  -0.871162  0  2.035457  0  0  -0.601475  -0.835386  0  2.08265  0
O  O85  1  0.21619928  0.49732610  0.91284120  1  0  -0.898114  0  1.874853  0  0  -0.850385  0  2.062999  0  0  -0.87112  0  2.035457  0  0  -0.601547  -0.83535  0  2.082647  0
