# generated using pymatgen
data_CoH24(C5N)8
_symmetry_space_group_name_H-M   'P 1'
_cell_length_a   9.29067509
_cell_length_b   19.11874757
_cell_length_c   19.11511493
_cell_angle_alpha   117.43684677
_cell_angle_beta   99.33263960
_cell_angle_gamma   99.31794480
_symmetry_Int_Tables_number   1
_chemical_formula_structural   CoH24(C5N)8
_chemical_formula_sum   'Co3 H72 C120 N24'
_cell_volume   2862.94074125
_cell_formula_units_Z   3
loop_
 _symmetry_equiv_pos_site_id
 _symmetry_equiv_pos_as_xyz
  1  'x, y, z'
loop_
 _atom_site_type_symbol
 _atom_site_label
 _atom_site_symmetry_multiplicity
 _atom_site_fract_x
 _atom_site_fract_y
 _atom_site_fract_z
 _atom_site_occupancy
 _atom_site_pbe_bader_charge
 _atom_site_pbe_bader_spin_density
 _atom_site_pbe_cm5_charge
 _atom_site_pbe_ddec_charge
 _atom_site_pbe_ddec_spin_density
 _atom_site_pbe_ddec_sum_bond_order
 _atom_site_pbe_magmom
Co  Co0  1  0.50001570  0.50000403  0.50001544  1  1.117312  1.006703  0.668533  0.489063  1.101336  3.071822  0.998
Co  Co1  1  0.99999108  0.00000536  0.50000842  1  1.114422  1.007493  0.667745  0.489114  1.102165  3.073435  0.999
Co  Co2  1  0.99999921  0.49997934  0.99997872  1  1.117144  1.006244  0.668786  0.488705  1.100735  3.074485  0.998
H  H3  1  0.08965018  0.34296227  0.57366554  1  0.087008  6.9e-05  0.10245  0.121763  3.7e-05  1.015784  0.0
H  H4  1  0.06218788  0.49815440  0.64276037  1  0.074382  3.3e-05  0.098442  0.113006  -1e-05  1.055436  0.0
H  H5  1  0.66107668  0.23042304  0.34348319  1  0.072649  1.8e-05  0.101426  0.118323  -9e-06  1.027348  0.0
H  H6  1  0.43091793  0.18889302  0.39890318  1  0.130206  2.5e-05  0.101033  0.120183  -6e-06  1.039308  0.0
H  H7  1  0.03313220  0.41361089  0.43118535  1  0.085043  -8e-05  0.100626  0.113485  -0.000122  1.036194  0.0
H  H8  1  0.18028890  0.33121664  0.34282030  1  0.092864  -7.4e-05  0.107857  0.078273  -0.000116  1.014432  0.0
H  H9  1  0.80285869  0.20200733  0.14329918  1  0.100192  -2.8e-05  0.11261  0.079872  -2.5e-05  0.969635  0.0
H  H10  1  0.63810293  0.27782064  0.22400982  1  0.075543  2.4e-05  0.105797  0.114958  7e-06  0.990886  0.0
H  H11  1  0.43558405  0.26381619  0.58304284  1  0.07482  0.001229  0.108122  0.11998  0.000497  0.989685  0.001
H  H12  1  0.31988154  0.13211490  0.57538338  1  0.080729  0.002006  0.114923  0.08485  0.00065  1.015144  0.001
H  H13  1  0.94417998  0.08035154  0.39253151  1  0.095422  0.00191  0.114394  0.078953  0.000562  1.025878  0.001
H  H14  1  0.04556287  0.20905208  0.39119551  1  0.089789  0.001046  0.10997  0.122322  0.000425  0.994914  0.0
H  H15  1  0.91034545  0.65705498  0.42635996  1  0.087059  6.9e-05  0.102383  0.121745  3.7e-05  1.015857  0.0
H  H16  1  0.93781774  0.50186101  0.35724884  1  0.07458  3.3e-05  0.0985  0.113065  -1e-05  1.055397  0.0
H  H17  1  0.33891641  0.76958257  0.65651843  1  0.072659  1.8e-05  0.101426  0.118364  -9e-06  1.027351  0.0
H  H18  1  0.56910068  0.81111566  0.60110605  1  0.130018  2.5e-05  0.101071  0.120192  -6e-06  1.039177  0.0
H  H19  1  0.96687789  0.58639166  0.56880470  1  0.084251  -8e-05  0.10063  0.113546  -0.000122  1.036355  0.0
H  H20  1  0.81970234  0.66878530  0.65715960  1  0.092813  -7.4e-05  0.107847  0.078288  -0.000115  1.014404  0.0
H  H21  1  0.19710875  0.79800807  0.85669238  1  0.099924  -2.8e-05  0.112521  0.079622  -2.5e-05  0.969743  0.0
H  H22  1  0.36188428  0.72219722  0.77598966  1  0.075572  2.5e-05  0.105785  0.114898  7e-06  0.991045  0.0
H  H23  1  0.56443587  0.73618637  0.41698774  1  0.074968  0.001228  0.108246  0.120197  0.000497  0.989614  0.001
H  H24  1  0.68012613  0.86789806  0.42465679  1  0.080667  0.002005  0.115015  0.084995  0.000649  1.015272  0.001
H  H25  1  0.05582895  0.91965958  0.60750739  1  0.095014  0.001909  0.114367  0.078872  0.000561  1.026021  0.001
H  H26  1  0.95445160  0.79095048  0.60883412  1  0.089241  0.001047  0.109939  0.122367  0.000425  0.994725  0.0
H  H27  1  0.74681758  0.23067168  0.65709233  1  0.057462  5.6e-05  0.102288  0.122265  3.6e-05  1.016017  0.0
H  H28  1  0.56406716  0.14453945  0.50189665  1  0.086771  3.4e-05  0.097792  0.112263  -1.1e-05  1.054855  0.0
H  H29  1  0.43106478  0.11332729  0.76969766  1  0.066602  1.7e-05  0.10144  0.118847  -8e-06  1.027673  0.0
H  H30  1  0.24213101  0.21010209  0.81131016  1  0.101608  1.5e-05  0.101202  0.121342  -6e-06  1.038691  0.0
H  H31  1  0.62028640  0.01755048  0.58637809  1  0.083815  -8e-05  0.101287  0.113841  -0.000121  1.037038  0.0
H  H32  1  0.84967988  0.01165137  0.66899369  1  0.078162  -7.7e-05  0.107701  0.078182  -0.000118  1.014699  0.0
H  H33  1  0.60091447  0.94145962  0.79802207  1  0.082081  -3e-05  0.111888  0.078873  -2.5e-05  0.969782  0.0
H  H34  1  0.36064995  0.94660591  0.72221296  1  0.062525  2.5e-05  0.106112  0.114664  7e-06  0.991045  0.0
H  H35  1  0.17175147  0.31937033  0.73628122  1  0.081948  0.001243  0.108008  0.119456  0.000505  0.989735  0.001
H  H36  1  0.18749082  0.44347166  0.86794683  1  0.097771  0.001996  0.114989  0.085446  0.000642  1.013852  0.001
H  H37  1  0.86395738  0.31230286  0.91972824  1  0.084337  0.001926  0.114548  0.079555  0.000574  1.026241  0.001
H  H38  1  0.83657869  0.18225233  0.79096583  1  0.115999  0.001033  0.110038  0.1229  0.000424  0.993735  0.0
H  H39  1  0.25316132  0.76931863  0.34292886  1  0.057498  5.6e-05  0.102253  0.122219  3.6e-05  1.015979  0.0
H  H40  1  0.43591365  0.85548086  0.49813380  1  0.087073  3.3e-05  0.097764  0.112291  -1.1e-05  1.054839  0.0
H  H41  1  0.56895119  0.88669791  0.23032682  1  0.066726  1.7e-05  0.101348  0.118724  -8e-06  1.02762  0.0
H  H42  1  0.75788862  0.78991516  0.18870362  1  0.102409  1.5e-05  0.101158  0.121139  -6e-06  1.038977  0.0
H  H43  1  0.37972190  0.98247900  0.41364097  1  0.083882  -8e-05  0.101385  0.113998  -0.00012  1.03678  0.0
H  H44  1  0.15031836  0.98835363  0.33101225  1  0.078074  -7.7e-05  0.107722  0.078211  -0.000118  1.014732  0.0
H  H45  1  0.39906883  0.05852641  0.20196557  1  0.082093  -3e-05  0.11186  0.078839  -2.5e-05  0.969827  0.0
H  H46  1  0.63934637  0.05340399  0.27778880  1  0.062641  2.4e-05  0.106111  0.114672  7e-06  0.991014  0.0
H  H47  1  0.82825329  0.68061937  0.26372132  1  0.081717  0.001241  0.10803  0.119531  0.000504  0.989837  0.001
H  H48  1  0.81252385  0.55652478  0.13205802  1  0.097466  0.001993  0.114971  0.085416  0.000641  1.013819  0.001
H  H49  1  0.13605507  0.68769786  0.08027893  1  0.084137  0.001923  0.11455  0.079576  0.000573  1.026112  0.001
H  H50  1  0.16341461  0.81774717  0.20903613  1  0.116191  0.001032  0.110044  0.12291  0.000424  0.99366  0.0
H  H51  1  0.51623228  0.42613896  0.76916840  1  0.077714  6.5e-05  0.102371  0.122118  3.7e-05  1.015172  0.0
H  H52  1  0.41961212  0.35720379  0.85538413  1  0.098512  3.7e-05  0.098325  0.112624  -1.4e-05  1.054186  0.0
H  H53  1  0.31742859  0.65643095  0.88674743  1  0.083229  2.7e-05  0.101847  0.119605  -8e-06  1.02781  0.0
H  H54  1  0.03162783  0.60130383  0.79001750  1  0.096948  1.3e-05  0.101105  0.120158  -4e-06  1.040047  0.0
H  H55  1  0.60254408  0.56871902  0.98235551  1  0.075245  -8.1e-05  0.101048  0.114653  -0.000121  1.035317  0.0
H  H56  1  0.83792453  0.65729123  0.98851705  1  0.081374  -7.4e-05  0.108189  0.079047  -0.000114  1.014666  0.0
H  H57  1  0.65924887  0.85648052  0.05859473  1  0.083114  -2.9e-05  0.111957  0.080486  -2.5e-05  0.968177  0.0
H  H58  1  0.41392266  0.77556090  0.05348772  1  0.067042  2.5e-05  0.106208  0.115441  7e-06  0.99051  0.0
H  H59  1  0.85257679  0.41709225  0.68082496  1  0.06887  0.001232  0.108704  0.121237  0.000498  0.987932  0.001
H  H60  1  0.74482869  0.42482265  0.55672537  1  0.082886  0.002007  0.115475  0.085373  0.000653  1.01406  0.001
H  H61  1  0.55119183  0.60728871  0.68768575  1  0.092217  0.001885  0.114223  0.07947  0.000557  1.027279  0.001
H  H62  1  0.65397286  0.60872235  0.81779039  1  0.100549  0.001042  0.109613  0.121711  0.000426  0.994372  0.0
H  H63  1  0.48374036  0.57385196  0.23081229  1  0.078271  6.5e-05  0.102382  0.122093  3.7e-05  1.015345  0.0
H  H64  1  0.58036971  0.64277060  0.14457921  1  0.098687  3.7e-05  0.098372  0.112756  -1.4e-05  1.054105  0.0
H  H65  1  0.68255382  0.34354895  0.11321326  1  0.083924  2.7e-05  0.101749  0.119462  -8e-06  1.027934  0.0
H  H66  1  0.96835695  0.39868954  0.20996685  1  0.096883  1.3e-05  0.101149  0.120106  -4e-06  1.039988  0.0
H  H67  1  0.39746297  0.43125782  0.01761356  1  0.07514  -8.1e-05  0.101049  0.114758  -0.000121  1.035381  0.0
H  H68  1  0.16206844  0.34269234  0.01144198  1  0.080787  -7.4e-05  0.108171  0.079116  -0.000114  1.014469  0.0
H  H69  1  0.34071149  0.14349019  0.94136261  1  0.083428  -2.9e-05  0.111893  0.080401  -2.5e-05  0.96818  0.0
H  H70  1  0.58605812  0.22440921  0.94648089  1  0.066431  2.5e-05  0.106295  0.115487  7e-06  0.990387  0.0
H  H71  1  0.14741258  0.58291030  0.31916555  1  0.068577  0.001231  0.10869  0.12118  0.000497  0.988034  0.001
H  H72  1  0.25519988  0.57520377  0.44327137  1  0.083304  0.002005  0.115364  0.08527  0.000652  1.014129  0.001
H  H73  1  0.44882950  0.39272975  0.31231670  1  0.091872  0.001883  0.114165  0.079326  0.000557  1.027327  0.001
H  H74  1  0.34601341  0.39127836  0.18220373  1  0.100148  0.001041  0.109584  0.121694  0.000425  0.994436  0.0
C  C75  1  0.73210863  0.60739447  0.47074282  1  0.423712  -0.0104  0.084449  0.169072  -0.010877  4.069998  -0.007
C  C76  1  0.15140649  0.39476193  0.57123575  1  -0.051976  -0.005696  -0.110663  -0.191433  -0.006054  4.006803  -0.003
C  C77  1  0.13722222  0.47271053  0.60573176  1  -0.100426  -0.006615  -0.109824  -0.187585  -0.00695  4.00598  -0.004
C  C78  1  0.24552916  0.51814353  0.58509379  1  0.394289  -0.009401  0.084887  0.164495  -0.009696  4.063722  -0.006
C  C79  1  0.27156810  0.60201156  0.61418691  1  0.033067  -0.006195  -0.005759  -0.083908  -0.006886  3.995181  -0.003
C  C80  1  0.38432054  0.64596982  0.59841615  1  0.356877  -0.00932  0.081749  0.15569  -0.009537  4.072025  -0.006
C  C81  1  0.59466974  0.26875300  0.37733486  1  -0.070396  -0.006607  -0.1096  -0.188802  -0.007018  4.012842  -0.004
C  C82  1  0.47989786  0.24807694  0.40616159  1  -0.117359  -0.005731  -0.107317  -0.17976  -0.006078  3.995012  -0.003
C  C83  1  0.43131812  0.32082268  0.44866566  1  0.419854  -0.010591  0.086817  0.168809  -0.01108  4.063856  -0.007
C  C84  1  0.68243146  0.67655822  0.51167067  1  0.030252  -0.006362  -0.003482  -0.08473  -0.007111  3.995306  -0.003
C  C85  1  0.82247320  0.35253865  0.33489574  1  -0.018141  -1.8e-05  0.007578  0.123231  -1.9e-05  4.003164  0.0
C  C86  1  0.97768756  0.36743365  0.36745114  1  -0.042093  -0.000316  -0.091183  -0.188395  -0.000348  3.939464  0.0
C  C87  1  0.05967198  0.32087977  0.31770724  1  0.505907  -1.8e-05  0.034895  0.089124  -3.7e-05  4.010762  0.0
C  C88  1  0.85046085  0.24906301  0.20776838  1  0.474425  -4.7e-05  0.036125  0.085777  -3.9e-05  4.034986  0.0
C  C89  1  0.75840395  0.29161313  0.25258288  1  -0.07783  -0.000286  -0.092396  -0.195346  -0.000291  3.964862  0.0
C  C90  1  0.75123838  0.75263344  0.51218594  1  -0.049605  -0.002659  0.015377  0.132557  -0.002664  4.005822  -0.002
C  C91  1  0.67411941  0.77533431  0.46008104  1  0.020609  0.003558  -0.086451  -0.191376  0.001871  3.955464  0.003
C  C92  1  0.73830622  0.84858436  0.46419243  1  0.438145  -0.00051  0.044774  0.092009  -0.001559  3.962005  -0.001
C  C93  1  0.05254293  0.12290034  0.43426138  1  0.457378  -0.001355  0.049844  0.100973  -0.002268  3.949161  -0.001
C  C94  1  0.10865181  0.19473633  0.43391191  1  0.028257  0.003561  -0.080001  -0.171866  0.001852  3.922979  0.003
C  C95  1  0.26792011  0.39261482  0.52928528  1  0.421432  -0.010403  0.084481  0.168913  -0.010876  4.070126  -0.007
C  C96  1  0.84860899  0.60524919  0.42878692  1  -0.052265  -0.005695  -0.110589  -0.191548  -0.006053  4.006949  -0.003
C  C97  1  0.86278903  0.52730304  0.39428333  1  -0.100707  -0.006616  -0.109753  -0.187367  -0.006951  4.005879  -0.004
C  C98  1  0.75448697  0.48186453  0.41492124  1  0.39469  -0.009401  0.084975  0.164425  -0.009696  4.063564  -0.006
C  C99  1  0.72843899  0.39799589  0.38582242  1  0.032987  -0.006192  -0.005761  -0.083773  -0.006882  3.995035  -0.003
C  C100  1  0.61569589  0.35403886  0.40159762  1  0.357165  -0.00932  0.081737  0.155696  -0.009538  4.071869  -0.006
C  C101  1  0.40533687  0.73125568  0.62267552  1  -0.070198  -0.006606  -0.109649  -0.188916  -0.007016  4.012682  -0.004
C  C102  1  0.52012028  0.75193296  0.59385654  1  -0.116936  -0.00573  -0.107263  -0.179624  -0.006078  3.994568  -0.003
C  C103  1  0.56870905  0.67918783  0.55136131  1  0.384574  -0.010628  0.086757  0.168999  -0.011077  4.063474  -0.007
C  C104  1  0.31759758  0.32345168  0.48836088  1  -0.005511  -0.006397  -0.003651  -0.084483  -0.007109  3.994863  -0.003
C  C105  1  0.17752186  0.64747308  0.66510101  1  -0.018097  -1.8e-05  0.00756  0.123255  -1.9e-05  4.003486  0.0
C  C106  1  0.02231438  0.63257441  0.63253818  1  -0.040414  -0.000316  -0.091184  -0.188494  -0.000348  3.939568  0.0
C  C107  1  0.94032154  0.67912889  0.68227595  1  0.504435  -1.8e-05  0.035007  0.08917  -3.7e-05  4.010671  0.0
C  C108  1  0.14951841  0.75095423  0.79221920  1  0.481481  -4.7e-05  0.036403  0.086319  -3.9e-05  4.034622  0.0
C  C109  1  0.24158434  0.70840472  0.74741041  1  -0.083893  -0.000286  -0.092447  -0.195375  -0.000292  3.964973  0.0
C  C110  1  0.24878058  0.24737156  0.48784203  1  -0.046093  -0.002657  0.015298  0.132367  -0.002664  4.005534  -0.002
C  C111  1  0.32589362  0.22467192  0.53994912  1  0.02108  0.00356  -0.086289  -0.190974  0.001872  3.955265  0.003
C  C112  1  0.26170289  0.15142493  0.53583988  1  0.437662  -0.00051  0.044775  0.092001  -0.001558  3.961931  -0.001
C  C113  1  0.94747849  0.87710957  0.56577375  1  0.458298  -0.001355  0.04999  0.101253  -0.002267  3.948982  -0.001
C  C114  1  0.89136978  0.80527173  0.56611925  1  0.028523  0.003562  -0.080057  -0.172044  0.001852  3.92299  0.003
C  C115  1  0.12456718  0.86336472  0.39260334  1  0.431666  -0.010382  0.086019  0.171875  -0.010868  4.069208  -0.007
C  C116  1  0.75669387  0.17641161  0.60527433  1  -0.055013  -0.005708  -0.111611  -0.195017  -0.006058  4.008275  -0.003
C  C117  1  0.66450030  0.13291853  0.52732034  1  -0.056163  -0.006545  -0.108686  -0.185159  -0.006925  4.005472  -0.003
C  C118  1  0.72725258  0.06682094  0.48185767  1  0.429377  -0.009385  0.083556  0.164855  -0.009701  4.061071  -0.006
C  C119  1  0.66910137  0.01194646  0.39799603  1  -0.04562  -0.006232  -0.006614  -0.087393  -0.006854  3.993923  -0.003
C  C120  1  0.73785548  0.95217632  0.35399702  1  0.381075  -0.009321  0.082075  0.158226  -0.009563  4.071041  -0.006
C  C121  1  0.32637305  0.10886614  0.73134025  1  -0.036464  -0.006597  -0.109333  -0.189077  -0.007026  4.010015  -0.004
C  C122  1  0.23213611  0.15829920  0.75205106  1  -0.104058  -0.005739  -0.107808  -0.182253  -0.006095  3.993892  -0.003
C  C123  1  0.11081539  0.12803148  0.67925780  1  0.37829  -0.010653  0.086197  0.169837  -0.01111  4.0641  -0.007
C  C124  1  0.00563710  0.83498032  0.32340238  1  0.033121  -0.006375  -0.003053  -0.083201  -0.007129  3.994171  -0.003
C  C125  1  0.47043738  0.98258879  0.64747655  1  0.005244  -1.4e-05  0.00793  0.123046  -1.7e-05  4.000242  0.0
C  C126  1  0.61083500  0.00010458  0.63260580  1  -0.0763  -0.000323  -0.091831  -0.188187  -0.000355  3.935547  0.0
C  C127  1  0.73930059  0.99690983  0.67925676  1  0.517712  -1.9e-05  0.035307  0.089394  -4e-05  4.00823  0.0
C  C128  1  0.60167151  0.95891270  0.75101637  1  0.479344  -4.8e-05  0.03678  0.08684  -4.1e-05  4.033671  0.0
C  C129  1  0.46720513  0.96128359  0.70844326  1  -0.055258  -0.000279  -0.091614  -0.192772  -0.000284  3.962455  0.0
C  C130  1  0.99851697  0.75942209  0.24733979  1  -0.033241  -0.002653  0.015682  0.130976  -0.002662  4.006716  -0.002
C  C131  1  0.89881471  0.68457783  0.22460386  1  -0.033959  0.003611  -0.08677  -0.190239  0.001857  3.955751  0.003
C  C132  1  0.88985437  0.61540740  0.15136058  1  0.475494  -0.000658  0.044415  0.090945  -0.001644  3.959136  -0.001
C  C133  1  0.92970217  0.31148059  0.87716071  1  0.532261  -0.001324  0.048771  0.099879  -0.002204  3.949078  -0.001
C  C134  1  0.91397296  0.23928933  0.80530016  1  -0.065604  0.003672  -0.079845  -0.171946  0.001868  3.922517  0.003
C  C135  1  0.87541385  0.13662988  0.60741057  1  0.43176  -0.010382  0.086222  0.172127  -0.010868  4.069227  -0.007
C  C136  1  0.24328481  0.82358482  0.39474495  1  -0.053935  -0.005707  -0.111548  -0.19495  -0.006057  4.008445  -0.003
C  C137  1  0.33547551  0.86708525  0.47269582  1  -0.05735  -0.006547  -0.108624  -0.185149  -0.006926  4.005632  -0.003
C  C138  1  0.27272275  0.93318406  0.51815326  1  0.429626  -0.009384  0.083556  0.164945  -0.0097  4.060667  -0.006
C  C139  1  0.33089461  0.98806711  0.60201733  1  -0.046292  -0.006241  -0.006784  -0.087597  -0.006862  3.993916  -0.003
C  C140  1  0.26214909  0.04783480  0.64602008  1  0.381923  -0.009314  0.082235  0.158353  -0.009556  4.070798  -0.006
C  C141  1  0.67363959  0.89114804  0.26867523  1  -0.036527  -0.006594  -0.109304  -0.189083  -0.007022  4.010463  -0.004
C  C142  1  0.76786825  0.84171804  0.24796309  1  -0.104003  -0.005743  -0.107698  -0.181834  -0.0061  3.994119  -0.003
C  C143  1  0.88918533  0.87197413  0.32075646  1  0.376146  -0.010657  0.086093  0.1696  -0.01111  4.063859  -0.007
C  C144  1  0.99435297  0.16501489  0.67660258  1  0.033413  -0.006373  -0.003199  -0.083425  -0.007129  3.994264  -0.003
C  C145  1  0.52955833  0.01741988  0.35252617  1  -0.046997  -1.8e-05  0.00791  0.1229  -1.7e-05  4.000669  0.0
C  C146  1  0.38916486  0.99991021  0.36740111  1  -0.0246  -0.000319  -0.091934  -0.188324  -0.000355  3.93576  0.0
C  C147  1  0.26069765  0.00309517  0.32074813  1  0.517753  -1.9e-05  0.035261  0.089328  -4e-05  4.008363  0.0
C  C148  1  0.39831576  0.04108128  0.24897892  1  0.479407  -4.8e-05  0.036827  0.086856  -4.1e-05  4.033747  0.0
C  C149  1  0.53278861  0.03871896  0.29155806  1  -0.055135  -0.000279  -0.091556  -0.192665  -0.000284  3.962552  0.0
C  C150  1  0.00147868  0.24057556  0.75266674  1  -0.033234  -0.002655  0.01567  0.130944  -0.002664  4.006981  -0.002
C  C151  1  0.10119407  0.31541554  0.77540383  1  -0.034022  0.003615  -0.0867  -0.190109  0.001859  3.95586  0.003
C  C152  1  0.11016253  0.38458475  0.84864456  1  0.475867  -0.000657  0.044342  0.090752  -0.001645  3.959291  -0.001
C  C153  1  0.07031124  0.68851768  0.12284698  1  0.532011  -0.001324  0.048788  0.099958  -0.002202  3.948809  -0.001
C  C154  1  0.08603094  0.76070955  0.19470759  1  -0.065489  0.003669  -0.079788  -0.171845  0.001866  3.922133  0.003
C  C155  1  0.26122773  0.52934019  0.13666297  1  0.444918  -0.010385  0.085658  0.171741  -0.010869  4.069612  -0.007
C  C156  1  0.58034223  0.42861868  0.82345660  1  -0.104193  -0.005706  -0.110235  -0.192671  -0.006026  4.006143  -0.003
C  C157  1  0.53166105  0.39422032  0.86697309  1  -0.084748  -0.006592  -0.110333  -0.187531  -0.006952  4.005571  -0.004
C  C158  1  0.66055335  0.41494626  0.93312179  1  0.418897  -0.009368  0.084856  0.167  -0.009671  4.061293  -0.006
C  C159  1  0.65732688  0.38597712  0.98798766  1  0.006265  -0.006217  -0.006538  -0.087217  -0.006889  3.995445  -0.003
C  C160  1  0.78593197  0.40163144  0.04767687  1  0.39028  -0.009252  0.082798  0.158942  -0.009503  4.071173  -0.006
C  C161  1  0.21720176  0.62263982  0.89127931  1  -0.102558  -0.006626  -0.110483  -0.192012  -0.00701  4.013122  -0.004
C  C162  1  0.07348874  0.59395296  0.84188364  1  -0.038781  -0.005657  -0.107264  -0.179404  -0.006058  3.99447  -0.003
C  C163  1  0.98251237  0.55144066  0.87215321  1  0.348418  -0.010646  0.086132  0.16937  -0.011071  4.065117  -0.007
C  C164  1  0.17085646  0.48833190  0.16489972  1  0.055582  -0.006313  -0.005196  -0.087916  -0.007079  3.998596  -0.003
C  C165  1  0.48772063  0.66484441  0.01742780  1  -0.021447  -1.6e-05  0.008157  0.123132  -1.8e-05  4.000814  0.0
C  C166  1  0.61057055  0.63241795  0.99991068  1  -0.035067  -0.000312  -0.09171  -0.189402  -0.000344  3.934452  0.0
C  C167  1  0.74225252  0.68227291  0.00320269  1  0.505956  -1.7e-05  0.035427  0.08931  -3.6e-05  4.007387  0.0
C  C168  1  0.64260809  0.79203673  0.04116437  1  0.496836  -4.5e-05  0.03541  0.082569  -3.8e-05  4.03434  0.0
C  C169  1  0.50578767  0.74711417  0.03878031  1  -0.060895  -0.000291  -0.090924  -0.191975  -0.000295  3.962551  0.0
C  C170  1  0.23927771  0.48785811  0.24047954  1  -0.064317  -0.002632  0.01654  0.134694  -0.002634  4.005574  -0.002
C  C171  1  0.21408177  0.53987063  0.31526903  1  -0.066555  0.003673  -0.087988  -0.194288  0.00187  3.956565  0.003
C  C172  1  0.27403258  0.53573439  0.38443912  1  0.544068  -0.000601  0.045256  0.093118  -0.001543  3.962615  -0.001
C  C173  1  0.61798793  0.56565579  0.68855303  1  0.494338  -0.00136  0.04783  0.096751  -0.002269  3.951722  -0.001
C  C174  1  0.67437617  0.56600395  0.76075887  1  -0.04541  0.003632  -0.079598  -0.170373  0.001854  3.923925  0.003
C  C175  1  0.73876436  0.47063726  0.86330991  1  0.445012  -0.010386  0.085657  0.17175  -0.01087  4.069557  -0.007
C  C176  1  0.41964607  0.57136428  0.17651694  1  -0.102445  -0.005709  -0.110224  -0.192544  -0.00603  4.006375  -0.003
C  C177  1  0.46832423  0.60575223  0.13299333  1  -0.087227  -0.006591  -0.110474  -0.187948  -0.006951  4.005724  -0.004
C  C178  1  0.33943916  0.58501895  0.06684025  1  0.418387  -0.009371  0.085007  0.167365  -0.009675  4.060929  -0.006
C  C179  1  0.34267091  0.61398993  0.01197511  1  0.007937  -0.006211  -0.00653  -0.0875  -0.006883  3.99593  -0.003
C  C180  1  0.21407560  0.59833989  0.95228970  1  0.388713  -0.009254  0.082682  0.15911  -0.009503  4.071111  -0.006
C  C181  1  0.78279160  0.37733579  0.10868602  1  -0.105857  -0.006626  -0.110457  -0.191753  -0.007007  4.01303  -0.004
C  C182  1  0.92649817  0.40602938  0.15809265  1  -0.03653  -0.005659  -0.107282  -0.179344  -0.006061  3.994111  -0.003
C  C183  1  0.01747877  0.44853924  0.12782125  1  0.348727  -0.010645  0.086145  0.169202  -0.01107  4.065031  -0.007
C  C184  1  0.82913446  0.51165413  0.83508172  1  0.055436  -0.006312  -0.005114  -0.088046  -0.007076  3.998842  -0.003
C  C185  1  0.51227556  0.33512815  0.98254367  1  -0.022298  -1.6e-05  0.008183  0.122832  -1.8e-05  4.000664  0.0
C  C186  1  0.38942979  0.36756072  0.00006080  1  -0.033764  -0.000312  -0.091597  -0.189293  -0.000344  3.934355  0.0
C  C187  1  0.25774420  0.31770943  0.99676548  1  0.506544  -1.7e-05  0.035351  0.089094  -3.6e-05  4.007212  0.0
C  C188  1  0.35736903  0.20794133  0.95880342  1  0.497373  -4.5e-05  0.035566  0.08278  -3.8e-05  4.034057  0.0
C  C189  1  0.49419993  0.25286083  0.96119109  1  -0.061247  -0.000291  -0.091026  -0.191985  -0.000296  3.962335  0.0
C  C190  1  0.76071494  0.51214444  0.75951018  1  -0.063584  -0.002629  0.016565  0.134747  -0.002631  4.005709  -0.002
C  C191  1  0.78592030  0.46013988  0.68472405  1  -0.066453  0.003674  -0.088007  -0.194335  0.001871  3.956474  0.003
C  C192  1  0.72598748  0.46428591  0.61555885  1  0.54426  -0.000596  0.045184  0.092969  -0.001541  3.962441  -0.001
C  C193  1  0.38202641  0.43435962  0.31144903  1  0.497449  -0.001378  0.048061  0.097166  -0.00227  3.951674  -0.001
C  C194  1  0.32562408  0.43400289  0.23923709  1  -0.044969  0.003629  -0.079594  -0.170432  0.001853  3.92387  0.003
N  N195  1  0.67567084  0.53173284  0.46259022  1  -1.110908  -0.002489  -0.345085  -0.309419  -0.002538  3.458555  0.001
N  N196  1  0.48610410  0.61445639  0.55495086  1  -1.124179  -0.002834  -0.349727  -0.313987  -0.003036  3.47962  0.0
N  N197  1  0.99898531  0.26238724  0.23899396  1  -1.204005  -0.000166  -0.338662  -0.287911  -0.000158  3.298883  0.0
N  N198  1  0.87324946  0.89896438  0.51588653  1  -1.198829  0.070826  -0.308233  -0.218427  0.037816  3.518598  0.062
N  N199  1  0.32435293  0.46827522  0.53743535  1  -1.111016  -0.002493  -0.34482  -0.30912  -0.002542  3.45868  0.001
N  N200  1  0.51392150  0.38555535  0.44507342  1  -1.124804  -0.002835  -0.349831  -0.314  -0.003036  3.479963  0.0
N  N201  1  0.00099260  0.73762510  0.76098707  1  -1.204127  -0.000166  -0.338871  -0.288121  -0.000158  3.298894  0.0
N  N202  1  0.12676633  0.10104735  0.48414586  1  -1.198237  0.07082  -0.308055  -0.218301  0.037817  3.519186  0.062
N  N203  1  0.14387096  0.93092594  0.46828740  1  -1.136888  -0.002721  -0.344693  -0.309991  -0.002705  3.458834  0.001
N  N204  1  0.87126786  0.94028486  0.38551051  1  -1.132982  -0.002743  -0.34958  -0.316001  -0.002945  3.48158  0.0
N  N205  1  0.73694842  0.97671749  0.73774776  1  -1.177334  -0.000159  -0.339759  -0.28965  -0.000149  3.299455  0.0
N  N206  1  0.97432683  0.61674488  0.10097342  1  -1.208683  0.070867  -0.307094  -0.217256  0.037866  3.518229  0.062
N  N207  1  0.85609848  0.06907600  0.53172479  1  -1.136909  -0.002721  -0.344813  -0.310005  -0.002704  3.458927  0.001
N  N208  1  0.12872990  0.05972137  0.61450850  1  -1.135074  -0.002742  -0.349621  -0.316035  -0.00294  3.481685  0.0
N  N209  1  0.26304090  0.02327404  0.26224708  1  -1.177444  -0.000158  -0.339782  -0.289622  -0.000149  3.299451  0.0
N  N210  1  0.02568976  0.38324666  0.89902880  1  -1.20989  0.070938  -0.306972  -0.216752  0.037902  3.518553  0.062
N  N211  1  0.21291557  0.53740303  0.06907544  1  -1.137593  -0.002668  -0.344899  -0.310213  -0.002664  3.458461  0.001
N  N212  1  0.93118505  0.44499381  0.05953091  1  -1.128823  -0.002634  -0.349835  -0.315122  -0.002863  3.480712  0.0
N  N213  1  0.76009397  0.76095465  0.02340639  1  -1.193031  -0.000162  -0.33952  -0.288582  -0.000154  3.298095  0.0
N  N214  1  0.35741237  0.48412903  0.38316667  1  -1.19136  0.070891  -0.307095  -0.216522  0.037915  3.519563  0.062
N  N215  1  0.78707088  0.46256095  0.93088608  1  -1.137065  -0.002672  -0.344868  -0.310093  -0.002668  3.458973  0.001
N  N216  1  0.06881768  0.55497874  0.94043689  1  -1.129029  -0.002634  -0.349784  -0.315241  -0.002864  3.480726  0.0
N  N217  1  0.23988735  0.23902525  0.97656101  1  -1.193373  -0.000163  -0.339591  -0.28857  -0.000154  3.298103  0.0
N  N218  1  0.64261346  0.51589188  0.61683778  1  -1.189282  0.070936  -0.307066  -0.21621  0.037943  3.519424  0.062
