# generated using pymatgen
data_EuH54C57(N2O5)3
_symmetry_space_group_name_H-M   'P 1'
_cell_length_a   10.94859478
_cell_length_b   19.74526845
_cell_length_c   19.74635872
_cell_angle_alpha   120.00031129
_cell_angle_beta   89.99993342
_cell_angle_gamma   90.00021004
_symmetry_Int_Tables_number   1
_chemical_formula_structural   EuH54C57(N2O5)3
_chemical_formula_sum   'Eu2 H108 C114 N12 O30'
_cell_volume   3696.90011613
_cell_formula_units_Z   2
loop_
 _symmetry_equiv_pos_site_id
 _symmetry_equiv_pos_as_xyz
  1  'x, y, z'
loop_
 _atom_site_type_symbol
 _atom_site_label
 _atom_site_symmetry_multiplicity
 _atom_site_fract_x
 _atom_site_fract_y
 _atom_site_fract_z
 _atom_site_occupancy
 _atom_site_pbe_bader_charge
 _atom_site_pbe_bader_spin_density
 _atom_site_pbe_cm5_charge
 _atom_site_pbe_ddec_charge
 _atom_site_pbe_ddec_spin_density
 _atom_site_pbe_ddec_sum_bond_order
 _atom_site_pbe_magmom
Eu  Eu0  1  0.35753670  0.33333505  0.66666929  1  2.182888  0  1.526796  1.983582  0  2.275223  0
Eu  Eu1  1  0.64246239  0.66666465  0.33333131  1  2.182889  0  1.526782  1.983588  0  2.275213  0
H  H2  1  0.91669824  0.14210257  0.66673765  1  0.085455  0  0.100833  0.101308  0  1.017897  0
H  H3  1  0.91670204  0.52463110  0.85789639  1  0.087602  0  0.100778  0.10123  0  1.017905  0
H  H4  1  0.91670455  0.33326506  0.47536940  1  0.09517  0  0.100812  0.101238  0  1.017929  0
H  H5  1  0.08330268  0.85789823  0.33326287  1  0.085347  0  0.100835  0.101325  0  1.017877  0
H  H6  1  0.08329796  0.47536919  0.14210362  1  0.087596  0  0.100774  0.101212  0  1.017914  0
H  H7  1  0.08329637  0.66673523  0.52463061  1  0.095175  0  0.100792  0.101211  0  1.01792  0
H  H8  1  0.96241252  0.09280922  0.75715834  1  0.062425  0  0.103522  0.10018  0  0.987867  0
H  H9  1  0.96241060  0.66435041  0.90718917  1  0.050409  0  0.103555  0.100204  0  0.987857  0
H  H10  1  0.96240980  0.24284290  0.33565435  1  0.060819  0  0.103527  0.100164  0  0.987967  0
H  H11  1  0.03758748  0.90719107  0.24284167  1  0.062421  0  0.103522  0.100186  0  0.987865  0
H  H12  1  0.03759031  0.33564908  0.09281063  1  0.050413  0  0.103536  0.100211  0  0.987835  0
H  H13  1  0.03759020  0.75715688  0.66434516  1  0.060818  0  0.103509  0.100137  0  0.987979  0
H  H14  1  0.81873652  0.11982704  0.86600929  1  0.049362  0  0.099973  0.093561  0  0.998153  0
H  H15  1  0.81873401  0.74619213  0.88017527  1  0.056529  0  0.099879  0.09345  0  0.998231  0
H  H16  1  0.81872990  0.13398773  0.25381739  1  0.070864  0  0.09995  0.093529  0  0.998243  0
H  H17  1  0.18126348  0.88017245  0.13399051  1  0.04937  0  0.099981  0.093564  0  0.998155  0
H  H18  1  0.18126599  0.25380787  0.11982504  1  0.056525  0  0.099879  0.093463  0  0.998229  0
H  H19  1  0.18127010  0.86601176  0.74618241  1  0.070871  0  0.09994  0.093529  0  0.998279  0
H  H20  1  0.62821277  0.19645620  0.88299737  1  0.059947  0  0.101127  0.098472  0  0.994723  0
H  H21  1  0.62820990  0.68655076  0.80354575  1  0.059696  0  0.101125  0.098516  0  0.994617  0
H  H22  1  0.62820762  0.11699459  0.31345224  1  0.060586  0  0.101145  0.098553  0  0.994557  0
H  H23  1  0.37178723  0.80354380  0.11700294  1  0.059954  0  0.101135  0.098487  0  0.994715  0
H  H24  1  0.37179010  0.31345003  0.19645477  1  0.05971  0  0.101136  0.098531  0  0.994604  0
H  H25  1  0.37179238  0.88300620  0.68654828  1  0.060579  0  0.10114  0.098542  0  0.994556  0
H  H26  1  0.57994198  0.24208067  0.78954534  1  0.080101  0  0.102839  0.108351  0  1.021915  0
H  H27  1  0.57994576  0.54746818  0.75791879  1  0.098016  0  0.102809  0.108328  0  1.021976  0
H  H28  1  0.57994588  0.21044565  0.45252898  1  0.081683  0  0.102836  0.108304  0  1.022001  0
H  H29  1  0.42005802  0.75791911  0.21045417  1  0.080087  0  0.10284  0.108375  0  1.021881  0
H  H30  1  0.42005424  0.45253211  0.24208122  1  0.098012  0  0.102828  0.108331  0  1.021949  0
H  H31  1  0.42005412  0.78955435  0.54747132  1  0.081699  0  0.102827  0.108273  0  1.022004  0
H  H32  1  0.65212862  0.27272338  0.69135191  1  0.101808  0  0.1186  0.099093  0  1.030694  0
H  H33  1  0.65212998  0.41862570  0.72728038  1  0.098184  0  0.118552  0.099065  0  1.030722  0
H  H34  1  0.65213616  0.30864373  0.58136888  1  0.097191  0  0.118606  0.099065  0  1.030767  0
H  H35  1  0.34787047  0.72727662  0.30864839  1  0.101815  0  0.118605  0.099089  0  1.030709  0
H  H36  1  0.34787002  0.58137430  0.27271993  1  0.098178  0  0.118557  0.099066  0  1.030744  0
H  H37  1  0.34786384  0.69135656  0.41863113  1  0.097206  0  0.118631  0.099118  0  1.030703  0
H  H38  1  0.80029552  0.24202891  0.64903495  1  0.053907  0  0.111478  0.090819  0  0.954411  0
H  H39  1  0.80029778  0.40700117  0.75797425  1  0.077133  0  0.111465  0.090811  0  0.954407  0
H  H40  1  0.80030233  0.35096433  0.59299200  1  0.058466  0  0.111497  0.090846  0  0.954365  0
H  H41  1  0.19970539  0.75797087  0.35096455  1  0.053917  0  0.111484  0.090831  0  0.954408  0
H  H42  1  0.19970222  0.59299883  0.24202606  1  0.077131  0  0.111467  0.090814  0  0.954396  0
H  H43  1  0.19969858  0.64903567  0.40700831  1  0.058481  0  0.111511  0.090853  0  0.954381  0
H  H44  1  0.33348022  0.15619731  0.50942965  1  0.098769  0  0.106696  0.090875  0  1.073519  0
H  H45  1  0.33347687  0.35322920  0.84380759  1  0.097933  0  0.106715  0.090888  0  1.073496  0
H  H46  1  0.33348027  0.49057209  0.64676998  1  0.09729  0  0.106702  0.09087  0  1.073467  0
H  H47  1  0.66651978  0.84380298  0.49057036  1  0.098764  0  0.106699  0.090879  0  1.073509  0
H  H48  1  0.66652313  0.64677029  0.15619221  1  0.097935  0  0.10672  0.09088  0  1.07351  0
H  H49  1  0.66651973  0.50942740  0.35322982  1  0.097292  0  0.106705  0.090876  0  1.073457  0
H  H50  1  0.24442292  0.05376032  0.38342440  1  0.07808  0  0.101423  0.107048  0  1.001483  0
H  H51  1  0.24441777  0.32966399  0.94624155  1  0.07946  0  0.101437  0.107105  0  1.001392  0
H  H52  1  0.24442083  0.61657874  0.67033544  1  0.080602  0  0.101443  0.107117  0  1.00144  0
H  H53  1  0.75557707  0.94623997  0.61657561  1  0.07808  0  0.101423  0.107051  0  1.001485  0
H  H54  1  0.75558132  0.67033630  0.05375846  1  0.07946  0  0.101431  0.107072  0  1.001442  0
H  H55  1  0.75557917  0.38342125  0.32966486  1  0.080601  0  0.101441  0.107113  0  1.001445  0
H  H56  1  0.37315754  0.93957938  0.29263068  1  0.102718  0  0.093895  0.087197  0  1.064317  0
H  H57  1  0.37315127  0.35305365  0.06041869  1  0.092671  0  0.093911  0.087207  0  1.064306  0
H  H58  1  0.37315183  0.70737519  0.64694843  1  0.094606  0  0.093913  0.087247  0  1.064313  0
H  H59  1  0.62684246  0.06042091  0.70736934  1  0.102723  0  0.093901  0.08721  0  1.064302  0
H  H60  1  0.62684873  0.64694664  0.93958133  1  0.092666  0  0.093883  0.087141  0  1.06433  0
H  H61  1  0.62684817  0.29262480  0.35305187  1  0.094605  0  0.093911  0.087244  0  1.064316  0
H  H62  1  0.58247472  0.92506358  0.33035397  1  0.066774  0  0.108076  0.127011  0  1.013122  0
H  H63  1  0.58246688  0.40529026  0.07492904  1  0.083401  0  0.108036  0.126838  0  1.013237  0
H  H64  1  0.58246904  0.66964931  0.59470857  1  0.078496  0  0.108082  0.127015  0  1.013119  0
H  H65  1  0.41752528  0.07493642  0.66964633  1  0.066779  0  0.108072  0.127003  0  1.013117  0
H  H66  1  0.41753312  0.59471003  0.92507098  1  0.083404  0  0.108039  0.126842  0  1.013246  0
H  H67  1  0.41753096  0.33035047  0.40529093  1  0.078376  0  0.108086  0.127019  0  1.013125  0
H  H68  1  0.78547170  0.97784976  0.35907061  1  0.058175  0  0.105361  0.076469  0  0.979149  0
H  H69  1  0.78546916  0.38121336  0.02214761  1  0.056372  0  0.105334  0.076409  0  0.979186  0
H  H70  1  0.78547214  0.64093539  0.61877987  1  0.067514  0  0.105331  0.076413  0  0.979119  0
H  H71  1  0.21452739  0.02215053  0.64092940  1  0.058169  0  0.105336  0.076421  0  0.97919  0
H  H72  1  0.21453084  0.61878664  0.97785270  1  0.056373  0  0.10534  0.076412  0  0.979175  0
H  H73  1  0.21452786  0.35906490  0.38122015  1  0.067519  0  0.105337  0.07641  0  0.979114  0
H  H74  1  0.74191334  0.91175845  0.39208288  1  0.106409  0  0.104707  0.082988  0  1.030432  0
H  H75  1  0.74191132  0.48031968  0.08823124  1  0.121848  0  0.104734  0.083056  0  1.030561  0
H  H76  1  0.74191312  0.60791878  0.51968131  1  0.108802  0  0.104747  0.083023  0  1.030427  0
H  H77  1  0.25808666  0.08824154  0.60791742  1  0.106414  0  0.104711  0.082981  0  1.030425  0
H  H78  1  0.25808960  0.51968010  0.91176826  1  0.121836  0  0.104733  0.083068  0  1.030512  0
H  H79  1  0.25808780  0.39208151  0.48031870  1  0.108793  0  0.104731  0.08299  0  1.030457  0
H  H80  1  0.87481881  0.88289868  0.46529112  1  0.080182  0  0.100403  0.113968  0  1.029547  0
H  H81  1  0.87482549  0.58238783  0.11709392  1  0.082177  0  0.10038  0.114053  0  1.0295  0
H  H82  1  0.87482045  0.53470814  0.41761423  1  0.076447  0  0.100399  0.114085  0  1.029534  0
H  H83  1  0.12518210  0.11710131  0.53470919  1  0.080186  0  0.100404  0.11396  0  1.029543  0
H  H84  1  0.12517451  0.41761216  0.88290639  1  0.082181  0  0.100382  0.11406  0  1.029501  0
H  H85  1  0.12517955  0.46529215  0.58238578  1  0.076445  0  0.100402  0.114095  0  1.029526  0
H  H86  1  0.99921776  0.15627243  0.46612822  1  0.06278  0  0.088331  0.132634  0  1.030392  0
H  H87  1  0.99921148  0.30985526  0.84373167  1  0.057311  0  0.088279  0.132524  0  1.030407  0
H  H88  1  0.99921603  0.53386997  0.69013585  1  0.059706  0  0.088279  0.132592  0  1.030294  0
H  H89  1  0.00078224  0.84372786  0.53387179  1  0.062792  0  0.088334  0.132638  0  1.030392  0
H  H90  1  0.00078852  0.69014474  0.15626864  1  0.057307  0  0.088288  0.132547  0  1.03036  0
H  H91  1  0.00078488  0.46613003  0.30986446  1  0.05972  0  0.088286  0.132605  0  1.030303  0
H  H92  1  0.84154448  0.13561475  0.46810090  1  0.024587  0  0.083757  0.118889  0  1.0395  0
H  H93  1  0.84153924  0.33248771  0.86438748  1  0.028206  0  0.083781  0.118894  0  1.039496  0
H  H94  1  0.84154559  0.53189512  0.66750477  1  0.029773  0  0.083804  0.118904  0  1.039504  0
H  H95  1  0.15845552  0.86438605  0.53189962  1  0.024597  0  0.083769  0.118887  0  1.039517  0
H  H96  1  0.15846076  0.66751258  0.13561253  1  0.028195  0  0.083789  0.118931  0  1.039447  0
H  H97  1  0.15845533  0.46810568  0.33249575  1  0.029757  0  0.083806  0.118899  0  1.039505  0
H  H98  1  0.92688319  0.07972638  0.38244441  1  -0.016253  0  0.086163  0.11882  0  1.008588  0
H  H99  1  0.92687972  0.30271009  0.92027044  1  0.036051  0  0.086203  0.118867  0  1.008631  0
H  H100  1  0.92688556  0.61755863  0.69727909  1  0.035463  0  0.086154  0.118817  0  1.008595  0
H  H101  1  0.07311681  0.92027391  0.61755560  1  -0.016258  0  0.08616  0.118817  0  1.008592  0
H  H102  1  0.07312028  0.69728969  0.07972906  1  0.036044  0  0.086199  0.118874  0  1.008615  0
H  H103  1  0.07311627  0.38244086  0.30272071  1  0.03546  0  0.086168  0.118806  0  1.008586  0
H  H104  1  0.70112536  0.10823955  0.56526137  1  0.540307  0  0.317773  0.270012  0  0.99913  0
H  H105  1  0.70112709  0.45701406  0.89175439  1  0.503411  0  0.31775  0.270025  0  0.999124  0
H  H106  1  0.70112281  0.43473641  0.54298132  1  0.503454  0  0.317805  0.270086  0  0.998884  0
H  H107  1  0.29887464  0.89175995  0.43473843  1  0.540312  0  0.317782  0.270028  0  0.999114  0
H  H108  1  0.29887200  0.54298543  0.10824541  1  0.503406  0  0.317777  0.27008  0  0.999025  0
H  H109  1  0.29887719  0.56526359  0.45701899  1  0.503454  0  0.317805  0.270081  0  0.998892  0
C  C110  1  0.85248359  0.15317438  0.71352341  1  -0.110223  0  -0.086055  -0.124694  0  3.953652  0
C  C111  1  0.85248662  0.56034687  0.84682340  1  -0.146063  0  -0.086043  -0.124654  0  3.953678  0
C  C112  1  0.85248706  0.28647640  0.43965340  1  -0.146803  0  -0.08607  -0.124602  0  3.953696  0
C  C113  1  0.14751641  0.84682540  0.28647610  1  -0.110101  0  -0.086062  -0.124728  0  3.953672  0
C  C114  1  0.14751338  0.43965342  0.15317662  1  -0.146077  0  -0.086025  -0.124598  0  3.953724  0
C  C115  1  0.14751294  0.71352338  0.56034610  1  -0.146822  0  -0.086016  -0.124495  0  3.95362  0
C  C116  1  0.87838266  0.12552074  0.76465225  1  -0.006913  0  -0.084837  -0.065878  0  4.00427  0
C  C117  1  0.87838150  0.63913360  0.87447777  1  0.007707  0  -0.084892  -0.065924  0  4.004293  0
C  C118  1  0.87838162  0.23534718  0.36087047  1  -0.008765  0  -0.084759  -0.065748  0  4.004248  0
C  C119  1  0.12161734  0.87447955  0.23534776  1  -0.006924  0  -0.084836  -0.065887  0  4.004286  0
C  C120  1  0.12161850  0.36086669  0.12552224  1  0.007714  0  -0.084836  -0.065904  0  4.004251  0
C  C121  1  0.12161838  0.76465231  0.63912933  1  -0.008759  0  -0.084786  -0.065774  0  4.004226  0
C  C122  1  0.79803170  0.14100726  0.82576501  1  -0.05041  0  -0.093224  -0.099956  0  4.036189  0
C  C123  1  0.79802981  0.68476427  0.85899361  1  -0.036361  0  -0.093116  -0.099779  0  4.036258  0
C  C124  1  0.79802869  0.17423160  0.31524195  1  -0.059117  0  -0.093302  -0.100061  0  4.036352  0
C  C125  1  0.20196830  0.85899274  0.17423529  1  -0.05041  0  -0.093219  -0.099925  0  4.036188  0
C  C126  1  0.20197019  0.31523573  0.14100670  1  -0.036354  0  -0.093161  -0.09985  0  4.036267  0
C  C127  1  0.20197131  0.82576789  0.68475785  1  -0.059116  0  -0.09331  -0.100111  0  4.036403  0
C  C128  1  0.69128936  0.18385848  0.83532785  1  -0.085735  0  -0.092302  -0.083824  0  4.03076  0
C  C129  1  0.69128819  0.65147654  0.81614269  1  -0.162126  0  -0.092235  -0.083881  0  4.030804  0
C  C130  1  0.69128707  0.16466580  0.34852684  1  -0.081571  0  -0.092279  -0.083919  0  4.030747  0
C  C131  1  0.30871064  0.81614151  0.16467246  1  -0.085345  0  -0.092299  -0.083847  0  4.030775  0
C  C132  1  0.30871090  0.34852426  0.18385783  1  -0.162125  0  -0.092245  -0.083918  0  4.030892  0
C  C133  1  0.30871293  0.83533420  0.65147347  1  -0.081568  0  -0.092256  -0.083875  0  4.030769  0
C  C134  1  0.66457192  0.21033440  0.78330436  1  -0.052466  0  -0.090995  -0.134284  0  3.96199  0
C  C135  1  0.66457311  0.57297293  0.78966672  1  -0.012329  0  -0.090956  -0.134185  0  3.962044  0
C  C136  1  0.66457414  0.21669012  0.42702652  1  -0.065268  0  -0.090904  -0.133981  0  3.962101  0
C  C137  1  0.33542899  0.78966610  0.21669645  1  -0.052852  0  -0.090978  -0.134266  0  3.961955  0
C  C138  1  0.33542689  0.42702757  0.21033410  1  -0.012278  0  -0.090986  -0.134149  0  3.962043  0
C  C139  1  0.33542586  0.78330988  0.57297379  1  -0.065268  0  -0.090888  -0.133929  0  3.962149  0
C  C140  1  0.74531928  0.19555493  0.72236882  1  0.016342  0  -0.011278  0.08161  0  3.965874  0
C  C141  1  0.74532121  0.52681300  0.80444445  1  0.043106  0  -0.011295  0.081528  0  3.965937  0
C  C142  1  0.74532347  0.27762754  0.47318564  1  0.035978  0  -0.011348  0.081323  0  3.966303  0
C  C143  1  0.25468072  0.80444506  0.27763149  1  0.016332  0  -0.011306  0.081565  0  3.965893  0
C  C144  1  0.25467788  0.47318700  0.19555586  1  0.043048  0  -0.011287  0.081515  0  3.965932  0
C  C145  1  0.25467653  0.72237275  0.52681438  1  0.035974  0  -0.011357  0.081271  0  3.966377  0
C  C146  1  0.71581611  0.22335449  0.66550836  1  0.286816  0  -0.050393  -0.052682  0  3.905885  0
C  C147  1  0.71581763  0.44214976  0.77664571  1  0.272309  0  -0.050359  -0.052603  0  3.905819  0
C  C148  1  0.71582207  0.33448806  0.55784585  1  0.295784  0  -0.050405  -0.052584  0  3.906014  0
C  C149  1  0.28418389  0.77664580  0.33449166  1  0.286801  0  -0.050399  -0.052683  0  3.905906  0
C  C150  1  0.28418237  0.55785024  0.22335460  1  0.272299  0  -0.05038  -0.052618  0  3.905825  0
C  C151  1  0.28417885  0.66551194  0.44215446  1  0.295783  0  -0.050435  -0.052619  0  3.906049  0
C  C152  1  0.55395416  0.16872663  0.56424251  1  1.359256  0  0.258048  0.526409  0  4.082864  0
C  C153  1  0.55395281  0.39551124  0.83127205  1  1.352619  0  0.257975  0.526348  0  4.082937  0
C  C154  1  0.55395774  0.43575874  0.60448950  1  1.365099  0  0.258084  0.526524  0  4.082557  0
C  C155  1  0.44604492  0.83127286  0.43575729  1  1.359262  0  0.258074  0.526453  0  4.082841  0
C  C156  1  0.44604811  0.60448855  0.16872746  1  1.352616  0  0.25795  0.526346  0  4.082962  0
C  C157  1  0.44604226  0.56424105  0.39551000  1  1.36509  0  0.258104  0.526579  0  4.082481  0
C  C158  1  0.50731789  0.10078037  0.49127035  1  -0.030643  0  -0.028221  -0.16405  0  3.978605  0
C  C159  1  0.50731842  0.39048657  0.89921764  1  0.010778  0  -0.028192  -0.163946  0  3.978472  0
C  C160  1  0.50731912  0.50873163  0.60951290  1  -0.001187  0  -0.028264  -0.164197  0  3.978501  0
C  C161  1  0.49268211  0.89921912  0.50872945  1  -0.030654  0  -0.028177  -0.164004  0  3.978572  0
C  C162  1  0.49268249  0.60951372  0.10078237  1  0.010779  0  -0.028162  -0.163933  0  3.978493  0
C  C163  1  0.49268088  0.49126866  0.39048712  1  -0.001179  0  -0.028268  -0.164213  0  3.978479  0
C  C164  1  0.38744684  0.10577646  0.46912656  1  -0.062093  0  -0.082247  -0.063857  0  3.98184  0
C  C165  1  0.38744634  0.36334744  0.89422488  1  -0.050689  0  -0.082327  -0.063904  0  3.981945  0
C  C166  1  0.38744716  0.53087571  0.63665196  1  -0.062175  0  -0.082248  -0.063693  0  3.981808  0
C  C167  1  0.61255225  0.89422324  0.53087404  1  -0.062009  0  -0.082264  -0.063863  0  3.981874  0
C  C168  1  0.61255366  0.63665285  0.10577513  1  -0.050703  0  -0.082326  -0.06388  0  3.981921  0
C  C169  1  0.61255284  0.46912408  0.36334754  1  -0.062177  0  -0.082243  -0.063678  0  3.981798  0
C  C170  1  0.33815821  0.04855415  0.39875023  1  0.045268  0  -0.104828  -0.117361  0  4.028537  0
C  C171  1  0.33815406  0.35019613  0.95144659  1  0.021517  0  -0.10484  -0.117462  0  4.028732  0
C  C172  1  0.33815703  0.60125316  0.64980354  1  0.026624  0  -0.10484  -0.117531  0  4.02881  0
C  C173  1  0.66184179  0.95144584  0.60125007  1  0.045184  0  -0.104841  -0.117388  0  4.02858  0
C  C174  1  0.66184594  0.64980386  0.04855371  1  0.021509  0  -0.104815  -0.117414  0  4.02866  0
C  C175  1  0.66184297  0.39874662  0.35019596  1  0.026617  0  -0.104845  -0.117545  0  4.028816  0
C  C176  1  0.41008383  0.98454463  0.34832771  1  -0.079588  0  -0.086186  -0.03958  0  4.018818  0
C  C177  1  0.41007847  0.36378364  0.01545351  1  -0.053378  0  -0.086103  -0.039545  0  4.019002  0
C  C178  1  0.41008060  0.65167680  0.63621684  1  -0.085092  0  -0.086182  -0.03962  0  4.018956  0
C  C179  1  0.58991617  0.01545515  0.65167180  1  -0.079588  0  -0.086182  -0.039572  0  4.018839  0
C  C180  1  0.58992153  0.63621635  0.98454679  1  -0.053351  0  -0.086121  -0.039527  0  4.018881  0
C  C181  1  0.58991940  0.34832298  0.36378267  1  -0.085091  0  -0.086165  -0.039589  0  4.019006  0
C  C182  1  0.52879582  0.97657237  0.36904156  1  0.01063  0  -0.111271  -0.227734  0  3.992179  0
C  C183  1  0.52879059  0.39246863  0.02342183  1  -0.014927  0  -0.111327  -0.227565  0  3.99234  0
C  C184  1  0.52879260  0.63096174  0.60753142  1  0.013927  0  -0.111345  -0.227798  0  3.992188  0
C  C185  1  0.47120418  0.02342712  0.63095824  1  0.010636  0  -0.111306  -0.227746  0  3.992262  0
C  C186  1  0.47120849  0.60753137  0.97657848  1  -0.014932  0  -0.111305  -0.22755  0  3.992308  0
C  C187  1  0.47120740  0.36903855  0.39246859  1  0.014064  0  -0.111368  -0.227827  0  3.992251  0
C  C188  1  0.57745093  0.03386514  0.44057145  1  0.440124  0  0.093239  0.246447  0  4.030518  0
C  C189  1  0.57744887  0.40670477  0.96613071  1  0.403778  0  0.093267  0.246514  0  4.030747  0
C  C190  1  0.57744885  0.55942901  0.59329361  1  0.425682  0  0.093333  0.24665  0  4.030336  0
C  C191  1  0.42254816  0.96613435  0.55942835  1  0.440142  0  0.093212  0.246376  0  4.03064  0
C  C192  1  0.42255113  0.59329473  0.03386909  1  0.403768  0  0.093271  0.246533  0  4.030722  0
C  C193  1  0.42255024  0.44057078  0.40670589  1  0.42569  0  0.093318  0.246606  0  4.030416  0
C  C194  1  0.77715457  0.97051228  0.41064732  1  0.359842  0  -0.06103  -0.010421  0  3.874136  0
C  C195  1  0.77715139  0.44012963  0.02948144  1  0.342203  0  -0.061004  -0.010418  0  3.874309  0
C  C196  1  0.77715315  0.58935395  0.55986789  1  0.331091  0  -0.061037  -0.010369  0  3.874145  0
C  C197  1  0.22284452  0.02948771  0.58935299  1  0.359834  0  -0.061014  -0.010305  0  3.874122  0
C  C198  1  0.22284861  0.55987015  0.97051807  1  0.342209  0  -0.061013  -0.010396  0  3.874239  0
C  C199  1  0.22284685  0.41064605  0.44013242  1  0.331094  0  -0.061011  -0.010318  0  3.874124  0
C  C200  1  0.89450845  0.98583026  0.45491955  1  -0.064462  0  -0.022776  0.01588  0  3.980639  0
C  C201  1  0.89450354  0.46908693  0.01416515  1  -0.069724  0  -0.022828  0.01582  0  3.980713  0
C  C202  1  0.89450599  0.54508068  0.53091246  1  -0.025755  0  -0.022785  0.015851  0  3.980651  0
C  C203  1  0.10549155  0.01416974  0.54508076  1  -0.064474  0  -0.022808  0.015739  0  3.980748  0
C  C204  1  0.10549554  0.53091336  0.98583487  1  -0.069726  0  -0.022852  0.015781  0  3.980731  0
C  C205  1  0.10549400  0.45491932  0.46908785  1  -0.025764  0  -0.02279  0.015843  0  3.980657  0
C  C206  1  0.93024982  0.93463030  0.48083692  1  -0.063927  0  -0.095304  -0.194651  0  3.969007  0
C  C207  1  0.93025262  0.54620335  0.06536459  1  -0.028705  0  -0.095221  -0.194676  0  3.969021  0
C  C208  1  0.93025122  0.51916410  0.45379895  1  -0.088269  0  -0.095264  -0.194752  0  3.969077  0
C  C209  1  0.06975018  0.06536970  0.51916339  1  -0.063922  0  -0.095304  -0.194597  0  3.969017  0
C  C210  1  0.06974738  0.45379694  0.93463543  1  -0.028749  0  -0.095233  -0.19471  0  3.969038  0
C  C211  1  0.06974970  0.48083669  0.54620157  1  -0.08825  0  -0.095261  -0.194777  0  3.969097  0
C  C212  1  0.96492260  0.05280037  0.47392375  1  0.030663  0  -0.014138  0.121897  0  3.970118  0
C  C213  1  0.96491693  0.42112292  0.94719851  1  0.003474  0  -0.014128  0.121985  0  3.970233  0
C  C214  1  0.96492131  0.52607585  0.57887388  1  0.034122  0  -0.014203  0.121865  0  3.970079  0
C  C215  1  0.03507740  0.94719963  0.52607656  1  0.031217  0  -0.014102  0.121981  0  3.970167  0
C  C216  1  0.03508307  0.57887737  0.05280150  1  0.003465  0  -0.014123  0.121973  0  3.970288  0
C  C217  1  0.03507960  0.47392414  0.42112643  1  0.034131  0  -0.014198  0.121866  0  3.970044  0
C  C218  1  0.93177883  0.10914318  0.44667738  1  -0.003091  0  -0.248375  -0.414115  0  3.973299  0
C  C219  1  0.93177273  0.33753215  0.89085766  1  -0.05455  0  -0.248348  -0.414036  0  3.973445  0
C  C220  1  0.93177825  0.55332268  0.66246006  1  -0.055022  0  -0.248299  -0.414018  0  3.973249  0
C  C221  1  0.06822117  0.89085682  0.55332293  1  -0.003624  0  -0.248363  -0.414099  0  3.973383  0
C  C222  1  0.06822727  0.66246814  0.10914235  1  -0.054535  0  -0.248374  -0.414115  0  3.973396  0
C  C223  1  0.06822267  0.44667761  0.33753995  1  -0.05501  0  -0.248316  -0.414016  0  3.973236  0
N  N224  1  0.65856844  0.16128004  0.59506233  1  -1.26263  0  -0.405942  -0.325765  0  3.540586  0
N  N225  1  0.65856909  0.43377728  0.83871800  1  -1.226034  0  -0.405872  -0.325763  0  3.540521  0
N  N226  1  0.65857019  0.40493681  0.56622157  1  -1.238548  0  -0.406007  -0.325916  0  3.540383  0
N  N227  1  0.34143156  0.83871996  0.40493798  1  -1.262647  0  -0.405946  -0.325773  0  3.540582  0
N  N228  1  0.34143091  0.56622271  0.16128230  1  -1.226006  0  -0.405885  -0.325829  0  3.54045  0
N  N229  1  0.34142981  0.59506297  0.43377794  1  -1.238543  0  -0.405997  -0.32592  0  3.540397  0
N  N230  1  0.21932531  0.27347354  0.51988101  1  0.82604  0  0.083315  0.725434  0  4.413154  0
N  N231  1  0.21932318  0.24640291  0.72652904  1  0.834158  0  0.083321  0.725626  0  4.412434  0
N  N232  1  0.21932392  0.48012932  0.75359763  1  0.824485  0  0.083449  0.72565  0  4.412492  0
N  N233  1  0.78067469  0.72652645  0.48011930  1  0.826032  0  0.083323  0.725446  0  4.413112  0
N  N234  1  0.78067591  0.75359738  0.27347097  1  0.834085  0  0.083314  0.725556  0  4.412552  0
N  N235  1  0.78067608  0.51986996  0.24640137  1  0.824481  0  0.083432  0.725695  0  4.412404  0
O  O236  1  0.49694429  0.23321206  0.59488024  1  -1.202522  0  -0.40196  -0.644146  0  2.400119  0
O  O237  1  0.49693997  0.36166401  0.76679173  1  -1.202527  0  -0.401906  -0.644178  0  2.400175  0
O  O238  1  0.49695303  0.40512437  0.63834016  1  -1.200329  0  -0.40195  -0.644205  0  2.400001  0
O  O239  1  0.50305480  0.76678685  0.40512014  1  -1.202558  0  -0.40199  -0.644194  0  2.400108  0
O  O240  1  0.50306003  0.63833628  0.23320828  1  -1.202522  0  -0.401913  -0.644196  0  2.400181  0
O  O241  1  0.50304697  0.59487512  0.36165963  1  -1.200341  0  -0.401971  -0.644246  0  2.399967  0
O  O242  1  0.69167011  0.02899003  0.46484374  1  -1.086854  0  -0.171278  -0.209919  0  2.628625  0
O  O243  1  0.69166818  0.43585364  0.97100691  1  -1.08445  0  -0.171324  -0.210072  0  2.628887  0
O  O244  1  0.69166803  0.53515432  0.56414449  1  -1.085202  0  -0.171318  -0.210044  0  2.628674  0
O  O245  1  0.30832898  0.97100917  0.53515635  1  -1.086856  0  -0.171242  -0.209895  0  2.62862  0
O  O246  1  0.30833182  0.56414615  0.02899259  1  -1.084445  0  -0.171315  -0.210081  0  2.62887  0
O  O247  1  0.30833197  0.46484546  0.43585502  1  -1.085207  0  -0.171308  -0.209999  0  2.628774  0
O  O248  1  0.19136270  0.25485740  0.57197489  1  -0.577344  0  -0.24479  -0.531072  0  2.007398  0
O  O249  1  0.19136090  0.31711539  0.74514406  1  -0.580951  0  -0.244853  -0.531208  0  2.007332  0
O  O250  1  0.19136407  0.42803237  0.68288820  1  -0.581292  0  -0.244937  -0.531191  0  2.007375  0
O  O251  1  0.80863638  0.74514310  0.42802592  1  -0.57732  0  -0.244802  -0.531074  0  2.007388  0
O  O252  1  0.80863819  0.68288460  0.25485624  1  -0.580937  0  -0.244823  -0.531144  0  2.007399  0
O  O253  1  0.80863593  0.57196661  0.31711109  1  -0.581255  0  -0.24492  -0.531201  0  2.007361  0
O  O254  1  0.31624929  0.31559012  0.53411350  1  -0.582944  0  -0.243841  -0.523609  0  2.020873  0
O  O255  1  0.31624607  0.21851877  0.68441311  1  -0.58873  0  -0.243917  -0.523686  0  2.020622  0
O  O256  1  0.31624953  0.46589816  0.78147918  1  -0.584943  0  -0.243958  -0.523706  0  2.020632  0
O  O257  1  0.68375162  0.68440886  0.46588579  1  -0.58295  0  -0.243858  -0.523638  0  2.020859  0
O  O258  1  0.68375302  0.78148152  0.31558690  1  -0.588672  0  -0.243917  -0.523659  0  2.020614  0
O  O259  1  0.68375047  0.53410242  0.21852054  1  -0.584966  0  -0.24397  -0.523731  0  2.020617  0
O  O260  1  0.15789641  0.25206124  0.46023372  1  -0.475259  0  -0.147226  -0.368941  0  1.898436  0
O  O261  1  0.15789506  0.20816435  0.74794032  1  -0.474743  0  -0.147105  -0.368988  0  1.898118  0
O  O262  1  0.15788971  0.53977800  0.79183455  1  -0.468459  0  -0.147159  -0.369025  0  1.898095  0
O  O263  1  0.84210267  0.74793956  0.53976680  1  -0.475267  0  -0.147215  -0.368941  0  1.898435  0
O  O264  1  0.84210403  0.79183493  0.25205868  1  -0.474734  0  -0.147125  -0.368991  0  1.898121  0
O  O265  1  0.84210937  0.46022157  0.20816416  1  -0.468477  0  -0.147142  -0.369038  0  1.898032  0
