# generated using pymatgen
data_CuH14C26(NO)4
_symmetry_space_group_name_H-M   'P 1'
_cell_length_a   9.83096246
_cell_length_b   10.35415064
_cell_length_c   11.25780081
_cell_angle_alpha   115.05691445
_cell_angle_beta   96.05500301
_cell_angle_gamma   104.08360430
_symmetry_Int_Tables_number   1
_chemical_formula_structural   CuH14C26(NO)4
_chemical_formula_sum   'Cu2 H28 C52 N8 O8'
_cell_volume   978.12409872
_cell_formula_units_Z   2
loop_
 _symmetry_equiv_pos_site_id
 _symmetry_equiv_pos_as_xyz
  1  'x, y, z'
loop_
 _atom_site_type_symbol
 _atom_site_label
 _atom_site_symmetry_multiplicity
 _atom_site_fract_x
 _atom_site_fract_y
 _atom_site_fract_z
 _atom_site_occupancy
 _atom_site_pbe_cm5_charge
 _atom_site_pbe_ddec_charge
 _atom_site_pbe_ddec_spin_density
 _atom_site_pbe_ddec_sum_bond_order
 _atom_site_pbe_magmom
Cu  Cu0  1  0.51015080  0.53363579  0.66052995  1  0.755742  0.811301  0.750437  2.217759  0.565
Cu  Cu1  1  0.48984994  0.46636612  0.33947386  1  0.755784  0.81138  -0.750442  2.217691  -0.565
H  H2  1  0.13050433  0.12750064  0.88245512  1  0.098432  0.09933  6e-06  1.041016  0.0
H  H3  1  0.86949880  0.87250238  0.11754934  1  0.098421  0.099264  -6e-06  1.041044  0.0
H  H4  1  0.11108961  0.07128828  0.23733821  1  0.102145  0.103141  -0.000256  1.031693  0.0
H  H5  1  0.88891453  0.92871134  0.76266767  1  0.10215  0.103203  0.000256  1.031609  0.0
H  H6  1  0.46925250  0.19071464  0.53900219  1  0.121115  0.103382  0.001472  1.0399  0.002
H  H7  1  0.53074583  0.80928616  0.46099654  1  0.121105  0.103379  -0.001472  1.039894  -0.002
H  H8  1  0.06192548  0.01707053  0.62327334  1  0.112457  0.11085  3.5e-05  1.009909  0.0
H  H9  1  0.93807283  0.98292689  0.37672583  1  0.11248  0.110867  -3.5e-05  1.009993  0.0
H  H10  1  0.85202108  0.66405346  0.59967231  1  0.102351  0.116709  -7.4e-05  1.021634  0.0
H  H11  1  0.14798055  0.33593834  0.40031695  1  0.102345  0.116709  7.4e-05  1.021644  0.0
H  H12  1  0.67012015  0.98579583  0.71601843  1  0.107118  0.117939  5.5e-05  1.016945  0.0
H  H13  1  0.32987785  0.01420724  0.28398116  1  0.107102  0.11794  -5.5e-05  1.016908  0.0
H  H14  1  0.89894652  0.22529029  0.42149300  1  0.098475  0.099448  5e-06  1.019289  0.0
H  H15  1  0.10105682  0.77470375  0.57849818  1  0.098453  0.099378  -5e-06  1.019284  0.0
H  H16  1  0.06970027  0.75274678  0.92077216  1  0.110973  0.111445  2.1e-05  1.032908  0.0
H  H17  1  0.93029738  0.24725176  0.07922918  1  0.110983  0.111464  -2.1e-05  1.032881  0.0
H  H18  1  0.27688795  0.97044214  0.52804535  1  0.111059  0.130516  0.000532  1.032254  0.001
H  H19  1  0.72311002  0.02955755  0.47195113  1  0.111043  0.130512  -0.000532  1.032254  -0.001
H  H20  1  0.28821930  0.94110028  0.92292606  1  0.107542  0.112711  0.00068  1.023339  0.001
H  H21  1  0.71177734  0.05890165  0.07707475  1  0.107551  0.112712  -0.00068  1.023352  -0.001
H  H22  1  0.48044534  0.84868573  0.81452112  1  0.123441  0.093518  0.001457  1.006567  0.002
H  H23  1  0.51955197  0.15131508  0.18547930  1  0.123452  0.093521  -0.001457  1.00655  -0.002
H  H24  1  0.68657628  0.52507848  0.95009758  1  0.105932  0.130314  -3.2e-05  1.045448  0.0
H  H25  1  0.31342274  0.47492118  0.04990431  1  0.105915  0.130302  3.2e-05  1.045447  0.0
H  H26  1  0.46092236  0.05323473  0.80381693  1  0.10096  0.094674  1.7e-05  1.015025  0.0
H  H27  1  0.53907222  0.94676383  0.19618503  1  0.100973  0.094676  -1.7e-05  1.015116  0.0
H  H28  1  0.47163494  0.31821028  0.92699160  1  0.104814  0.124556  -4.5e-05  1.013543  0.0
H  H29  1  0.52836479  0.68179163  0.07301302  1  0.104807  0.124572  4.5e-05  1.01353  0.0
C  C30  1  0.86073335  0.43814691  0.51129095  1  -0.020372  -0.02955  0.001712  3.951031  0.002
C  C31  1  0.13926964  0.56184601  0.48869888  1  -0.020407  -0.029641  -0.001712  3.951134  -0.002
C  C32  1  0.02117995  0.44646289  0.80623018  1  0.129887  0.131698  0.000657  4.003813  0.001
C  C33  1  0.97881835  0.55353453  0.19376811  1  0.129919  0.131719  -0.000657  4.003824  -0.001
C  C34  1  0.25375090  0.37007128  0.69047406  1  0.120978  0.132023  0.001542  3.999716  0.001
C  C35  1  0.74624980  0.62992725  0.30952665  1  0.120928  0.13195  -0.001542  3.999758  -0.001
C  C36  1  0.79629493  0.21755323  0.78164526  1  0.120622  0.173844  0.000147  4.003191  0.0
C  C37  1  0.20370681  0.78244868  0.21835510  1  0.120617  0.173857  -0.000147  4.003263  0.0
C  C38  1  0.07205155  0.06985752  0.93223363  1  -0.087677  -0.101895  -0.000454  3.977789  -0.001
C  C39  1  0.92795289  0.93013986  0.06776784  1  -0.087605  -0.101777  0.000454  3.977847  0.001
C  C40  1  0.27840898  0.23258604  0.13293972  1  0.194047  0.540566  -0.000478  4.2449  0.003
C  C41  1  0.72158907  0.76741698  0.86706875  1  0.193973  0.540492  0.000478  4.24481  -0.003
C  C42  1  0.13490105  0.11106307  0.06612265  1  -0.017852  -0.029507  -0.0066  3.964765  -0.007
C  C43  1  0.86510611  0.88892977  0.93388260  1  -0.017928  -0.029529  0.0066  3.96475  0.007
C  C44  1  0.71237624  0.37160757  0.52494349  1  0.207306  0.579571  0.004949  4.193395  0.003
C  C45  1  0.28762609  0.62838647  0.47504849  1  0.207281  0.579394  -0.00495  4.193631  -0.003
C  C46  1  0.93819547  0.95941038  0.86611607  1  -0.085066  -0.098047  -0.000632  3.971248  -0.001
C  C47  1  0.06180831  0.04058812  0.13388934  1  -0.085097  -0.097924  0.000632  3.971336  0.001
C  C48  1  0.25604793  0.52453375  0.75507762  1  0.122851  0.125445  0.001234  4.011067  0.0
C  C49  1  0.74395279  0.47546477  0.24492576  1  0.122912  0.125576  -0.001234  4.010937  0.0
C  C50  1  0.01922591  0.29236058  0.74259070  1  0.129953  0.131633  0.000553  3.995192  0.001
C  C51  1  0.98077375  0.70763796  0.25740727  1  0.129932  0.131587  -0.000553  3.995068  -0.001
C  C52  1  0.37368200  0.20368432  0.57853857  1  0.06442  0.122797  -0.000434  3.872494  -0.001
C  C53  1  0.62631872  0.79631760  0.42146259  1  0.064393  0.122757  0.000434  3.87258  0.001
C  C54  1  0.14866963  0.10807220  0.62674524  1  -0.057407  -0.057172  -0.002161  3.914127  -0.002
C  C55  1  0.85132803  0.89192974  0.37325300  1  -0.057405  -0.057137  0.002161  3.9142  0.002
C  C56  1  0.91768533  0.59338261  0.55545829  1  -0.090925  -0.100506  0.001369  3.955429  0.001
C  C57  1  0.08231802  0.40661143  0.44453289  1  -0.090904  -0.100407  -0.001369  3.955512  -0.001
C  C58  1  0.13985272  0.25480971  0.68650461  1  0.007128  -0.014124  0.002124  3.955762  0.002
C  C59  1  0.86014526  0.74518997  0.31349454  1  0.007157  -0.014121  -0.002125  3.955672  -0.002
C  C60  1  0.67230574  0.10256352  0.76724134  1  -0.084237  -0.155057  6.3e-05  3.934745  0.0
C  C61  1  0.32768819  0.89743956  0.23275968  1  -0.084209  -0.155056  -6.3e-05  3.934648  0.0
C  C62  1  0.79975112  0.37228508  0.84800275  1  0.118707  0.173026  0.000115  4.00659  0.0
C  C63  1  0.20024893  0.62771797  0.15199702  1  0.118702  0.172962  -0.000115  4.006524  0.0
C  C64  1  0.94441877  0.34573189  0.45591248  1  -0.092592  -0.110692  0.00227  3.996819  0.002
C  C65  1  0.05558354  0.65426217  0.54407418  1  -0.092466  -0.110407  -0.00227  3.99657  -0.002
C  C66  1  0.15517783  0.71797346  0.87483081  1  -0.050869  -0.035675  -0.003011  3.877985  -0.003
C  C67  1  0.84482015  0.28202622  0.12516834  1  -0.050856  -0.035612  0.003011  3.877897  0.003
C  C68  1  0.26607760  0.08264147  0.57329746  1  -0.073804  -0.116755  0.003846  3.926583  0.004
C  C69  1  0.73391797  0.91735711  0.42669661  1  -0.073814  -0.116792  -0.003846  3.926796  -0.004
C  C70  1  0.27618710  0.82167562  0.87614312  1  -0.0767  -0.122012  0.00475  3.953525  0.005
C  C71  1  0.72380917  0.17832181  0.12385677  1  -0.076748  -0.122092  -0.00475  3.953401  -0.005
C  C72  1  0.14349078  0.56483943  0.81360838  1  0.011796  -0.009153  0.003146  3.950865  0.003
C  C73  1  0.85650823  0.43516023  0.18639352  1  0.011764  -0.009218  -0.003145  3.950934  -0.003
C  C74  1  0.38343919  0.77210258  0.81602474  1  0.060779  0.112272  -0.000167  3.91608  -0.002
C  C75  1  0.61656223  0.22789819  0.18398047  1  0.060807  0.11235  0.000167  3.916095  0.002
C  C76  1  0.68146491  0.40731589  0.90127687  1  -0.088224  -0.165285  -4.4e-05  3.943362  0.0
C  C77  1  0.31854060  0.59268825  0.09872558  1  -0.088176  -0.165209  4.3e-05  3.943221  0.0
C  C78  1  0.55804858  0.14072095  0.81719658  1  -0.082085  -0.058808  5.4e-05  3.995143  0.0
C  C79  1  0.44195214  0.85928098  0.18280280  1  -0.082124  -0.058875  -5.4e-05  3.995127  0.0
C  C80  1  0.56286487  0.29329296  0.88561878  1  -0.085277  -0.063056  -1.3e-05  3.960256  0.0
C  C81  1  0.43713454  0.70671120  0.11438848  1  -0.08528  -0.063065  1.2e-05  3.96035  0.0
N  N82  1  0.36713615  0.34392530  0.63604819  1  -0.337344  -0.269537  0.053183  3.597999  0.067
N  N83  1  0.63286626  0.65607549  0.36395001  1  -0.337262  -0.269446  -0.053187  3.597926  -0.067
N  N84  1  0.37261205  0.62670399  0.75663828  1  -0.338093  -0.248777  0.067294  3.63562  0.085
N  N85  1  0.62738627  0.37329341  0.24336533  1  -0.338122  -0.248888  -0.067285  3.635671  -0.085
N  N86  1  0.91349637  0.48444376  0.85916967  1  -0.28774  -0.275703  0.000347  3.257087  0.0
N  N87  1  0.08650332  0.51555817  0.14082873  1  -0.28779  -0.275717  -0.000347  3.25708  0.0
N  N88  1  0.90837936  0.18099777  0.73155454  1  -0.286373  -0.289235  0.000337  3.306903  0.0
N  N89  1  0.09162100  0.81900303  0.26844259  1  -0.286373  -0.289192  -0.000337  3.306698  0.0
O  O90  1  0.62760249  0.45335748  0.53505119  1  -0.354299  -0.616199  0.050408  2.475025  0.066
O  O91  1  0.37240984  0.54664889  0.46495007  1  -0.354287  -0.616074  -0.050408  2.475199  -0.066
O  O92  1  0.32875411  0.27354873  0.25953852  1  -0.329187  -0.531568  -0.071069  2.299084  -0.096
O  O93  1  0.67124195  0.72646107  0.74047155  1  -0.329147  -0.531525  0.071074  2.29904  0.096
O  O94  1  0.67955620  0.24674762  0.52382730  1  -0.306379  -0.520166  0.00764  2.151252  0.01
O  O95  1  0.32043655  0.75324538  0.47615544  1  -0.306405  -0.520117  -0.007645  2.151191  -0.01
O  O96  1  0.34083504  0.28794458  0.06596707  1  -0.31856  -0.564509  -0.000789  2.237421  -0.002
O  O97  1  0.65916302  0.71206185  0.93403829  1  -0.318512  -0.564424  0.000789  2.237489  0.002
