# generated using pymatgen
data_ZnH12C18(N7O)2
_symmetry_space_group_name_H-M   'P 1'
_cell_length_a   13.15943059
_cell_length_b   13.15943135
_cell_length_c   15.63136539
_cell_angle_alpha   109.56888905
_cell_angle_beta   109.56898994
_cell_angle_gamma   101.80334068
_symmetry_Int_Tables_number   1
_chemical_formula_structural   ZnH12C18(N7O)2
_chemical_formula_sum   'Zn2 H24 C36 N28 O4'
_cell_volume   2245.07643704
_cell_formula_units_Z   2
loop_
 _symmetry_equiv_pos_site_id
 _symmetry_equiv_pos_as_xyz
  1  'x, y, z'
loop_
 _atom_site_type_symbol
 _atom_site_label
 _atom_site_symmetry_multiplicity
 _atom_site_fract_x
 _atom_site_fract_y
 _atom_site_fract_z
 _atom_site_occupancy
 _atom_site_pbe_bader_charge
 _atom_site_pbe_bader_spin_density
 _atom_site_pbe_cm5_charge
 _atom_site_pbe_ddec_charge
 _atom_site_pbe_ddec_spin_density
 _atom_site_pbe_ddec_sum_bond_order
 _atom_site_pbe_magmom
Zn  Zn0  1  0.12497315  0.87502699  0.24999995  1  1.323489  0  0.719866  0.781694  0  2.43751  0
Zn  Zn1  1  0.87502736  0.12497305  0.75000029  1  1.323512  0  0.719867  0.78179  0  2.437478  0
H  H2  1  0.04769002  0.00691685  0.09919893  1  0.191332  0  0.134699  0.10401  0  1.039582  0
H  H3  1  0.40776765  0.94853689  0.40080806  1  0.215273  0  0.134934  0.104418  0  1.038967  0
H  H4  1  0.99308269  0.95230989  0.40080136  1  0.191246  0  0.134696  0.104012  0  1.039579  0
H  H5  1  0.05146278  0.59223157  0.09919162  1  0.215289  0  0.134951  0.104442  0  1.038947  0
H  H6  1  0.95230921  0.99308190  0.90080003  1  0.191287  0  0.134677  0.104005  0  1.039614  0
H  H7  1  0.59223191  0.05146387  0.59919380  1  0.215218  0  0.134948  0.104437  0  1.038965  0
H  H8  1  0.00691932  0.04769277  0.59920209  1  0.191321  0  0.134675  0.103993  0  1.039614  0
H  H9  1  0.94853460  0.40776639  0.90080463  1  0.215341  0  0.134957  0.104451  0  1.038976  0
H  H10  1  0.24291679  0.14683366  0.41465550  1  0.117274  0  0.119263  0.119602  0  1.011254  0
H  H11  1  0.23198558  0.82818883  0.08535667  1  0.118114  0  0.119191  0.119321  0  1.012202  0
H  H12  1  0.85316751  0.75708085  0.08534382  1  0.117274  0  0.119259  0.119582  0  1.011265  0
H  H13  1  0.17181047  0.76801406  0.41464289  1  0.118123  0  0.119176  0.119306  0  1.012161  0
H  H14  1  0.75708036  0.85316679  0.58534223  1  0.11724  0  0.119278  0.119597  0  1.01121  0
H  H15  1  0.76801591  0.17181194  0.91464540  1  0.118129  0  0.119204  0.11932  0  1.012192  0
H  H16  1  0.14683473  0.24291931  0.91465815  1  0.117197  0  0.119258  0.119597  0  1.011251  0
H  H17  1  0.82818968  0.23198635  0.58535439  1  0.118124  0  0.119206  0.119317  0  1.012193  0
H  H18  1  0.21379973  0.32630264  0.36316573  1  0.12091  0  0.12599  0.128155  0  1.013137  0
H  H19  1  0.46292924  0.85046244  0.13675279  1  0.148581  0  0.12587  0.127969  0  1.01337  0
H  H20  1  0.67369534  0.78619639  0.13683190  1  0.12094  0  0.125975  0.128144  0  1.013083  0
H  H21  1  0.14953709  0.53706995  0.36324726  1  0.148567  0  0.125879  0.127964  0  1.013334  0
H  H22  1  0.78619670  0.67369604  0.63683215  1  0.120956  0  0.125971  0.128128  0  1.013067  0
H  H23  1  0.53707108  0.14953771  0.86324898  1  0.14855  0  0.125869  0.127939  0  1.013356  0
H  H24  1  0.32630486  0.21380309  0.86316890  1  0.121155  0  0.125993  0.128163  0  1.013183  0
H  H25  1  0.85046157  0.46292929  0.63675027  1  0.148525  0  0.125858  0.127939  0  1.013336  0
C  C26  1  0.09722941  0.06767111  0.17839713  1  0.96562  0  0.155267  0.135303  0  3.838782  0
C  C27  1  0.38925523  0.91883122  0.32161042  1  0.949545  0  0.155083  0.134032  0  3.838784  0
C  C28  1  0.93232919  0.90276958  0.32160325  1  0.965708  0  0.155272  0.135273  0  3.838687  0
C  C29  1  0.08116863  0.61074416  0.17838904  1  0.949515  0  0.155065  0.134024  0  3.838747  0
C  C30  1  0.90276906  0.93232825  0.82160192  1  0.965071  0  0.15528  0.135288  0  3.838766  0
C  C31  1  0.61074463  0.08117009  0.67839088  1  0.948814  0  0.15508  0.134028  0  3.838724  0
C  C32  1  0.06767219  0.09723243  0.67839956  1  0.965097  0  0.155324  0.135368  0  3.838738  0
C  C33  1  0.91882939  0.38925444  0.82160785  1  0.948417  0  0.155092  0.134031  0  3.838733  0
C  C34  1  0.19837602  0.14518755  0.34184538  1  0.402329  0  -0.002867  -0.029526  0  4.006988  0
C  C35  1  0.30317775  0.85643950  0.15815008  1  0.452434  0  -0.002758  -0.029626  0  4.00985  0
C  C36  1  0.85481389  0.80162224  0.15815625  1  0.40228  0  -0.002829  -0.029489  0  4.007369  0
C  C37  1  0.14355997  0.69682120  0.34184990  1  0.452375  0  -0.002721  -0.029593  0  4.009794  0
C  C38  1  0.80162214  0.85481317  0.65815595  1  0.402329  0  -0.002829  -0.029475  0  4.007331  0
C  C39  1  0.69682267  0.14356133  0.84185266  1  0.452419  0  -0.002707  -0.029561  0  4.009725  0
C  C40  1  0.14518858  0.19837927  0.84184766  1  0.402296  0  -0.002891  -0.02953  0  4.007096  0
C  C41  1  0.85643836  0.30317795  0.65814643  1  0.452389  0  -0.002742  -0.02955  0  4.009788  0
C  C42  1  0.18509048  0.23423278  0.31855086  1  0.305771  0  -0.00237  -0.101234  0  3.942044  0
C  C43  1  0.41551169  0.86639236  0.18139256  1  0.222087  0  -0.003101  -0.102467  0  3.944459  0
C  C44  1  0.76577160  0.81490571  0.18144707  1  0.305776  0  -0.002411  -0.101286  0  3.942339  0
C  C45  1  0.13360744  0.58448743  0.31860724  1  0.222098  0  -0.003145  -0.102496  0  3.944404  0
C  C46  1  0.81490586  0.76577256  0.68144863  1  0.305744  0  -0.002419  -0.101301  0  3.94239  0
C  C47  1  0.58448979  0.13360841  0.81860951  1  0.222025  0  -0.003116  -0.102433  0  3.944438  0
C  C48  1  0.23423448  0.18509493  0.81855355  1  0.305497  0  -0.002356  -0.101237  0  3.942155  0
C  C49  1  0.86639070  0.41550992  0.68138891  1  0.222032  0  -0.003105  -0.10247  0  3.944423  0
C  C50  1  0.08525647  0.24607027  0.15798689  1  1.583189  0  0.352295  0.505537  0  4.117321  0
C  C51  1  0.58795535  0.92706016  0.34197007  1  1.520177  0  0.352863  0.50538  0  4.118514  0
C  C52  1  0.75393017  0.91474319  0.34201412  1  1.583243  0  0.352384  0.505634  0  4.117298  0
C  C53  1  0.07293995  0.41204476  0.15803055  1  1.520198  0  0.352874  0.505361  0  4.118402  0
C  C54  1  0.91474060  0.75392906  0.84201163  1  1.583369  0  0.352377  0.505627  0  4.117191  0
C  C55  1  0.41204526  0.07294246  0.65803284  1  1.520081  0  0.352865  0.505391  0  4.118434  0
C  C56  1  0.24607097  0.08525940  0.65798846  1  1.583355  0  0.352373  0.505545  0  4.117335  0
C  C57  1  0.92705724  0.58795332  0.84196723  1  1.520081  0  0.352855  0.505349  0  4.118402  0
C  C58  1  0.00373616  0.25378072  0.00749338  1  1.717203  0  0.318786  0.657647  0  4.169404  0
C  C59  1  0.74621923  0.99626328  0.49250497  1  1.717183  0  0.318757  0.657617  0  4.169414  0
C  C60  1  0.99626475  0.74621716  0.99250208  1  1.716961  0  0.318757  0.657455  0  4.169471  0
C  C61  1  0.25378316  0.00373518  0.50749802  1  1.716986  0  0.318798  0.657571  0  4.169386  0
N  N62  1  0.14300866  0.04233502  0.25429282  1  -1.207448  0  -0.334636  -0.268578  0  3.529348  0
N  N63  1  0.28798138  0.88872647  0.24573299  1  -1.204184  0  -0.334029  -0.267171  0  3.530242  0
N  N64  1  0.95766461  0.85698948  0.24570572  1  -1.207511  0  -0.334634  -0.268522  0  3.52933  0
N  N65  1  0.11127348  0.71201804  0.25426627  1  -1.204102  0  -0.334027  -0.267187  0  3.530238  0
N  N66  1  0.85698883  0.95766361  0.74570440  1  -1.206883  0  -0.334658  -0.268594  0  3.529421  0
N  N67  1  0.71202041  0.11127485  0.75426852  1  -1.203313  0  -0.334067  -0.267254  0  3.530139  0
N  N68  1  0.04233688  0.14301129  0.75429635  1  -1.206846  0  -0.334646  -0.268596  0  3.529444  0
N  N69  1  0.88872507  0.28798053  0.74573029  1  -1.202826  0  -0.334059  -0.267292  0  3.530216  0
N  N70  1  0.12070017  0.18454394  0.21434552  1  -1.2275  0  -0.215355  -0.037399  0  3.726958  0
N  N71  1  0.47009210  0.90622023  0.28559585  1  -1.240623  0  -0.215139  -0.035209  0  3.726286  0
N  N72  1  0.81545559  0.87929673  0.28565213  1  -1.227457  0  -0.215386  -0.037426  0  3.727053  0
N  N73  1  0.09378030  0.52990846  0.21440404  1  -1.240635  0  -0.215122  -0.035175  0  3.726232  0
N  N74  1  0.87929580  0.81545589  0.78565190  1  -1.227582  0  -0.215386  -0.037386  0  3.727033  0
N  N75  1  0.52990863  0.09378114  0.71440632  1  -1.240575  0  -0.215125  -0.035185  0  3.726224  0
N  N76  1  0.18454651  0.12070514  0.71434881  1  -1.227544  0  -0.215433  -0.037485  0  3.727031  0
N  N77  1  0.90621773  0.47009014  0.78559285  1  -1.240771  0  -0.215113  -0.035125  0  3.726144  0
N  N78  1  0.10750065  0.35739435  0.21465516  1  -1.22293  0  -0.34784  -0.527998  0  3.237483  0
N  N79  1  0.64260531  0.89249819  0.28534378  1  -1.222908  0  -0.347874  -0.528031  0  3.237419  0
N  N80  1  0.89249651  0.64260418  0.78534086  1  -1.222993  0  -0.347836  -0.528004  0  3.237405  0
N  N81  1  0.35739670  0.10750447  0.71465967  1  -1.223028  0  -0.347857  -0.528001  0  3.237438  0
N  N82  1  0.03584073  0.18909158  0.05876933  1  -1.225007  0  -0.342984  -0.541619  0  3.167069  0
N  N83  1  0.63024051  0.97706279  0.44118683  1  -1.172572  0  -0.34382  -0.542402  0  3.168366  0
N  N84  1  0.81090822  0.96415838  0.44123098  1  -1.225076  0  -0.343007  -0.541646  0  3.167152  0
N  N85  1  0.02293757  0.36976059  0.05881297  1  -1.17257  0  -0.343863  -0.542416  0  3.168267  0
N  N86  1  0.96415733  0.81090656  0.94122932  1  -1.224771  0  -0.342974  -0.541589  0  3.167215  0
N  N87  1  0.36976056  0.02293868  0.55881655  1  -1.172519  0  -0.343861  -0.542446  0  3.168388  0
N  N88  1  0.18909103  0.03584183  0.55877144  1  -1.224812  0  -0.343012  -0.541567  0  3.167193  0
N  N89  1  0.97706004  0.63023679  0.94118351  1  -1.172522  0  -0.343865  -0.542367  0  3.16829  0
O  O90  1  0.95635121  0.20641450  0.91272935  1  -1.191338  0  -0.309254  -0.549001  0  2.334928  0
O  O91  1  0.79358761  0.04365139  0.58727014  1  -1.191281  0  -0.309228  -0.548973  0  2.334907  0
O  O92  1  0.04366288  0.79358527  0.08726806  1  -1.191281  0  -0.309253  -0.548912  0  2.33481  0
O  O93  1  0.20641224  0.95633818  0.41273296  1  -1.191249  0  -0.309248  -0.54893  0  2.334818  0
