# generated using pymatgen
data_CuH14C22NO9
_symmetry_space_group_name_H-M   'P 1'
_cell_length_a   7.86468102
_cell_length_b   10.18665150
_cell_length_c   13.18579750
_cell_angle_alpha   73.11302757
_cell_angle_beta   80.07805635
_cell_angle_gamma   86.37280349
_symmetry_Int_Tables_number   1
_chemical_formula_structural   CuH14C22NO9
_chemical_formula_sum   'Cu2 H28 C44 N2 O18'
_cell_volume   995.60939440
_cell_formula_units_Z   2
loop_
 _symmetry_equiv_pos_site_id
 _symmetry_equiv_pos_as_xyz
  1  'x, y, z'
loop_
 _atom_site_type_symbol
 _atom_site_label
 _atom_site_symmetry_multiplicity
 _atom_site_fract_x
 _atom_site_fract_y
 _atom_site_fract_z
 _atom_site_occupancy
 _atom_site_hle17_ddec_charge
 _atom_site_hle17_ddec_spin_density
 _atom_site_hle17_ddec_sum_bond_order
 _atom_site_hle17_magmom
 _atom_site_hse06_10hf_ddec_charge
 _atom_site_hse06_10hf_ddec_spin_density
 _atom_site_hse06_10hf_ddec_sum_bond_order
 _atom_site_hse06_10hf_magmom
 _atom_site_hse06_ddec_charge
 _atom_site_hse06_ddec_spin_density
 _atom_site_hse06_ddec_sum_bond_order
 _atom_site_hse06_magmom
 _atom_site_pbe_cm5_charge
 _atom_site_pbe_ddec_charge
 _atom_site_pbe_ddec_spin_density
 _atom_site_pbe_ddec_sum_bond_order
 _atom_site_pbe_magmom
Cu  Cu0  1  0.26598372  0.84693564  0.06159889  1  0.883022  -0.669076  1.682585  -0.489  0.869619  -0.765452  2.065893  -0.61  0.982049  -0.8347  1.97034  -0.7  0.732749  0.809816  -0.719059  2.118538  -0.555
Cu  Cu1  1  0.73401605  0.15306416  0.93840289  1  0.882958  -0.669081  1.682641  -0.489  0.869589  -0.765454  2.065911  -0.61  0.982  -0.834701  1.970384  -0.7  0.732709  0.809779  -0.719063  2.118563  -0.555
H  H2  1  0.62258436  0.96596486  0.27856312  1  0.405575  4.7e-05  0.894317  0.0  0.373105  2.7e-05  0.973246  0.0  0.387502  3e-05  0.95515  0.0  0.297798  0.363198  1e-05  0.983166  0.0
H  H3  1  0.37741670  0.03403494  0.72143776  1  0.405621  4.7e-05  0.894283  0.0  0.373186  2.7e-05  0.973147  0.0  0.387583  2.9e-05  0.955038  0.0  0.297854  0.363276  1e-05  0.983077  0.0
H  H4  1  0.01037119  0.29854249  0.64988663  1  0.411674  1.2e-05  0.87817  0.0  0.381261  1.3e-05  0.955227  0.0  0.394262  8e-06  0.936726  0.0  0.308161  0.372164  1.6e-05  0.965787  0.0
H  H5  1  0.98961720  0.70144796  0.35011394  1  0.411719  1.1e-05  0.878091  0.0  0.38122  1.3e-05  0.955283  0.0  0.394218  8e-06  0.936787  0.0  0.308151  0.372126  1.6e-05  0.965832  0.0
H  H6  1  0.51693406  0.49348027  0.79828019  1  0.124401  3.4e-05  0.952103  0.0  0.129798  7e-06  1.020377  0.0  0.133049  1e-06  1.018927  0.0  0.112851  0.127521  1.3e-05  1.021268  0.0
H  H7  1  0.48306428  0.50652465  0.20172057  1  0.124399  3.4e-05  0.952093  0.0  0.129793  7e-06  1.020393  0.0  0.133054  1e-06  1.018913  0.0  0.112845  0.127522  1.3e-05  1.021266  0.0
H  H8  1  0.57715791  0.85158812  0.14640729  1  0.101469  -0.000721  0.971351  -0.002  0.109218  -0.000656  1.035522  -0.002  0.111955  -0.000421  1.033332  -0.001  0.121166  0.106998  -0.000864  1.037572  -0.002
H  H9  1  0.42284820  0.14841373  0.85358728  1  0.101513  -0.000718  0.97131  -0.002  0.109283  -0.000656  1.035444  -0.002  0.112021  -0.000421  1.033254  -0.001  0.121194  0.107063  -0.000864  1.037496  -0.002
H  H10  1  0.83196523  0.56105846  0.48679185  1  0.109715  -3e-06  0.978738  0.0  0.114547  -1e-06  1.050067  0.0  0.118599  -1e-06  1.046514  0.0  0.108205  0.111614  -2e-06  1.052604  0.0
H  H11  1  0.16803084  0.43893409  0.51320667  1  0.109738  -3e-06  0.978664  0.0  0.114587  -1e-06  1.049979  0.0  0.118639  -2e-06  1.046427  0.0  0.108194  0.111659  -2e-06  1.052512  0.0
H  H12  1  0.40819786  0.83738819  0.53554818  1  0.128568  3.2e-05  0.94487  0.0  0.136607  2e-05  1.006945  0.0  0.140853  1.7e-05  1.003762  0.0  0.114932  0.13355  2.2e-05  1.009269  0.0
H  H13  1  0.59180829  0.16261368  0.46444942  1  0.128602  2.9e-05  0.944914  0.0  0.136693  2e-05  1.006927  0.0  0.140939  1.7e-05  1.003744  0.0  0.115016  0.133634  2.2e-05  1.00925  0.0
H  H14  1  0.85596365  0.72272243  0.15033442  1  0.130258  -0.000424  0.945373  -0.001  0.137689  -0.000386  1.007229  -0.001  0.141415  -0.000263  1.005599  0.0  0.111952  0.134952  -0.000489  1.008648  -0.001
H  H15  1  0.14404241  0.27728147  0.84965969  1  0.130214  -0.000425  0.945418  -0.001  0.137655  -0.000386  1.00727  -0.001  0.141382  -0.000263  1.005641  0.0  0.111923  0.134925  -0.000489  1.008685  -0.001
H  H16  1  0.06395927  0.58289395  0.06685404  1  0.097969  0.000181  0.964535  0.0  0.113387  9.7e-05  1.02917  0.0  0.114749  0.000114  1.02842  0.0  0.098525  0.112216  7.1e-05  1.030075  0.0
H  H17  1  0.93604561  0.41710688  0.93314393  1  0.097973  0.000183  0.964568  0.0  0.113403  9.7e-05  1.029211  0.0  0.114768  0.000114  1.028453  0.0  0.098527  0.11223  7.1e-05  1.030118  0.0
H  H18  1  0.93282117  0.43797049  0.11959560  1  0.085641  0.000475  0.945516  0.0  0.103624  0.000204  1.007436  0.0  0.104411  0.000227  1.008016  0.0  0.095614  0.103009  0.000173  1.007123  0.0
H  H19  1  0.06717861  0.56202825  0.88040262  1  0.085598  0.000476  0.945555  0.0  0.103595  0.000204  1.007476  0.0  0.104381  0.000228  1.008058  0.0  0.095624  0.102982  0.000173  1.007164  0.0
H  H20  1  0.44373371  0.68289938  0.92096307  1  0.083003  -0.000948  0.959738  -0.002  0.088093  -0.000826  1.028916  -0.001  0.090379  -0.000602  1.027015  -0.001  0.11584  0.086233  -0.001003  1.03046  -0.001
H  H21  1  0.55625969  0.31709624  0.07903578  1  0.082941  -0.000949  0.95984  -0.002  0.088049  -0.000826  1.028962  -0.001  0.090342  -0.000602  1.027052  -0.001  0.11581  0.086163  -0.001003  1.030581  -0.001
H  H22  1  0.71626196  0.54623746  0.91523975  1  0.112198  -0.000455  0.965485  -0.001  0.121508  -0.000401  1.027483  0.0  0.124341  -0.000283  1.02713  0.0  0.106934  0.119433  -0.000497  1.0279  -0.001
H  H23  1  0.28373401  0.45376026  0.08476366  1  0.112185  -0.000456  0.965469  -0.001  0.121532  -0.000401  1.027417  0.0  0.124366  -0.000283  1.027064  0.0  0.106935  0.11946  -0.000497  1.027837  -0.001
H  H24  1  0.13795777  0.68945316  0.58312545  1  0.120851  -0.000105  0.938706  0.0  0.131873  -2.6e-05  0.996  0.0  0.134848  -1e-05  0.994625  0.0  0.110622  0.129796  -4.1e-05  0.997005  0.0
H  H25  1  0.86204047  0.31055483  0.41687386  1  0.120841  -0.000106  0.93865  0.0  0.131885  -2.6e-05  0.99593  0.0  0.134851  -1e-05  0.994569  0.0  0.110601  0.129805  -4.1e-05  0.996934  0.0
H  H26  1  0.73892328  0.97236980  0.66113534  1  0.117093  -0.00049  0.940832  0.0  0.126521  -0.00045  1.000875  0.0  0.130835  -0.0003  0.997633  0.0  0.108402  0.123449  -0.000576  1.003181  0.0
H  H27  1  0.26107649  0.02763104  0.33886923  1  0.117067  -0.000493  0.940848  0.0  0.12649  -0.00045  1.000895  0.0  0.130803  -0.000301  0.997657  0.0  0.1084  0.123422  -0.000576  1.003197  0.0
H  H28  1  0.87092396  0.82376320  0.54570029  1  0.088148  0.000187  0.973424  0.0  0.099498  1.5e-05  1.031243  0.0  0.101025  1.9e-05  1.032148  0.0  0.099128  0.098392  1e-05  1.030675  0.0
H  H29  1  0.12907062  0.17623863  0.45430385  1  0.088121  0.00019  0.973446  0.0  0.099473  1.5e-05  1.031269  0.0  0.101001  1.9e-05  1.032172  0.0  0.099121  0.098373  1e-05  1.030695  0.0
C  C30  1  0.86131972  0.01717061  0.82480132  1  0.605099  0.017531  3.870557  0.016  0.56348  0.005579  4.171565  0.007  0.601592  0.005513  4.173178  0.006  0.196946  0.537293  0.005191  4.171998  0.007
C  C31  1  0.13868386  0.98283231  0.17520162  1  0.605066  0.017527  3.87059  0.016  0.563438  0.005578  4.171617  0.007  0.601549  0.005513  4.173234  0.006  0.196922  0.537256  0.005191  4.172043  0.007
C  C32  1  0.09938914  0.86053403  0.77488090  1  -0.140395  -0.006104  3.679286  -0.007  -0.137116  -0.00444  3.922629  -0.005  -0.141986  -0.002614  3.938383  -0.004  -0.006763  -0.133782  -0.005941  3.911834  -0.007
C  C33  1  0.90061438  0.13947094  0.22512082  1  -0.140261  -0.006107  3.679046  -0.007  -0.137016  -0.004442  3.922385  -0.005  -0.141889  -0.002611  3.938139  -0.004  -0.006666  -0.133671  -0.005942  3.911599  -0.007
C  C34  1  0.20240573  0.87503808  0.85743409  1  0.685674  0.007753  3.864577  0.008  0.62857  0.001957  4.184005  0.004  0.669514  0.002727  4.171879  0.003  0.222569  0.600718  0.001049  4.192326  0.003
C  C35  1  0.79759267  0.12496479  0.14256789  1  0.6858  0.007751  3.864575  0.008  0.628763  0.001958  4.183876  0.004  0.66971  0.002727  4.171741  0.003  0.222643  0.60089  0.001049  4.19222  0.003
C  C36  1  0.68562356  0.51446336  0.64659579  1  -0.052251  -3.1e-05  3.779598  0.0  -0.02664  -3.1e-05  4.012928  0.0  -0.036113  -5.2e-05  4.03657  0.0  -0.013576  -0.020666  -1.1e-05  3.997093  0.0
C  C37  1  0.31437111  0.48553329  0.35340346  1  -0.052242  -2.6e-05  3.779784  0.0  -0.026547  -3.2e-05  4.013036  0.0  -0.036019  -5.1e-05  4.036677  0.0  -0.013489  -0.020574  -1.2e-05  3.997208  0.0
C  C38  1  0.54508264  0.55128807  0.71386654  1  -0.141363  -0.000101  3.662972  0.0  -0.180608  5.5e-05  3.916719  0.0  -0.17969  8.7e-05  3.933423  0.0  -0.078165  -0.180726  5.7e-05  3.905241  0.0
C  C39  1  0.45491581  0.44871273  0.28613363  1  -0.141334  -0.000101  3.663059  0.0  -0.180621  5.6e-05  3.916814  0.0  -0.179703  8.6e-05  3.933529  0.0  -0.078163  -0.180734  5.7e-05  3.905334  0.0
C  C40  1  0.44181805  0.66405017  0.67237510  1  0.276131  -5.1e-05  3.780414  0.0  0.269169  -6.7e-05  4.045257  0.0  0.277451  -6.3e-05  4.060176  0.0  0.091403  0.26306  -8.2e-05  4.035214  0.0
C  C41  1  0.55818418  0.33595374  0.32762471  1  0.276122  -5.3e-05  3.780536  0.0  0.269161  -6.6e-05  4.04541  0.0  0.277442  -6.3e-05  4.060332  0.0  0.091393  0.263047  -8.2e-05  4.035364  0.0
C  C42  1  0.61263842  0.78090393  0.09808247  1  0.115467  0.008715  3.696336  0.005  0.084207  0.00141  3.957434  0.0  0.092576  0.003029  3.978204  0.002  0.040723  0.078294  0.000121  3.945952  -0.001
C  C43  1  0.38736256  0.21909685  0.90191288  1  0.1154  0.008697  3.696246  0.005  0.084112  0.00141  3.957416  0.0  0.092482  0.00303  3.978183  0.002  0.040705  0.078186  0.000121  3.945956  -0.001
C  C44  1  0.94214450  0.93000949  0.75674879  1  -0.044113  -0.003343  3.748407  -0.002  -0.027541  -0.002171  3.978574  -0.001  -0.031511  -0.001739  3.996766  -0.001  -0.009196  -0.024827  -0.002614  3.966093  -0.001
C  C45  1  0.05785780  0.06999237  0.24325225  1  -0.044141  -0.003341  3.748263  -0.002  -0.027585  -0.002169  3.978473  -0.001  -0.031551  -0.001742  3.99666  -0.001  -0.009239  -0.024877  -0.002614  3.966  -0.001
C  C46  1  0.80753381  0.61649427  0.03707445  1  0.180532  0.011294  3.67691  0.007  0.194115  0.004013  3.913121  0.002  0.202499  0.004557  3.931198  0.003  0.022879  0.188636  0.00355  3.900505  0.002
C  C47  1  0.19246850  0.38350656  0.96292530  1  0.180563  0.011287  3.677036  0.007  0.194157  0.004016  3.913241  0.002  0.202546  0.004557  3.93131  0.003  0.022892  0.188675  0.003549  3.900639  0.002
C  C48  1  0.16640271  0.77310211  0.71265886  1  0.23868  -0.003543  3.780747  -0.004  0.220094  -0.001494  4.049751  -0.002  0.22844  -0.001124  4.066586  -0.001  0.08429  0.21417  -0.001935  4.038508  -0.002
C  C49  1  0.83360196  0.22690696  0.28734028  1  0.238571  -0.00354  3.780588  -0.004  0.220015  -0.001493  4.049576  -0.002  0.228363  -0.001126  4.066407  -0.001  0.084218  0.21409  -0.001935  4.038331  -0.002
C  C50  1  0.72164463  0.58959586  0.53835517  1  -0.087093  -7.6e-05  3.707772  0.0  -0.131153  9.6e-05  3.963696  0.0  -0.128896  0.000117  3.982906  0.0  -0.082699  -0.132421  1.6e-05  3.950745  0.0
C  C51  1  0.27834878  0.41039870  0.46164165  1  -0.087203  -8.1e-05  3.707804  0.0  -0.131303  0.0001  3.963724  0.0  -0.129051  0.000115  3.982937  0.0  -0.082751  -0.132577  1.6e-05  3.950784  0.0
C  C52  1  0.62307963  0.70682514  0.49920496  1  -0.066385  2.1e-05  3.801149  0.0  -0.039608  -1.8e-05  4.037869  0.0  -0.047872  -2.1e-05  4.060617  0.0  -0.018647  -0.034436  -2.3e-05  4.022691  0.0
C  C53  1  0.37692265  0.29317566  0.50079176  1  -0.066325  2.1e-05  3.801091  0.0  -0.039537  -2e-05  4.037834  0.0  -0.047799  -1.9e-05  4.060581  0.0  -0.018633  -0.034369  -2.3e-05  4.022654  0.0
C  C54  1  0.48210640  0.74462786  0.56617503  1  -0.163248  -6.9e-05  3.688427  0.0  -0.199259  6.7e-05  3.938392  0.0  -0.199079  8.7e-05  3.954355  0.0  -0.083851  -0.199045  6.1e-05  3.927635  0.0
C  C55  1  0.51789978  0.25537299  0.43382355  1  -0.163302  -6e-05  3.688547  0.0  -0.199354  6.7e-05  3.938512  0.0  -0.199176  8.7e-05  3.954476  0.0  -0.083947  -0.199128  6.1e-05  3.927742  0.0
C  C56  1  0.67749046  0.79805545  0.38816564  1  0.657473  3.6e-05  3.818455  0.0  0.607221  2.3e-05  4.112528  0.0  0.64077  1.5e-05  4.104206  0.0  0.236028  0.584535  1.1e-05  4.117631  0.0
C  C57  1  0.32251195  0.20194126  0.61183277  1  0.65751  4e-05  3.818318  0.0  0.607219  2.4e-05  4.112466  0.0  0.640768  1.3e-05  4.104145  0.0  0.2361  0.584541  1.1e-05  4.117557  0.0
C  C58  1  0.76758711  0.70803232  0.09956089  1  -0.150352  -0.009684  3.653306  -0.01  -0.165627  -0.003971  3.895042  -0.005  -0.173397  -0.0035  3.913474  -0.004  -0.079438  -0.160647  -0.004321  3.882672  -0.005
C  C59  1  0.23241636  0.29197260  0.90043553  1  -0.150229  -0.009676  3.653258  -0.01  -0.165526  -0.003971  3.895034  -0.005  -0.173298  -0.003501  3.913466  -0.004  -0.079379  -0.160546  -0.004321  3.882669  -0.005
C  C60  1  0.80645766  0.40381624  0.69428166  1  0.667294  0.001073  3.80121  0.001  0.626157  0.000859  4.085967  0.001  0.661963  0.000734  4.074834  0.0  0.23788  0.601883  0.000968  4.093554  0.001
C  C61  1  0.19353702  0.59618042  0.30571910  1  0.66731  0.001066  3.801159  0.001  0.62611  0.000859  4.085977  0.001  0.661915  0.000734  4.074846  0.0  0.237818  0.601832  0.000968  4.093573  0.001
C  C62  1  0.96552915  0.52623834  0.04818975  1  -0.161699  -0.000579  3.701378  -0.001  -0.205576  -0.000199  3.948215  0.0  -0.206679  -4.1e-05  3.957731  0.0  -0.162816  -0.204582  -0.000354  3.941468  0.0
C  C63  1  0.03447322  0.47376044  0.95181047  1  -0.16172  -0.000584  3.70154  -0.001  -0.205632  -0.000199  3.948362  0.0  -0.206735  -4.1e-05  3.957879  0.0  -0.162859  -0.204641  -0.000354  3.941617  0.0
C  C64  1  0.53833819  0.68746021  0.97108525  1  0.129045  0.010425  3.718849  0.007  0.103171  0.002719  3.972345  0.002  0.113513  0.004236  3.992518  0.003  0.042493  0.096645  0.001551  3.95961  0.001
C  C65  1  0.46166033  0.31253750  0.02891410  1  0.129171  0.01043  3.718865  0.007  0.103311  0.002719  3.972392  0.002  0.11365  0.004238  3.992564  0.003  0.042526  0.096782  0.001552  3.959634  0.001
C  C66  1  0.69115273  0.61129288  0.96892863  1  -0.186822  -0.00832  3.6994  -0.009  -0.198329  -0.003106  3.935738  -0.004  -0.207928  -0.00283  3.956715  -0.004  -0.088836  -0.191945  -0.003274  3.92133  -0.004
C  C67  1  0.30884710  0.38870485  0.03107286  1  -0.186841  -0.008315  3.69944  -0.009  -0.198382  -0.003107  3.935769  -0.004  -0.207982  -0.00283  3.956745  -0.004  -0.08882  -0.191996  -0.003274  3.921362  -0.004
C  C68  1  0.08472564  0.75827764  0.63071373  1  -0.164285  0.004349  3.731969  0.003  -0.18786  0.00135  3.987768  0.001  -0.191769  0.001583  4.008013  0.001  -0.092289  -0.185321  0.001145  3.974388  0.001
C  C69  1  0.91527529  0.24172730  0.36928827  1  -0.164246  0.004344  3.731802  0.003  -0.187861  0.001348  3.987608  0.001  -0.191764  0.001587  4.007857  0.001  -0.092257  -0.185318  0.001145  3.974223  0.001
C  C70  1  0.85983812  0.91650852  0.67417939  1  -0.074114  0.001499  3.706671  0.001  -0.103601  -0.000618  3.959576  -0.001  -0.103988  0.000108  3.978068  0.0  -0.083744  -0.103164  -0.001221  3.946799  -0.001
C  C71  1  0.14015918  0.08348820  0.32582487  1  -0.074139  0.001511  3.706657  0.001  -0.103613  -0.00062  3.959567  -0.001  -0.104001  0.000112  3.978058  0.0  -0.08377  -0.103176  -0.001221  3.946796  -0.001
C  C72  1  0.93306732  0.83303391  0.61074708  1  -0.041586  -0.004486  3.782522  -0.004  -0.056155  -0.0018  4.04032  -0.002  -0.058574  -0.001332  4.064448  -0.002  -0.087807  -0.054545  -0.002347  4.024009  -0.002
C  C73  1  0.06692991  0.16696485  0.38925597  1  -0.04154  -0.004489  3.782502  -0.004  -0.056113  -0.001799  4.040301  -0.002  -0.058531  -0.001334  4.064425  -0.002  -0.087788  -0.054511  -0.002348  4.023996  -0.002
N  N74  1  0.49717874  0.76823250  0.03668480  1  -0.330454  -0.069853  3.398312  -0.088  -0.286665  -0.048259  3.711554  -0.064  -0.323262  -0.039858  3.734111  -0.057  -0.365163  -0.266712  -0.052753  3.699371  -0.067
N  N75  1  0.50281977  0.23176521  0.96331379  1  -0.330541  -0.069856  3.398322  -0.088  -0.286775  -0.048259  3.711609  -0.064  -0.323369  -0.039859  3.734168  -0.057  -0.365203  -0.266808  -0.052753  3.699406  -0.067
O  O76  1  0.15991051  0.79876494  0.95318054  1  -0.558289  -0.081091  2.069587  -0.109  -0.523796  -0.054583  2.35244  -0.08  -0.569255  -0.041923  2.342361  -0.067  -0.301448  -0.495383  -0.062674  2.359122  -0.087
O  O77  1  0.84008923  0.20123588  0.04682100  1  -0.558277  -0.081094  2.069556  -0.109  -0.523803  -0.054585  2.352375  -0.08  -0.56926  -0.041923  2.342296  -0.067  -0.301419  -0.495377  -0.062675  2.359059  -0.087
O  O78  1  0.33044973  0.95377756  0.82789920  1  -0.585136  0.000439  2.047428  -0.001  -0.544815  -0.000221  2.295179  -0.002  -0.572796  0.00089  2.282325  -0.001  -0.292226  -0.525797  -0.001211  2.303368  -0.003
O  O79  1  0.66955524  0.04622124  0.17210150  1  -0.585233  0.000441  2.047498  -0.001  -0.544922  -0.00022  2.295237  -0.002  -0.5729  0.00089  2.282377  -0.001  -0.292318  -0.525902  -0.001212  2.303436  -0.003
O  O80  1  0.94293257  0.04791466  0.89062319  1  -0.519228  -0.100616  1.99018  -0.134  -0.498778  -0.061644  2.258891  -0.09  -0.546785  -0.044431  2.25657  -0.071  -0.292556  -0.469554  -0.072223  2.261157  -0.1
O  O81  1  0.05706724  0.95208517  0.10938237  1  -0.519176  -0.100623  1.990144  -0.134  -0.498719  -0.061647  2.258876  -0.09  -0.54673  -0.044434  2.256556  -0.071  -0.292509  -0.469497  -0.072227  2.26114  -0.1
O  O82  1  0.30911991  0.69514029  0.74498535  1  -0.287422  -0.000522  2.389632  -0.001  -0.216568  -0.000216  2.615232  0.0  -0.234692  -0.000122  2.618833  0.0  -0.144129  -0.203626  -0.000356  2.612446  -0.001
O  O83  1  0.69088105  0.30486362  0.25501612  1  -0.287416  -0.000522  2.389628  -0.001  -0.216571  -0.000216  2.61522  0.0  -0.234697  -0.000123  2.618822  0.0  -0.144114  -0.203622  -0.000356  2.612429  -0.001
O  O84  1  0.57423727  0.90362307  0.35860467  1  -0.544491  -0.000112  2.077355  0.0  -0.491896  -6.3e-05  2.292996  0.0  -0.514827  -3e-06  2.276192  0.0  -0.318878  -0.475977  -0.000133  2.302233  0.0
O  O85  1  0.42576522  0.09637160  0.64139571  1  -0.544526  -0.000113  2.077266  0.0  -0.491955  -6.3e-05  2.292935  0.0  -0.514884  -2e-06  2.276119  0.0  -0.31898  -0.476036  -0.000133  2.30217  0.0
O  O86  1  0.70606461  0.06342563  0.82071620  1  -0.548691  -0.104522  1.93389  -0.139  -0.532382  -0.068676  2.195717  -0.1  -0.581598  -0.049299  2.193077  -0.079  -0.306677  -0.501762  -0.081116  2.197761  -0.111
O  O87  1  0.29393775  0.93657418  0.17928530  1  -0.548683  -0.104521  1.933953  -0.139  -0.532363  -0.068674  2.195783  -0.1  -0.581583  -0.049297  2.193143  -0.079  -0.306667  -0.501743  -0.081114  2.197819  -0.111
O  O88  1  0.81383725  0.36670056  0.79133524  1  -0.573386  0.001113  1.991971  0.0  -0.546916  0.001125  2.236169  0.0  -0.572102  0.001324  2.222719  0.0  -0.289629  -0.531721  0.000924  2.245857  0.0
O  O89  1  0.18616247  0.63330025  0.20866403  1  -0.573426  0.001116  1.991875  0.0  -0.546943  0.001125  2.236106  0.0  -0.572132  0.001322  2.222656  0.0  -0.289647  -0.531747  0.000925  2.245796  0.0
O  O90  1  0.81237893  0.77716894  0.32917884  1  -0.577035  -5.8e-05  2.000592  0.0  -0.528871  -7.6e-05  2.221523  0.0  -0.551441  -5.5e-05  2.21234  0.0  -0.28895  -0.51327  -0.0001  2.226902  0.0
O  O91  1  0.18762085  0.22282876  0.67081734  1  -0.577089  -6.1e-05  2.000575  0.0  -0.528929  -7.6e-05  2.221491  0.0  -0.551498  -5.5e-05  2.212308  0.0  -0.288985  -0.513332  -9.9e-05  2.226875  0.0
O  O92  1  0.90833484  0.35550951  0.62100974  1  -0.557111  0.000181  2.098256  0.0  -0.502733  0.000217  2.308338  0.0  -0.524313  0.000168  2.288224  0.0  -0.330587  -0.487633  0.000263  2.319791  0.0
O  O93  1  0.09165612  0.64448199  0.37899183  1  -0.557144  0.000181  2.098185  0.0  -0.502683  0.000216  2.308373  0.0  -0.52426  0.00017  2.288262  0.0  -0.330536  -0.487575  0.000263  2.319807  0.0
