# generated using pymatgen
data_ZnH10C19NClO4
_symmetry_space_group_name_H-M   'P 1'
_cell_length_a   10.94500743
_cell_length_b   16.53540898
_cell_length_c   17.92410444
_cell_angle_alpha   90.07990778
_cell_angle_beta   90.80755788
_cell_angle_gamma   89.48946523
_symmetry_Int_Tables_number   1
_chemical_formula_structural   ZnH10C19NClO4
_chemical_formula_sum   'Zn2 H20 C38 N2 Cl2 O8'
_cell_volume   3243.45395958
_cell_formula_units_Z   2
loop_
 _symmetry_equiv_pos_site_id
 _symmetry_equiv_pos_as_xyz
  1  'x, y, z'
loop_
 _atom_site_type_symbol
 _atom_site_label
 _atom_site_symmetry_multiplicity
 _atom_site_fract_x
 _atom_site_fract_y
 _atom_site_fract_z
 _atom_site_occupancy
 _atom_site_pbe_bader_charge
 _atom_site_pbe_bader_spin_density
 _atom_site_pbe_cm5_charge
 _atom_site_pbe_ddec_charge
 _atom_site_pbe_ddec_spin_density
 _atom_site_pbe_ddec_sum_bond_order
 _atom_site_pbe_magmom
Zn  Zn0  1  0.49813455  0.41553361  0.49982007  1  1.272358  0  0.661605  0.812639  0  2.437955  0
Zn  Zn1  1  0.50185169  0.58445686  0.50017743  1  1.265284  0  0.661554  0.812642  0  2.438041  0
H  H2  1  0.93095320  0.35892139  0.50635956  1  0.058921  0  0.101961  0.105124  0  0.982384  0
H  H3  1  0.35612759  0.86569280  0.41591177  1  0.09344  0  0.11935  0.12858  0  0.975959  0
H  H4  1  0.35614196  0.13514391  0.41585163  1  0.099984  0  0.118934  0.127807  0  0.976974  0
H  H5  1  0.64384707  0.86484657  0.58415146  1  0.099955  0  0.119018  0.128013  0  0.976803  0
H  H6  1  0.63669232  0.28649307  0.58026645  1  0.137156  0  0.133362  0.109691  0  0.96279  0
H  H7  1  0.36329491  0.71349619  0.41973831  1  0.159606  0  0.133408  0.109692  0  0.962761  0
H  H8  1  0.36160924  0.28727387  0.41986369  1  0.144197  0  0.132855  0.108837  0  0.964113  0
H  H9  1  0.63838527  0.71271600  0.58013832  1  0.144462  0  0.132863  0.108834  0  0.964114  0
H  H10  1  0.49492226  0.37062974  0.26184072  1  0.10016  0  0.102735  0.106782  0  1.004179  0
H  H11  1  0.50514666  0.62938184  0.73813048  1  0.099568  0  0.102727  0.106816  0  1.004226  0
H  H12  1  0.49340608  0.37046669  0.73764879  1  0.095805  0  0.103434  0.1075  0  1.001654  0
H  H13  1  0.06903416  0.64106002  0.49364909  1  0.059386  0  0.101854  0.104877  0  0.982384  0
H  H14  1  0.50669971  0.62954308  0.26235999  1  0.095782  0  0.103368  0.107522  0  1.001448  0
H  H15  1  0.07609720  0.42647706  0.39093833  1  0.07838  0  0.105824  0.108614  0  0.973449  0
H  H16  1  0.92389197  0.57350556  0.60907034  1  0.079271  0  0.105788  0.108643  0  0.973421  0
H  H17  1  0.49517533  0.36981221  0.12196213  1  0.061281  0  0.103109  0.105264  0  0.993379  0
H  H18  1  0.50503868  0.63021987  0.87801658  1  0.060743  0  0.103083  0.105045  0  0.9942  0
H  H19  1  0.49310455  0.36965376  0.87753245  1  0.061418  0  0.103371  0.105384  0  0.99312  0
H  H20  1  0.50715261  0.63038133  0.12247663  1  0.060732  0  0.103291  0.10527  0  0.992632  0
H  H21  1  0.64385601  0.13429708  0.58409687  1  0.0934  0  0.119314  0.128593  0  0.976017  0
C  C22  1  0.50152712  0.50012296  0.64642881  1  1.605567  0  0.21157  0.587776  0  4.178967  0
C  C23  1  0.42342346  0.75009656  0.45485137  1  0.509007  0  0.065684  0.106834  0  3.91733  0
C  C24  1  0.42214270  0.25032936  0.45491449  1  0.49971  0  0.066545  0.108472  0  3.91942  0
C  C25  1  0.57785090  0.74966051  0.54508751  1  0.499349  0  0.066607  0.108499  0  3.919168  0
C  C26  1  0.50000541  0.12238353  0.49999397  1  0.05678  0  0.021588  0.17578  0  4.108162  0
C  C27  1  0.49997999  0.87760634  0.50001133  1  0.056595  0  0.021718  0.175861  0  4.108089  0
C  C28  1  0.50012593  0.03686656  0.50002070  1  -0.242408  0  -0.027436  -0.090141  0  4.08182  0
C  C29  1  0.49985491  0.96312453  0.49998626  1  -0.003615  0  -0.027329  -0.090121  0  4.08163  0
C  C30  1  0.73936004  0.49734549  0.50186682  1  1.604267  0  0.211322  0.603279  0  4.179606  0
C  C31  1  0.26062632  0.50263954  0.49813681  1  1.604454  0  0.211441  0.603274  0  4.179487  0
C  C32  1  0.96236905  0.42131126  0.50311428  1  -0.007264  0  -0.080493  -0.103888  0  3.64869  0
C  C33  1  0.49848371  0.49987234  0.35356492  1  1.606255  0  0.211679  0.58763  0  4.178982  0
C  C34  1  0.03761556  0.57867075  0.49689380  1  -0.007819  0  -0.080253  -0.103364  0  3.648344  0
C  C35  1  0.04124332  0.45842641  0.43974577  1  -0.031977  0  -0.073481  -0.095617  0  3.627661  0
C  C36  1  0.95874312  0.54155500  0.56026176  1  -0.033763  0  -0.073634  -0.095907  0  3.627645  0
C  C37  1  0.04438112  0.46531832  0.56238521  1  0.160676  0  0.025751  0.147756  0  3.688161  0
C  C38  1  0.95560440  0.53466369  0.43762232  1  0.159731  0  0.025692  0.147771  0  3.68822  0
C  C39  1  0.12443162  0.50326098  0.49862598  1  -0.020746  0  -0.007471  -0.053589  0  3.642262  0
C  C40  1  0.87555572  0.49672103  0.50138157  1  -0.020333  0  -0.00749  -0.053439  0  3.642045  0
C  C41  1  0.49725923  0.42658671  0.15293289  1  0.01986  0  -0.085939  -0.130661  0  3.95738  0
C  C42  1  0.50296854  0.57344234  0.84704869  1  0.019111  0  -0.086224  -0.130842  0  3.95888  0
C  C43  1  0.49624106  0.42640836  0.84675735  1  0.030657  0  -0.084998  -0.129537  0  3.954046  0
C  C44  1  0.50028439  0.50008614  0.03407731  1  -0.090703  0  -0.046934  -0.111646  0  4.128971  0
C  C45  1  0.50400517  0.57361826  0.15324330  1  0.031236  0  -0.084902  -0.129706  0  3.953705  0
C  C46  1  0.49692302  0.42692979  0.23037938  1  -0.062844  0  -0.086358  -0.091758  0  3.999461  0
C  C47  1  0.50321443  0.57308842  0.76960168  1  -0.056928  0  -0.086311  -0.091722  0  3.999765  0
C  C48  1  0.49658889  0.42674263  0.76929140  1  -0.145824  0  -0.085147  -0.089594  0  3.994092  0
C  C49  1  0.50355790  0.57327135  0.23070869  1  -0.144334  0  -0.085105  -0.089439  0  3.993858  0
C  C50  1  0.49958576  0.50009010  0.27005025  1  -0.0181  0  -0.017294  -0.030559  0  3.960099  0
C  C51  1  0.50050528  0.49991967  0.72994227  1  -0.022704  0  -0.017225  -0.030619  0  3.960094  0
C  C52  1  0.50047897  0.50012666  0.11296146  1  0.091755  0  0.000451  0.143586  0  4.116234  0
C  C53  1  0.49979542  0.49990539  0.88702707  1  0.093682  0  0.000749  0.14389  0  4.116587  0
C  C54  1  0.49999729  0.49994833  0.96591238  1  -0.32409  0  -0.04642  -0.111101  0  4.129304  0
C  C55  1  0.58014734  0.16599507  0.54695925  1  -0.042194  0  -0.069084  -0.169929  0  3.906699  0
C  C56  1  0.41983717  0.83399480  0.45304772  1  -0.041724  0  -0.06914  -0.169835  0  3.906671  0
C  C57  1  0.41951707  0.16646509  0.45300473  1  -0.024842  0  -0.069356  -0.169594  0  3.908579  0
C  C58  1  0.58047288  0.83352478  0.54699781  1  -0.024638  0  -0.069424  -0.16979  0  3.908483  0
C  C59  1  0.57656469  0.24989271  0.54515339  1  0.532287  0  0.065727  0.106952  0  3.917493  0
N  N60  1  0.49907316  0.29116447  0.50007541  1  -1.222307  0  -0.311347  -0.184997  0  3.499103  0
N  N61  1  0.50091862  0.70882479  0.49992658  1  -1.222044  0  -0.311475  -0.184968  0  3.498842  0
Cl  Cl62  1  0.10317883  0.42129592  0.64385467  1  -0.233706  0  -0.062334  -0.140885  0  1.344788  0
Cl  Cl63  1  0.89680668  0.57868669  0.35615286  1  -0.233054  0  -0.062413  -0.14103  0  1.345045  0
O  O64  1  0.50103876  0.43158795  0.61368529  1  -1.171566  0  -0.320467  -0.554087  0  2.332767  0
O  O65  1  0.49895293  0.56840675  0.38631503  1  -1.171552  0  -0.320527  -0.554124  0  2.332585  0
O  O66  1  0.49699212  0.43113985  0.38571233  1  -1.171031  0  -0.321673  -0.553965  0  2.327352  0
O  O67  1  0.50299489  0.56885606  0.61427569  1  -1.170621  0  -0.321592  -0.554036  0  2.327339  0
O  O68  1  0.68607189  0.42927170  0.50056546  1  -1.163794  0  -0.31914  -0.547854  0  2.300966  0
O  O69  1  0.31391074  0.57071817  0.49943648  1  -1.163424  0  -0.319207  -0.54786  0  2.30068  0
O  O70  1  0.31117319  0.43300383  0.49703093  1  -1.15628  0  -0.32092  -0.551689  0  2.313224  0
O  O71  1  0.68881858  0.56698664  0.50297106  1  -1.156038  0  -0.320789  -0.551637  0  2.312941  0
