# generated using pymatgen
data_Zn3H22(C15O8)2
_symmetry_space_group_name_H-M   'P 1'
_cell_length_a   7.76601962
_cell_length_b   10.26267219
_cell_length_c   10.79141208
_cell_angle_alpha   65.37838639
_cell_angle_beta   74.82801716
_cell_angle_gamma   70.27350677
_symmetry_Int_Tables_number   1
_chemical_formula_structural   Zn3H22(C15O8)2
_chemical_formula_sum   'Zn3 H22 C30 O16'
_cell_volume   728.58651498
_cell_formula_units_Z   1
loop_
 _symmetry_equiv_pos_site_id
 _symmetry_equiv_pos_as_xyz
  1  'x, y, z'
loop_
 _atom_site_type_symbol
 _atom_site_label
 _atom_site_symmetry_multiplicity
 _atom_site_fract_x
 _atom_site_fract_y
 _atom_site_fract_z
 _atom_site_occupancy
 _atom_site_hle17_bader_spin_density
 _atom_site_hle17_ddec_charge
 _atom_site_hle17_ddec_spin_density
 _atom_site_hle17_ddec_sum_bond_order
 _atom_site_hle17_magmom
 _atom_site_hse06_10hf_bader_spin_density
 _atom_site_hse06_10hf_ddec_charge
 _atom_site_hse06_10hf_ddec_spin_density
 _atom_site_hse06_10hf_ddec_sum_bond_order
 _atom_site_hse06_10hf_magmom
 _atom_site_hse06_bader_spin_density
 _atom_site_hse06_ddec_charge
 _atom_site_hse06_ddec_spin_density
 _atom_site_hse06_ddec_sum_bond_order
 _atom_site_hse06_magmom
 _atom_site_pbe_bader_spin_density
 _atom_site_pbe_cm5_charge
 _atom_site_pbe_ddec_charge
 _atom_site_pbe_ddec_spin_density
 _atom_site_pbe_ddec_sum_bond_order
 _atom_site_pbe_magmom
Zn  Zn0  1  0.49999735  0.99999981  0.99999773  1  0  1.271  0  1.665543  0  0  1.11836  0  2.120944  0  0  1.164035  0  2.057809  0  0  0.699339  1.085415  0  2.165702  0
Zn  Zn1  1  0.67588992  0.62849016  0.99196409  1  0  1.189365  0  1.678973  0  0  1.029576  0  2.119468  0  0  1.079494  0  2.05852  0  0  0.693519  0.993853  0  2.161961  0
Zn  Zn2  1  0.32412329  0.37150327  0.00803744  1  0  1.189348  0  1.678951  0  0  1.029576  0  2.11942  0  0  1.0795  0  2.05847  0  0  0.693524  0.99385  0  2.161916  0
H  H3  1  0.75417406  0.40291777  0.93161447  1  0  0.429777  0  0.852628  0  0  0.405462  0  0.91115  0  0  0.415004  0  0.897274  0  0  0.30811  0.398656  0  0.9211  0
H  H4  1  0.24583421  0.59707461  0.06839125  1  0  0.429713  0  0.852889  0  0  0.405413  0  0.911258  0  0  0.414955  0  0.897383  0  0  0.30808  0.398608  0  0.921206  0
H  H5  1  0.95480377  0.42887791  0.91282383  1  0  0.444751  0  0.842882  0  0  0.415301  0  0.902692  0  0  0.425579  0  0.887831  0  0  0.3042  0.407985  0  0.913305  0
H  H6  1  0.04520441  0.57111891  0.08717738  1  0  0.444821  0  0.842786  0  0  0.415379  0  0.902581  0  0  0.425656  0  0.887721  0  0  0.304241  0.408063  0  0.913195  0
H  H7  1  0.59809317  0.12696936  0.15545953  1  0  0.436527  0  0.860542  0  0  0.405037  0  0.92544  0  0  0.415065  0  0.910659  0  0  0.296575  0.397394  0  0.936715  0
H  H8  1  0.40190960  0.87302313  0.84454262  1  0  0.436499  0  0.860577  0  0  0.405016  0  0.925459  0  0  0.415042  0  0.910682  0  0  0.296585  0.397374  0  0.936734  0
H  H9  1  0.73072186  0.96684483  0.18402523  1  0  0.42226  0  0.831634  0  0  0.401481  0  0.895109  0  0  0.4082  0  0.888131  0  0  0.313293  0.396601  0  0.900347  0
H  H10  1  0.26929061  0.03315424  0.81596124  1  0  0.422241  0  0.831752  0  0  0.40145  0  0.895244  0  0  0.408169  0  0.888267  0  0  0.313267  0.396569  0  0.90048  0
H  H11  1  0.16208535  0.70618930  0.73775772  1  0  0.118118  0  0.954995  0  0  0.123689  0  1.024909  0  0  0.127461  0  1.02192  0  0  0.104801  0.120929  0  1.027132  0
H  H12  1  0.83792107  0.29380969  0.26225132  1  0  0.118123  0  0.954984  0  0  0.123681  0  1.024913  0  0  0.12745  0  1.02193  0  0  0.104828  0.120922  0  1.027135  0
H  H13  1  0.41990140  0.86242620  0.31960396  1  0  0.111478  0  0.980353  0  0  0.115874  0  1.052413  0  0  0.11964  0  1.049943  0  0  0.105265  0.113223  0  1.054241  0
H  H14  1  0.58009493  0.13757957  0.68040352  1  0  0.111437  0  0.980435  0  0  0.115798  0  1.052543  0  0  0.119561  0  1.050077  0  0  0.105249  0.113149  0  1.054369  0
H  H15  1  0.77445822  0.43029959  0.66676041  1  0  0.100905  0  0.940841  0  0  0.113145  0  0.996324  0  0  0.116643  0  0.994286  0  0  0.106172  0.110414  0  0.998224  0
H  H16  1  0.22554549  0.56969843  0.33323751  1  0  0.100949  0  0.940837  0  0  0.113224  0  0.996271  0  0  0.116726  0  0.994227  0  0  0.106215  0.110489  0  0.998169  0
H  H17  1  0.38368521  0.05716780  0.41479666  1  0  0.09525  0  0.964284  0  0  0.103553  0  1.031206  0  0  0.106687  0  1.029399  0  0  0.099502  0.101122  0  1.033015  0
H  H18  1  0.61631481  0.94283359  0.58520068  1  0  0.095283  0  0.964297  0  0  0.103583  0  1.031209  0  0  0.106716  0  1.029405  0  0  0.099513  0.101152  0  1.033018  0
H  H19  1  0.85941440  0.46228389  0.41757205  1  0  0.103945  0  0.947745  0  0  0.113134  0  1.010589  0  0  0.116704  0  1.008301  0  0  0.105824  0.110513  0  1.01227  0
H  H20  1  0.14057111  0.53771662  0.58242486  1  0  0.104005  0  0.947658  0  0  0.113179  0  1.010506  0  0  0.116756  0  1.008218  0  0  0.105839  0.110543  0  1.012226  0
H  H21  1  0.88385668  0.16071760  0.68532435  1  0  0.101736  0  0.951133  0  0  0.112671  0  1.011175  0  0  0.115916  0  1.008812  0  0  0.10314  0.110165  0  1.013285  0
H  H22  1  0.11613181  0.83928619  0.31466973  1  0  0.101726  0  0.951122  0  0  0.112658  0  1.011179  0  0  0.115906  0  1.00881  0  0  0.103137  0.110151  0  1.013289  0
H  H23  1  0.12767077  0.24334507  0.48743899  1  0  0.08574  0  0.967556  0  0  0.096943  0  1.027999  0  0  0.098729  0  1.028905  0  0  0.096027  0.095765  0  1.027209  0
H  H24  1  0.87231585  0.75665990  0.51254852  1  0  0.085785  0  0.967504  0  0  0.096964  0  1.027958  0  0  0.098751  0  1.028867  0  0  0.096028  0.095787  0  1.027166  0
C  C25  1  0.52778615  0.60354122  0.78372944  1  0  0.695109  0  3.835506  0  0  0.636049  0  4.137665  0  0  0.67155  0  4.12735  0  0  0.23092  0.611501  0  4.143832  0
C  C26  1  0.47221877  0.39645341  0.21627606  1  0  0.695121  0  3.835346  0  0  0.636094  0  4.137461  0  0  0.671597  0  4.127144  0  0  0.230946  0.611546  0  4.14363  0
C  C27  1  0.68571095  0.67121529  0.20936592  1  0  0.654936  0  3.867864  0  0  0.603437  0  4.153947  0  0  0.638225  0  4.146467  0  0  0.210972  0.579348  0  4.159378  0
C  C28  1  0.31427976  0.32879062  0.79063429  1  0  0.654691  0  3.868089  0  0  0.60321  0  4.154115  0  0  0.637995  0  4.146645  0  0  0.210917  0.579123  0  4.159538  0
C  C29  1  0.55554609  0.63237908  0.63241908  1  0  -0.081121  0  3.667826  0  0  -0.066938  0  3.905424  0  0  -0.072425  0  3.925299  0  0  -0.003952  -0.063119  0  3.892033  0
C  C30  1  0.44446150  0.36761993  0.36758416  1  0  -0.081153  0  3.667691  0  0  -0.066971  0  3.905334  0  0  -0.072457  0  3.925207  0  0  -0.003949  -0.063154  0  3.891946  0
C  C31  1  0.00966262  0.92895985  0.72107224  1  0  -0.0627  0  3.76566  0  0  -0.03572  0  3.994088  0  0  -0.043956  0  4.016834  0  0  -0.020314  -0.030275  0  3.978673  0
C  C32  1  0.99033877  0.07104150  0.27892576  1  0  -0.062771  0  3.765639  0  0  -0.035797  0  3.994077  0  0  -0.044032  0  4.016823  0  0  -0.020351  -0.030372  0  3.97869  0
C  C33  1  0.85241573  0.88094326  0.82634330  1  0  0.686777  0  3.869767  0  0  0.634366  0  4.158818  0  0  0.670362  0  4.150021  0  0  0.223242  0.609919  0  4.163838  0
C  C34  1  0.14758315  0.11905808  0.17366077  1  0  0.686701  0  3.870008  0  0  0.634263  0  4.159085  0  0  0.670259  0  4.150288  0  0  0.223129  0.609821  0  4.164105  0
C  C35  1  0.15896725  0.82335704  0.68382425  1  0  -0.100796  0  3.676238  0  0  -0.134759  0  3.923832  0  0  -0.134368  0  3.942912  0  0  -0.082033  -0.13493  0  3.910933  0
C  C36  1  0.84103260  0.17664541  0.31617826  1  0  -0.100748  0  3.676117  0  0  -0.134697  0  3.923687  0  0  -0.13431  0  3.94277  0  0  -0.082037  -0.134864  0  3.910801  0
C  C37  1  0.50212562  0.77132484  0.39577791  1  0  -0.109585  0  3.678834  0  0  -0.141287  0  3.930829  0  0  -0.141771  0  3.950033  0  0  -0.078663  -0.141011  0  3.918685  0
C  C38  1  0.49787495  0.22867979  0.60422545  1  0  -0.109554  0  3.678906  0  0  -0.141215  0  3.930888  0  0  -0.141694  0  3.950093  0  0  -0.078638  -0.140941  0  3.918746  0
C  C39  1  0.45506380  0.75714706  0.53469644  1  0  0.050411  0  3.744524  0  0  0.059242  0  3.975909  0  0  0.059679  0  3.999744  0  0  0.004471  0.058938  0  3.960671  0
C  C40  1  0.54493979  0.24285200  0.46530851  1  0  0.050404  0  3.744564  0  0  0.059155  0  3.97603  0  0  0.05959  0  3.999863  0  0  0.004468  0.05885  0  3.960795  0
C  C41  1  0.70022660  0.52678670  0.58942046  1  0  -0.074848  0  3.740952  0  0  -0.098118  0  3.996617  0  0  -0.099941  0  4.016675  0  0  -0.084122  -0.096748  0  3.983049  0
C  C42  1  0.29977242  0.47321359  0.41057751  1  0  -0.074886  0  3.740854  0  0  -0.098175  0  3.996513  0  0  -0.100001  0  4.016571  0  0  -0.084161  -0.096796  0  3.982938  0
C  C43  1  0.29736540  0.86830629  0.57551758  1  0  0.035829  0  3.793152  0  0  0.053357  0  4.028109  0  0  0.050957  0  4.053166  0  0  -0.012274  0.054696  0  4.011348  0
C  C44  1  0.70263376  0.13169396  0.42448501  1  0  0.035759  0  3.793081  0  0  0.053341  0  4.028001  0  0  0.050946  0  4.053049  0  0  -0.012275  0.054679  0  4.011242  0
C  C45  1  0.28094458  0.02066039  0.50274000  1  0  -0.09188  0  3.713926  0  0  -0.114902  0  3.964009  0  0  -0.115921  0  3.984757  0  0  -0.085062  -0.114121  0  3.950683  0
C  C46  1  0.71905209  0.97933883  0.49725887  1  0  -0.091862  0  3.713971  0  0  -0.114897  0  3.964029  0  0  -0.115916  0  3.984775  0  0  -0.085056  -0.114116  0  3.950703  0
C  C47  1  0.74857787  0.54438040  0.45139853  1  0  -0.064842  0  3.734789  0  0  -0.09271  0  3.991688  0  0  -0.092748  0  4.012143  0  0  -0.082229  -0.092138  0  3.977437  0
C  C48  1  0.25141776  0.45562216  0.54859830  1  0  -0.064931  0  3.734778  0  0  -0.092808  0  3.991674  0  0  -0.092855  0  4.012136  0  0  -0.082252  -0.092242  0  3.977422  0
C  C49  1  0.00074657  0.08057147  0.65338737  1  0  -0.083965  0  3.744904  0  0  -0.109355  0  3.991058  0  0  -0.108672  0  4.010932  0  0  -0.088405  -0.109824  0  3.977738  0
C  C50  1  0.99924426  0.91943339  0.34660582  1  0  -0.083891  0  3.744851  0  0  -0.109271  0  3.990981  0  0  -0.108589  0  4.010855  0  0  -0.088368  -0.109733  0  3.977664  0
C  C51  1  0.13573105  0.12578955  0.54342360  1  0  -0.077134  0  3.79631  0  0  -0.088778  0  4.050816  0  0  -0.092555  0  4.074522  0  0  -0.096218  -0.086144  0  4.034601  0
C  C52  1  0.86426598  0.87421297  0.45657482  1  0  -0.077202  0  3.796272  0  0  -0.088816  0  4.050764  0  0  -0.092597  0  4.074475  0  0  -0.096217  -0.08618  0  4.034544  0
C  C53  1  0.64749192  0.66652885  0.35360471  1  0  -0.066248  0  3.777863  0  0  -0.044331  0  4.01628  0  0  -0.052005  0  4.039109  0  0  -0.020474  -0.039368  0  4.001043  0
C  C54  1  0.35250413  0.33347699  0.64639353  1  0  -0.066161  0  3.777851  0  0  -0.0442  0  4.016167  0  0  -0.051874  0  4.039  0  0  -0.020492  -0.039235  0  4.000928  0
O  O55  1  0.81790394  0.57116723  0.17744959  1  0  -0.637859  0  1.992265  0  0  -0.575316  0  2.224913  0  0  -0.601344  0  2.213558  0  0  -0.306344  -0.557062  0  2.232577  0
O  O56  1  0.18208346  0.42883651  0.82255307  1  0  -0.637767  0  1.99237  0  0  -0.57523  0  2.224985  0  0  -0.601258  0  2.213632  0  0  -0.306299  -0.556974  0  2.232645  0
O  O57  1  0.53161971  0.46997987  0.86397974  1  0  -0.679374  0  2.109571  0  0  -0.610872  0  2.366297  0  0  -0.638135  0  2.352316  0  0  -0.318441  -0.591544  0  2.375941  0
O  O58  1  0.46839042  0.53001472  0.13602010  1  0  -0.679328  0  2.109456  0  0  -0.610847  0  2.366121  0  0  -0.638105  0  2.35214  0  0  -0.318476  -0.59152  0  2.375763  0
O  O59  1  0.57655521  0.76638531  0.12167005  1  0  -0.675892  0  2.117606  0  0  -0.599256  0  2.38935  0  0  -0.628748  0  2.373036  0  0  -0.311949  -0.57857  0  2.401005  0
O  O60  1  0.42343043  0.23361958  0.87832973  1  0  -0.675772  0  2.117612  0  0  -0.599144  0  2.389351  0  0  -0.628634  0  2.373036  0  0  -0.311932  -0.578463  0  2.401015  0
O  O61  1  0.84903246  0.74738798  0.86022905  1  0  -0.641124  0  2.102712  0  0  -0.573456  0  2.370258  0  0  -0.602605  0  2.356147  0  0  -0.315617  -0.553214  0  2.379273  0
O  O62  1  0.15097352  0.25260772  0.13977767  1  0  -0.64105  0  2.10296  0  0  -0.573379  0  2.370518  0  0  -0.602528  0  2.356407  0  0  -0.315519  -0.553135  0  2.379528  0
O  O63  1  0.52412166  0.70544085  0.82379638  1  0  -0.654191  0  2.074743  0  0  -0.581712  0  2.326362  0  0  -0.60978  0  2.313005  0  0  -0.300845  -0.560691  0  2.334734  0
O  O64  1  0.47588496  0.29455265  0.17621016  1  0  -0.654194  0  2.074583  0  0  -0.581752  0  2.326275  0  0  -0.609828  0  2.312925  0  0  -0.300863  -0.56073  0  2.334647  0
O  O65  1  0.83269718  0.42893375  0.97135053  1  0  -0.808763  0  1.910285  0  0  -0.745476  0  2.106951  0  0  -0.767911  0  2.074535  0  0  -0.5617  -0.729678  0  2.129426  0
O  O66  1  0.16731139  0.57106194  0.02865289  1  0  -0.808776  0  1.910474  0  0  -0.745513  0  2.106998  0  0  -0.767965  0  2.074624  0  0  -0.561702  -0.729717  0  2.129475  0
O  O67  1  0.73351265  0.98012134  0.86826907  1  0  -0.667626  0  2.120778  0  0  -0.597148  0  2.38787  0  0  -0.626269  0  2.372561  0  0  -0.317452  -0.576387  0  2.397628  0
O  O68  1  0.26648634  0.01987896  0.13172798  1  0  -0.667588  0  2.120576  0  0  -0.597107  0  2.387683  0  0  -0.626231  0  2.372378  0  0  -0.317449  -0.576345  0  2.397436  0
O  O69  1  0.65347613  0.04662466  0.11777799  1  0  -0.820487  0  1.847755  0  0  -0.771378  0  2.041677  0  0  -0.788762  0  2.013082  0  0  -0.569612  -0.75891  0  2.062719  0
O  O70  1  0.34652714  0.95337450  0.88221587  1  0  -0.820449  0  1.847924  0  0  -0.771329  0  2.041848  0  0  -0.788713  0  2.013258  0  0  -0.569595  -0.75886  0  2.062891  0
