# generated using pymatgen
data_TbPH11C9SNO9
_symmetry_space_group_name_H-M   'P 1'
_cell_length_a   6.73698754
_cell_length_b   13.37975797
_cell_length_c   15.00429034
_cell_angle_alpha   90.57947479
_cell_angle_beta   89.99999885
_cell_angle_gamma   89.99998191
_symmetry_Int_Tables_number   1
_chemical_formula_structural   TbPH11C9SNO9
_chemical_formula_sum   'Tb4 P4 H44 C36 S4 N4 O36'
_cell_volume   1352.40649930
_cell_formula_units_Z   4
loop_
 _symmetry_equiv_pos_site_id
 _symmetry_equiv_pos_as_xyz
  1  'x, y, z'
loop_
 _atom_site_type_symbol
 _atom_site_label
 _atom_site_symmetry_multiplicity
 _atom_site_fract_x
 _atom_site_fract_y
 _atom_site_fract_z
 _atom_site_occupancy
 _atom_site_hle17_bader_spin_density
 _atom_site_hle17_ddec_charge
 _atom_site_hle17_ddec_spin_density
 _atom_site_hle17_ddec_sum_bond_order
 _atom_site_hle17_magmom
 _atom_site_hse06_10hf_bader_spin_density
 _atom_site_hse06_10hf_ddec_charge
 _atom_site_hse06_10hf_ddec_spin_density
 _atom_site_hse06_10hf_ddec_sum_bond_order
 _atom_site_hse06_10hf_magmom
 _atom_site_hse06_bader_spin_density
 _atom_site_hse06_ddec_charge
 _atom_site_hse06_ddec_spin_density
 _atom_site_hse06_ddec_sum_bond_order
 _atom_site_hse06_magmom
 _atom_site_pbe_bader_spin_density
 _atom_site_pbe_cm5_charge
 _atom_site_pbe_ddec_charge
 _atom_site_pbe_ddec_spin_density
 _atom_site_pbe_ddec_sum_bond_order
 _atom_site_pbe_magmom
Tb  Tb0  1  0.87505710  0.54815552  0.61927176  1  0  2.365103  0  1.605498  0  0  2.29751  0  1.928187  0  0  2.337831  0  1.889625  0  0  1.545249  2.202575  0  2.07537  0
Tb  Tb1  1  0.37505769  0.45184385  0.88072885  1  0  2.365082  0  1.605512  0  0  2.297483  0  1.928203  0  0  2.337805  0  1.889641  0  0  1.545251  2.202548  0  2.075383  0
Tb  Tb2  1  0.12494145  0.45184402  0.38073070  1  0  2.365079  0  1.605462  0  0  2.29748  0  1.928153  0  0  2.337801  0  1.889592  0  0  1.545218  2.202516  0  2.075375  0
Tb  Tb3  1  0.62493344  0.54815569  0.11927027  1  0  2.365109  0  1.605414  0  0  2.297514  0  1.928098  0  0  2.337834  0  1.889537  0  0  1.54525  2.202563  0  2.075298  0
P  P4  1  0.86891049  0.37751293  0.80313657  1  0  1.530439  0  4.956202  0  0  1.366271  0  5.469913  0  0  1.419125  0  5.423491  0  0  0.373964  1.328355  0  5.493875  0
P  P5  1  0.36891097  0.62248720  0.69686605  1  0  1.530543  0  4.955888  0  0  1.366385  0  5.469589  0  0  1.41924  0  5.423164  0  0  0.373998  1.32847  0  5.49355  0
P  P6  1  0.13108064  0.62248736  0.19686190  1  0  1.530211  0  4.956171  0  0  1.366035  0  5.469932  0  0  1.418895  0  5.423505  0  0  0.37386  1.328119  0  5.493889  0
P  P7  1  0.63108610  0.37751235  0.30313774  1  0  1.530475  0  4.955929  0  0  1.366307  0  5.469652  0  0  1.419166  0  5.423221  0  0  0.37395  1.328389  0  5.493611  0
H  H8  1  0.85245956  0.22482344  0.94300130  1  0  0.135005  0  0.93601  0  0  0.144514  0  0.990437  0  0  0.148604  0  0.988681  0  0  0.122674  0.14133  0  0.992434  0
H  H9  1  0.35245550  0.77517743  0.55700199  1  0  0.134816  0  0.935995  0  0  0.144378  0  0.99038  0  0  0.14847  0  0.988615  0  0  0.122593  0.141194  0  0.992377  0
H  H10  1  0.14753305  0.77517385  0.05699448  1  0  0.134997  0  0.935981  0  0  0.144532  0  0.99039  0  0  0.148621  0  0.988633  0  0  0.122696  0.141347  0  0.992387  0
H  H11  1  0.64754157  0.22482360  0.44300048  1  0  0.135014  0  0.935963  0  0  0.14459  0  0.990322  0  0  0.148682  0  0.988557  0  0  0.122674  0.141405  0  0.99232  0
H  H12  1  0.85389646  0.03814680  0.93620797  1  0  0.096374  0  0.928503  0  0  0.111932  0  0.982592  0  0  0.114301  0  0.980858  0  0  0.113692  0.110229  0  0.983784  0
H  H13  1  0.35389674  0.96185258  0.56379531  1  0  0.096358  0  0.92847  0  0  0.111901  0  0.982584  0  0  0.114271  0  0.980849  0  0  0.113668  0.110199  0  0.983777  0
H  H14  1  0.14610506  0.96185049  0.06378914  1  0  0.09651  0  0.928637  0  0  0.112044  0  0.982722  0  0  0.114412  0  0.980991  0  0  0.113764  0.11034  0  0.983912  0
H  H15  1  0.64610627  0.03814770  0.43620649  1  0  0.096351  0  0.928468  0  0  0.111894  0  0.982583  0  0  0.114264  0  0.980847  0  0  0.113668  0.110192  0  0.983776  0
H  H16  1  0.85141586  0.87931676  0.84281568  1  0  0.115918  0  0.951477  0  0  0.125109  0  1.012521  0  0  0.128662  0  1.010022  0  0  0.105764  0.122487  0  1.014406  0
H  H17  1  0.35141369  0.12068411  0.65718361  1  0  0.115939  0  0.95138  0  0  0.125131  0  1.012428  0  0  0.128671  0  1.00994  0  0  0.105776  0.12251  0  1.014312  0
H  H18  1  0.14859160  0.12068352  0.15718079  1  0  0.115919  0  0.951436  0  0  0.125171  0  1.012407  0  0  0.128686  0  1.009956  0  0  0.105771  0.122546  0  1.014299  0
H  H19  1  0.64858486  0.87931617  0.34281619  1  0  0.115946  0  0.951373  0  0  0.125136  0  1.012427  0  0  0.128702  0  1.009907  0  0  0.105785  0.122517  0  1.014309  0
H  H20  1  0.85728498  0.80020941  0.69264166  1  0  0.118937  0  0.951774  0  0  0.126985  0  1.014973  0  0  0.130328  0  1.013277  0  0  0.113587  0.124762  0  1.015611  0
H  H21  1  0.35728276  0.19978997  0.80735828  1  0  0.118945  0  0.951735  0  0  0.126983  0  1.014945  0  0  0.130327  0  1.013246  0  0  0.113601  0.124758  0  1.015602  0
H  H22  1  0.14272396  0.19979012  0.30735480  1  0  0.118977  0  0.951703  0  0  0.126998  0  1.014925  0  0  0.130345  0  1.013222  0  0  0.113598  0.124767  0  1.015584  0
H  H23  1  0.64271876  0.80021107  0.19264153  1  0  0.118986  0  0.951686  0  0  0.127014  0  1.014902  0  0  0.13036  0  1.0132  0  0  0.113606  0.124786  0  1.015569  0
H  H24  1  0.86167861  0.90265664  0.55779945  1  0  0.099335  0  0.94863  0  0  0.110483  0  1.006505  0  0  0.11331  0  1.004844  0  0  0.10487  0.108231  0  1.008092  0
H  H25  1  0.36168832  0.09734647  0.94220119  1  0  0.099359  0  0.948643  0  0  0.11049  0  1.006537  0  0  0.113317  0  1.004877  0  0  0.104868  0.108237  0  1.008123  0
H  H26  1  0.13832143  0.09734289  0.44219835  1  0  0.099355  0  0.948584  0  0  0.110525  0  1.006434  0  0  0.113354  0  1.004768  0  0  0.104872  0.108271  0  1.008022  0
H  H27  1  0.63832211  0.90265606  0.05779862  1  0  0.099319  0  0.948572  0  0  0.110453  0  1.006473  0  0  0.113281  0  1.00481  0  0  0.104849  0.108201  0  1.00806  0
H  H28  1  0.86385639  0.09091906  0.56956817  1  0  0.119709  0  0.963108  0  0  0.127242  0  1.026217  0  0  0.130762  0  1.024702  0  0  0.108311  0.124686  0  1.027402  0
H  H29  1  0.36386708  0.90908555  0.93043448  1  0  0.119707  0  0.963025  0  0  0.127164  0  1.026248  0  0  0.130681  0  1.024736  0  0  0.108308  0.124608  0  1.027433  0
H  H30  1  0.13613474  0.90907973  0.43043029  1  0  0.119756  0  0.963031  0  0  0.127249  0  1.026181  0  0  0.130766  0  1.02467  0  0  0.108343  0.124694  0  1.027366  0
H  H31  1  0.63614186  0.09091847  0.06956801  1  0  0.119702  0  0.963063  0  0  0.127209  0  1.026216  0  0  0.130728  0  1.024702  0  0  0.108311  0.124653  0  1.027401  0
H  H32  1  0.86326558  0.23233005  0.66188903  1  0  0.316414  0  0.91256  0  0  0.291312  0  0.980428  0  0  0.300891  0  0.972826  0  0  0.315064  0.284343  0  0.986361  0
H  H33  1  0.36326745  0.76767157  0.83811226  1  0  0.316459  0  0.912523  0  0  0.291438  0  0.980283  0  0  0.301022  0  0.97267  0  0  0.315085  0.284462  0  0.98621  0
H  H34  1  0.13672852  0.76767023  0.33810610  1  0  0.316392  0  0.912477  0  0  0.291342  0  0.980309  0  0  0.300924  0  0.972697  0  0  0.315048  0.284368  0  0.986239  0
H  H35  1  0.63673704  0.23233021  0.16188888  1  0  0.31648  0  0.912478  0  0  0.291454  0  0.98025  0  0  0.301038  0  0.972638  0  0  0.315094  0.284477  0  0.986179  0
H  H36  1  0.05528860  0.61085173  0.79214989  1  0  0.437693  0  0.859257  0  0  0.410834  0  0.916422  0  0  0.420748  0  0.901787  0  0  0.311135  0.403722  0  0.926562  0
H  H37  1  0.55529108  0.38914620  0.70785204  1  0  0.437726  0  0.859212  0  0  0.410853  0  0.916409  0  0  0.42077  0  0.901766  0  0  0.311125  0.403742  0  0.926549  0
H  H38  1  0.94470995  0.38914781  0.20785123  1  0  0.437674  0  0.859277  0  0  0.410821  0  0.916432  0  0  0.420734  0  0.901797  0  0  0.311122  0.403709  0  0.926572  0
H  H39  1  0.44470450  0.61085333  0.29214575  1  0  0.437686  0  0.85927  0  0  0.410825  0  0.916438  0  0  0.420739  0  0.901803  0  0  0.311139  0.403714  0  0.926579  0
H  H40  1  0.83695695  0.65195514  0.81028783  1  0  0.46225  0  0.818933  0  0  0.434807  0  0.874667  0  0  0.444987  0  0.859754  0  0  0.309624  0.427108  0  0.885904  0
H  H41  1  0.33695761  0.34804274  0.68971344  1  0  0.462277  0  0.818882  0  0  0.434833  0  0.874619  0  0  0.445014  0  0.859705  0  0  0.309608  0.427132  0  0.885859  0
H  H42  1  0.16304160  0.34804290  0.18971329  1  0  0.462246  0  0.818926  0  0  0.4348  0  0.874666  0  0  0.444981  0  0.859752  0  0  0.309594  0.427099  0  0.885907  0
H  H43  1  0.66303649  0.65195530  0.31028768  1  0  0.462256  0  0.818929  0  0  0.434803  0  0.874681  0  0  0.444983  0  0.859767  0  0  0.3096  0.427103  0  0.885919  0
H  H44  1  0.70919964  0.36825241  0.55030607  1  0  0.42297  0  0.87146  0  0  0.394831  0  0.937468  0  0  0.404872  0  0.922566  0  0  0.301266  0.387706  0  0.94784  0
H  H45  1  0.20919715  0.63174623  0.94969387  1  0  0.422936  0  0.871523  0  0  0.394785  0  0.937548  0  0  0.404829  0  0.922639  0  0  0.301248  0.387658  0  0.947922  0
H  H46  1  0.29080336  0.63174787  0.44969573  1  0  0.422927  0  0.871538  0  0  0.39478  0  0.937549  0  0  0.404822  0  0.922644  0  0  0.301233  0.387655  0  0.947922  0
H  H47  1  0.79080289  0.36825255  0.05030525  1  0  0.422945  0  0.87148  0  0  0.394797  0  0.937514  0  0  0.404841  0  0.922606  0  0  0.301269  0.387671  0  0.947886  0
H  H48  1  0.66393013  0.44372994  0.47622249  1  0  0.444535  0  0.839318  0  0  0.417788  0  0.903595  0  0  0.42773  0  0.888952  0  0  0.312586  0.410683  0  0.913736  0
H  H49  1  0.16392918  0.55626901  0.02377715  1  0  0.444539  0  0.839318  0  0  0.417801  0  0.903577  0  0  0.427742  0  0.888936  0  0  0.312598  0.410695  0  0.913719  0
H  H50  1  0.33606842  0.55626811  0.52377796  1  0  0.444522  0  0.839324  0  0  0.41778  0  0.9036  0  0  0.427722  0  0.888958  0  0  0.312579  0.410675  0  0.91374  0
H  H51  1  0.83606789  0.44373277  0.97622266  1  0  0.444501  0  0.83934  0  0  0.417757  0  0.903629  0  0  0.427699  0  0.888986  0  0  0.312594  0.410651  0  0.91377  0
C  C52  1  0.85830193  0.24030487  0.80025017  1  0  0.018857  0  3.556118  0  0  0.02744  0  3.808377  0  0  0.034285  0  3.819472  0  0  0.150404  0.022357  0  3.802844  0
C  C53  1  0.35830084  0.75969525  0.69975244  1  0  0.018788  0  3.556206  0  0  0.027372  0  3.80845  0  0  0.03421  0  3.819546  0  0  0.150428  0.022288  0  3.802918  0
C  C54  1  0.14169217  0.75969466  0.19974695  1  0  0.01885  0  3.556009  0  0  0.027429  0  3.808318  0  0  0.034268  0  3.819411  0  0  0.150413  0.022346  0  3.802788  0
C  C55  1  0.64169325  0.24030429  0.30024935  1  0  0.018814  0  3.55625  0  0  0.027393  0  3.808536  0  0  0.03423  0  3.819635  0  0  0.150367  0.02231  0  3.803  0
C  C56  1  0.85691706  0.18488311  0.87958263  1  0  -0.075721  0  3.670545  0  0  -0.098576  0  3.926755  0  0  -0.106313  0  3.945588  0  0  -0.06093  -0.094066  0  3.915462  0
C  C57  1  0.35691297  0.81511851  0.62042133  1  0  -0.075483  0  3.67052  0  0  -0.098344  0  3.92664  0  0  -0.106076  0  3.945475  0  0  -0.060886  -0.093837  0  3.915349  0
C  C58  1  0.14307853  0.81511567  0.12041383  1  0  -0.075651  0  3.670375  0  0  -0.098543  0  3.926618  0  0  -0.106275  0  3.945448  0  0  -0.060984  -0.094033  0  3.915325  0
C  C59  1  0.64307965  0.18488402  0.37958182  1  0  -0.075712  0  3.670475  0  0  -0.098628  0  3.926668  0  0  -0.106361  0  3.9455  0  0  -0.060918  -0.094118  0  3.915376  0
C  C60  1  0.85597008  0.08195496  0.87525011  1  0  -0.020887  0  3.672277  0  0  -0.04867  0  3.925444  0  0  -0.042733  0  3.941228  0  0  -0.049142  -0.052339  0  3.914825  0
C  C61  1  0.35597038  0.91804517  0.62475184  1  0  -0.020835  0  3.672266  0  0  -0.048638  0  3.925399  0  0  -0.042704  0  3.941184  0  0  -0.04908  -0.052308  0  3.914785  0
C  C62  1  0.14403293  0.91804458  0.12474568  1  0  -0.021215  0  3.672552  0  0  -0.049016  0  3.925713  0  0  -0.04308  0  3.941492  0  0  -0.049274  -0.05268  0  3.915092  0
C  C63  1  0.64402966  0.08195512  0.37524930  1  0  -0.020825  0  3.672224  0  0  -0.048613  0  3.925377  0  0  -0.042679  0  3.941162  0  0  -0.049135  -0.052283  0  3.914762  0
C  C64  1  0.85686812  0.03099414  0.79217549  1  0  0.005308  0  3.812379  0  0  0.024119  0  4.04046  0  0  0.019509  0  4.066216  0  0  0.000711  0.02687  0  4.02336  0
C  C65  1  0.35687284  0.96900598  0.70782579  1  0  0.005263  0  3.812462  0  0  0.024138  0  4.040446  0  0  0.019527  0  4.066203  0  0  0.000688  0.026889  0  4.023349  0
C  C66  1  0.14313637  0.96900464  0.20782096  1  0  0.00535  0  3.812539  0  0  0.024294  0  4.040401  0  0  0.019685  0  4.066155  0  0  0.000752  0.027042  0  4.023302  0
C  C67  1  0.64313313  0.03099505  0.29217668  1  0  0.00515  0  3.81264  0  0  0.024047  0  4.04057  0  0  0.019434  0  4.066337  0  0  0.000699  0.026797  0  4.023473  0
C  C68  1  0.85606778  0.92545992  0.78330154  1  0  -0.099193  0  3.707076  0  0  -0.122812  0  3.962326  0  0  -0.124162  0  3.983365  0  0  -0.08278  -0.12162  0  3.948326  0
C  C69  1  0.35606861  0.07454095  0.71669908  1  0  -0.099234  0  3.706998  0  0  -0.12286  0  3.962243  0  0  -0.124199  0  3.983282  0  0  -0.082779  -0.121669  0  3.948245  0
C  C70  1  0.14394116  0.07453962  0.21669426  1  0  -0.099335  0  3.70717  0  0  -0.123002  0  3.962321  0  0  -0.124325  0  3.983378  0  0  -0.082846  -0.121809  0  3.94832  0
C  C71  1  0.64393588  0.92546008  0.28330272  1  0  -0.099222  0  3.707002  0  0  -0.122864  0  3.962242  0  0  -0.124223  0  3.983268  0  0  -0.082812  -0.121673  0  3.948247  0
C  C72  1  0.85754323  0.88123368  0.69992395  1  0  -0.049707  0  3.70075  0  0  -0.070551  0  3.961741  0  0  -0.074534  0  3.984685  0  0  -0.08165  -0.068229  0  3.947094  0
C  C73  1  0.35754403  0.11876570  0.80007666  1  0  -0.049669  0  3.7008  0  0  -0.07049  0  3.961729  0  0  -0.074473  0  3.984672  0  0  -0.081667  -0.068179  0  3.947085  0
C  C74  1  0.14246274  0.11876585  0.30007251  1  0  -0.049614  0  3.700606  0  0  -0.070443  0  3.961605  0  0  -0.074425  0  3.984541  0  0  -0.081585  -0.068125  0  3.946951  0
C  C75  1  0.64246343  0.88123609  0.19992515  1  0  -0.049718  0  3.70064  0  0  -0.070533  0  3.96164  0  0  -0.074518  0  3.984591  0  0  -0.081642  -0.068223  0  3.946997  0
C  C76  1  0.86002949  0.94058681  0.62242550  1  0  -0.032209  0  3.748029  0  0  -0.048776  0  4.0031  0  0  -0.048258  0  4.024743  0  0  -0.078568  -0.048966  0  3.988889  0
C  C77  1  0.36003626  0.05941556  0.87757580  1  0  -0.032322  0  3.748126  0  0  -0.048846  0  4.003155  0  0  -0.048327  0  4.024798  0  0  -0.078595  -0.049033  0  3.988941  0
C  C78  1  0.13997055  0.05941273  0.37757163  1  0  -0.032169  0  3.747935  0  0  -0.048749  0  4.002978  0  0  -0.048231  0  4.024623  0  0  -0.078559  -0.048936  0  3.988765  0
C  C79  1  0.63997417  0.94058697  0.12242468  1  0  -0.032098  0  3.747879  0  0  -0.048644  0  4.00293  0  0  -0.048124  0  4.024571  0  0  -0.078532  -0.048833  0  3.988717  0
C  C80  1  0.86033703  0.04365862  0.62821721  1  0  -0.176113  0  3.720727  0  0  -0.196256  0  3.976332  0  0  -0.202995  0  3.997444  0  0  -0.092194  -0.191796  0  3.962034  0
C  C81  1  0.36034472  0.95634374  0.87178475  1  0  -0.175999  0  3.720627  0  0  -0.196099  0  3.97626  0  0  -0.202837  0  3.997375  0  0  -0.092183  -0.191641  0  3.961961  0
C  C82  1  0.13966301  0.95633941  0.37177991  1  0  -0.176234  0  3.72074  0  0  -0.196344  0  3.976376  0  0  -0.203081  0  3.99749  0  0  -0.09225  -0.191887  0  3.962076  0
C  C83  1  0.63966719  0.04365879  0.12821773  1  0  -0.176176  0  3.720773  0  0  -0.196317  0  3.976421  0  0  -0.203056  0  3.997533  0  0  -0.092247  -0.191856  0  3.962123  0
C  C84  1  0.85845190  0.08955590  0.71335394  1  0  0.215533  0  3.725977  0  0  0.20698  0  3.9622  0  0  0.214051  0  3.984091  0  0  0.125293  0.202345  0  3.947568  0
C  C85  1  0.35845962  0.91044572  0.78664803  1  0  0.215577  0  3.725918  0  0  0.206985  0  3.962156  0  0  0.214055  0  3.984048  0  0  0.125336  0.202351  0  3.947522  0
C  C86  1  0.14154665  0.91044364  0.28664319  1  0  0.215629  0  3.725932  0  0  0.20701  0  3.962177  0  0  0.214079  0  3.984065  0  0  0.125304  0.20238  0  3.947547  0
C  C87  1  0.64154784  0.08955382  0.21335310  1  0  0.215625  0  3.726043  0  0  0.207049  0  3.962263  0  0  0.214119  0  3.984153  0  0  0.125345  0.202414  0  3.947629  0
S  S88  1  0.91318834  0.69267713  0.46143874  1  0  1.583433  0  5.849814  0  0  1.458296  0  6.411263  0  0  1.514635  0  6.371753  0  0  0.557634  1.419891  0  6.427986  0
S  S89  1  0.41318458  0.30732478  0.03856226  1  0  1.583402  0  5.849987  0  0  1.458244  0  6.411464  0  0  1.51459  0  6.371947  0  0  0.557599  1.419836  0  6.428184  0
S  S90  1  0.08681615  0.30732391  0.53856307  1  0  1.583322  0  5.850013  0  0  1.458165  0  6.411488  0  0  1.514508  0  6.371976  0  0  0.557606  1.41976  0  6.428202  0
S  S91  1  0.58681249  0.69267551  0.96143888  1  0  1.583459  0  5.84974  0  0  1.458314  0  6.411194  0  0  1.514654  0  6.371684  0  0  0.557639  1.419909  0  6.427909  0
N  N92  1  0.85832421  0.19177247  0.72192105  1  0  -0.236924  0  3.442899  0  0  -0.174202  0  3.655105  0  0  -0.189464  0  3.671403  0  0  -0.326651  -0.164478  0  3.645245  0
N  N93  1  0.35832309  0.80822915  0.77808224  1  0  -0.237027  0  3.442888  0  0  -0.174354  0  3.655014  0  0  -0.189616  0  3.671311  0  0  -0.326695  -0.164621  0  3.64515  0
N  N94  1  0.14167434  0.80822706  0.27807541  1  0  -0.236873  0  3.44266  0  0  -0.174181  0  3.654838  0  0  -0.189438  0  3.671132  0  0  -0.326597  -0.164453  0  3.644981  0
N  N95  1  0.64167546  0.19177189  0.22192023  1  0  -0.236945  0  3.442846  0  0  -0.174274  0  3.654972  0  0  -0.189535  0  3.67127  0  0  -0.326645  -0.164538  0  3.645102  0
O  O96  1  0.82612281  0.40978780  0.70735043  1  0  -0.967762  0  2.054611  0  0  -0.899754  0  2.322963  0  0  -0.924552  0  2.300448  0  0  -0.457163  -0.872116  0  2.338707  0
O  O97  1  0.32612479  0.59021233  0.79265218  1  0  -0.967781  0  2.054623  0  0  -0.899773  0  2.322979  0  0  -0.924568  0  2.300461  0  0  -0.457151  -0.872135  0  2.338722  0
O  O98  1  0.17387278  0.59021024  0.29264802  1  0  -0.967689  0  2.054464  0  0  -0.899688  0  2.322833  0  0  -0.924486  0  2.300317  0  0  -0.457122  -0.872044  0  2.338575  0
O  O99  1  0.67387821  0.40978796  0.20735095  1  0  -0.967773  0  2.054484  0  0  -0.89978  0  2.322847  0  0  -0.924574  0  2.300322  0  0  -0.457165  -0.87214  0  2.338591  0
O  O100  1  0.70832683  0.40967838  0.86929009  1  0  -0.950074  0  2.031237  0  0  -0.881506  0  2.299025  0  0  -0.907741  0  2.277367  0  0  -0.44682  -0.853092  0  2.315048  0
O  O101  1  0.20832586  0.59031952  0.63071384  1  0  -0.95009  0  2.031012  0  0  -0.881555  0  2.298832  0  0  -0.907789  0  2.277169  0  0  -0.446873  -0.853143  0  2.314857  0
O  O102  1  0.29166281  0.59032265  0.13070838  1  0  -0.950044  0  2.031088  0  0  -0.881489  0  2.298878  0  0  -0.907726  0  2.27722  0  0  -0.446802  -0.853074  0  2.3149  0
O  O103  1  0.79166973  0.40967479  0.36929125  1  0  -0.950126  0  2.031107  0  0  -0.881565  0  2.298909  0  0  -0.907802  0  2.277249  0  0  -0.44683  -0.853148  0  2.314932  0
O  O104  1  0.07676117  0.39999465  0.83517331  1  0  -0.945539  0  2.041661  0  0  -0.880575  0  2.321315  0  0  -0.908314  0  2.300327  0  0  -0.475985  -0.849842  0  2.337798  0
O  O105  1  0.57675907  0.60000776  0.66482733  1  0  -0.945573  0  2.04161  0  0  -0.880614  0  2.321247  0  0  -0.908353  0  2.300258  0  0  -0.475951  -0.849885  0  2.33774  0
O  O106  1  0.92323441  0.60000713  0.16482384  1  0  -0.945368  0  2.041634  0  0  -0.88039  0  2.321263  0  0  -0.908127  0  2.300271  0  0  -0.475907  -0.849651  0  2.337732  0
O  O107  1  0.42323800  0.39999253  0.33517580  1  0  -0.94551  0  2.041599  0  0  -0.880535  0  2.321232  0  0  -0.908275  0  2.300244  0  0  -0.475932  -0.849799  0  2.337712  0
O  O108  1  0.84722710  0.71570460  0.55409443  1  0  -0.788328  0  1.96466  0  0  -0.750842  0  2.2364  0  0  -0.771719  0  2.219452  0  0  -0.402284  -0.728172  0  2.246471  0
O  O109  1  0.34722037  0.28429777  0.94590687  1  0  -0.788286  0  1.964661  0  0  -0.750814  0  2.23644  0  0  -0.771692  0  2.219492  0  0  -0.402274  -0.728145  0  2.246514  0
O  O110  1  0.15278184  0.28429793  0.44590738  1  0  -0.788248  0  1.96469  0  0  -0.750768  0  2.236436  0  0  -0.771646  0  2.219492  0  0  -0.402249  -0.728092  0  2.246506  0
O  O111  1  0.65277373  0.71570102  0.05409559  1  0  -0.788317  0  1.964626  0  0  -0.75083  0  2.236357  0  0  -0.771707  0  2.219409  0  0  -0.402263  -0.728156  0  2.246429  0
O  O112  1  0.92672262  0.57929008  0.45937171  1  0  -0.930168  0  2.152617  0  0  -0.883054  0  2.431967  0  0  -0.904979  0  2.413739  0  0  -0.469267  -0.852236  0  2.441779  0
O  O113  1  0.42672026  0.42071033  0.04063060  1  0  -0.930122  0  2.152707  0  0  -0.882978  0  2.432011  0  0  -0.904905  0  2.413783  0  0  -0.469215  -0.852163  0  2.441826  0
O  O114  1  0.07327890  0.42071021  0.54063009  1  0  -0.930133  0  2.152718  0  0  -0.883004  0  2.432052  0  0  -0.904932  0  2.413828  0  0  -0.469266  -0.852187  0  2.441863  0
O  O115  1  0.57327680  0.57928921  0.95937119  1  0  -0.930159  0  2.152645  0  0  -0.883045  0  2.431993  0  0  -0.904974  0  2.41377  0  0  -0.469284  -0.85223  0  2.441804  0
O  O116  1  0.11572062  0.73515925  0.44528382  1  0  -0.72668  0  1.974491  0  0  -0.664358  0  2.21106  0  0  -0.686974  0  2.19475  0  0  -0.342049  -0.648858  0  2.221949  0
O  O117  1  0.61571725  0.26484195  0.05471650  1  0  -0.726758  0  1.974562  0  0  -0.664417  0  2.21112  0  0  -0.687029  0  2.1948  0  0  -0.342065  -0.648917  0  2.22201  0
O  O118  1  0.88428535  0.26484103  0.55471798  1  0  -0.726702  0  1.97458  0  0  -0.664344  0  2.211146  0  0  -0.686952  0  2.194829  0  0  -0.342044  -0.648851  0  2.222038  0
O  O119  1  0.38427833  0.73515834  0.94528530  1  0  -0.726759  0  1.974586  0  0  -0.664392  0  2.211104  0  0  -0.687008  0  2.194792  0  0  -0.34204  -0.648891  0  2.221991  0
O  O120  1  0.77395548  0.72843819  0.39366235  1  0  -0.690856  0  1.911589  0  0  -0.634285  0  2.145182  0  0  -0.655035  0  2.127094  0  0  -0.340875  -0.620638  0  2.158086  0
O  O121  1  0.27395619  0.27156149  0.10633862  1  0  -0.690864  0  1.91164  0  0  -0.634307  0  2.145248  0  0  -0.655059  0  2.127158  0  0  -0.34089  -0.62065  0  2.158146  0
O  O122  1  0.22604456  0.27156135  0.60634011  1  0  -0.690875  0  1.911692  0  0  -0.63431  0  2.145279  0  0  -0.655064  0  2.127191  0  0  -0.34089  -0.620655  0  2.158175  0
O  O123  1  0.72604237  0.72843730  0.89366250  1  0  -0.690856  0  1.911501  0  0  -0.6343  0  2.145105  0  0  -0.655049  0  2.127018  0  0  -0.34091  -0.620655  0  2.158008  0
O  O124  1  0.92638862  0.62482516  0.76355052  1  0  -0.927166  0  1.853931  0  0  -0.887597  0  2.042277  0  0  -0.90507  0  2.009953  0  0  -0.635653  -0.866282  0  2.068968  0
O  O125  1  0.42639075  0.37517421  0.73645142  1  0  -0.927226  0  1.853834  0  0  -0.887659  0  2.042184  0  0  -0.905133  0  2.009858  0  0  -0.635635  -0.866343  0  2.068879  0
O  O126  1  0.07360993  0.37517363  0.23645060  1  0  -0.92715  0  1.853915  0  0  -0.887587  0  2.042262  0  0  -0.905059  0  2.009938  0  0  -0.635613  -0.866267  0  2.068957  0
O  O127  1  0.57360632  0.62482682  0.26354839  1  0  -0.927199  0  1.853945  0  0  -0.887631  0  2.042295  0  0  -0.905104  0  2.009971  0  0  -0.635633  -0.866309  0  2.068992  0
O  O128  1  0.64889522  0.43486215  0.54124311  1  0  -0.870471  0  1.845564  0  0  -0.834643  0  2.034316  0  0  -0.851802  0  2.00409  0  0  -0.629828  -0.814942  0  2.058781  0
O  O129  1  0.14889277  0.56513651  0.95875683  1  0  -0.870432  0  1.845608  0  0  -0.834627  0  2.034375  0  0  -0.851786  0  2.004148  0  0  -0.629824  -0.814924  0  2.058842  0
O  O130  1  0.35110630  0.56513814  0.45875802  1  0  -0.870425  0  1.845632  0  0  -0.834579  0  2.034362  0  0  -0.851736  0  2.004135  0  0  -0.629774  -0.814876  0  2.058825  0
O  O131  1  0.85109688  0.43486452  0.04124364  1  0  -0.870448  0  1.845646  0  0  -0.834611  0  2.034432  0  0  -0.851769  0  2.004204  0  0  -0.629859  -0.814907  0  2.058898  0
