# generated using pymatgen
data_AgH6C6(SO)2
_symmetry_space_group_name_H-M   'P 1'
_cell_length_a   13.02891041
_cell_length_b   13.02888389
_cell_length_c   13.56797709
_cell_angle_alpha   89.99983507
_cell_angle_beta   90.00021493
_cell_angle_gamma   90.00005044
_symmetry_Int_Tables_number   1
_chemical_formula_structural   AgH6C6(SO)2
_chemical_formula_sum   'Ag8 H48 C48 S16 O16'
_cell_volume   2303.19343053
_cell_formula_units_Z   8
loop_
 _symmetry_equiv_pos_site_id
 _symmetry_equiv_pos_as_xyz
  1  'x, y, z'
loop_
 _atom_site_type_symbol
 _atom_site_label
 _atom_site_symmetry_multiplicity
 _atom_site_fract_x
 _atom_site_fract_y
 _atom_site_fract_z
 _atom_site_occupancy
 _atom_site_pbe_bader_charge
 _atom_site_pbe_bader_spin_density
 _atom_site_pbe_cm5_charge
 _atom_site_pbe_ddec_charge
 _atom_site_pbe_ddec_spin_density
 _atom_site_pbe_ddec_sum_bond_order
 _atom_site_pbe_magmom
Ag  Ag0  1  0.82511820  0.33261637  0.75286786  1  0.502645  0  0.351503  0.257997  0  2.259099  0
Ag  Ag1  1  0.67487916  0.16738342  0.75286635  1  0.504804  0  0.351517  0.257973  0  2.25903  0
Ag  Ag2  1  0.66738031  0.32511909  0.25286232  1  0.504595  0  0.351516  0.257991  0  2.259075  0
Ag  Ag3  1  0.83261509  0.17487913  0.25286946  1  0.502717  0  0.351513  0.257952  0  2.259172  0
Ag  Ag4  1  0.17488263  0.66738611  0.24713129  1  0.502675  0  0.351525  0.25802  0  2.259036  0
Ag  Ag5  1  0.32511936  0.83262290  0.24713944  1  0.504523  0  0.351503  0.257961  0  2.259081  0
Ag  Ag6  1  0.33262052  0.67488109  0.74713683  1  0.504596  0  0.351547  0.258028  0  2.259064  0
Ag  Ag7  1  0.16738497  0.82512105  0.74713117  1  0.502643  0  0.351487  0.257924  0  2.259098  0
H  H8  1  0.08000376  0.30561060  0.78875400  1  0.073405  0  0.092629  0.136925  0  1.031879  0
H  H9  1  0.09349893  0.36160254  0.66959838  1  0.091047  0  0.104505  0.159927  0  0.969436  0
H  H10  1  0.15956224  0.41799711  0.77377976  1  0.127773  0  0.093169  0.1443  0  1.050566  0
H  H11  1  0.03731083  0.79564614  0.97725150  1  0.12788  0  0.099941  0.165762  0  1.004549  0
H  H12  1  0.11801114  0.85932836  0.06607299  1  0.085325  0  0.101248  0.153511  0  0.991469  0
H  H13  1  0.00599262  0.79327193  0.10791404  1  0.054475  0  0.091995  0.136634  0  1.029262  0
H  H14  1  0.41999684  0.19438941  0.78875477  1  0.073545  0  0.092626  0.13691  0  1.031882  0
H  H15  1  0.40650198  0.13839630  0.66959852  1  0.09065  0  0.104494  0.159895  0  0.969369  0
H  H16  1  0.34043984  0.08200064  0.77378055  1  0.127649  0  0.093165  0.144317  0  1.050535  0
H  H17  1  0.46268942  0.70435301  0.97725166  1  0.127872  0  0.09993  0.165747  0  1.00457  0
H  H18  1  0.38199168  0.64066968  0.06607303  1  0.085346  0  0.10123  0.153493  0  0.991416  0
H  H19  1  0.49400960  0.70672751  0.10791430  1  0.054446  0  0.092004  0.136656  0  1.029255  0
H  H20  1  0.69438966  0.58000274  0.28875462  1  0.073528  0  0.092631  0.136929  0  1.031869  0
H  H21  1  0.63839780  0.59349829  0.16959893  1  0.09107  0  0.104502  0.159923  0  0.969401  0
H  H22  1  0.58200421  0.65956210  0.27378008  1  0.127792  0  0.093169  0.144328  0  1.050527  0
H  H23  1  0.20435441  0.53731094  0.47725132  1  0.127874  0  0.099929  0.165753  0  1.004552  0
H  H24  1  0.14067239  0.61800917  0.56607273  1  0.085361  0  0.101246  0.153485  0  0.991437  0
H  H25  1  0.20672937  0.50599033  0.60791417  1  0.054454  0  0.092004  0.136656  0  1.029252  0
H  H26  1  0.80561093  0.91999507  0.28875361  1  0.073415  0  0.092618  0.136923  0  1.031886  0
H  H27  1  0.86160309  0.90650141  0.16959817  1  0.091041  0  0.104492  0.159904  0  0.969426  0
H  H28  1  0.91800016  0.84044036  0.27378043  1  0.127658  0  0.093142  0.144272  0  1.050561  0
H  H29  1  0.29564772  0.96269047  0.47725015  1  0.127877  0  0.099919  0.165736  0  1.00458  0
H  H30  1  0.35932855  0.88198967  0.56607202  1  0.085345  0  0.101249  0.15354  0  0.991379  0
H  H31  1  0.29327251  0.99400915  0.60791218  1  0.054482  0  0.092023  0.136689  0  1.029213  0
H  H32  1  0.91999707  0.69438804  0.21124589  1  0.073563  0  0.092631  0.136929  0  1.031906  0
H  H33  1  0.90650190  0.63839611  0.33040077  1  0.090656  0  0.1045  0.159915  0  0.969368  0
H  H34  1  0.84043859  0.58200077  0.22621940  1  0.127594  0  0.093163  0.1443  0  1.050576  0
H  H35  1  0.96269000  0.20435251  0.02274839  1  0.127891  0  0.099951  0.165787  0  1.004511  0
H  H36  1  0.88199045  0.14066952  0.93392617  1  0.085313  0  0.101246  0.153497  0  0.991478  0
H  H37  1  0.99400898  0.20672671  0.89208585  1  0.054415  0  0.092004  0.136646  0  1.029239  0
H  H38  1  0.58000476  0.80560924  0.21124734  1  0.073417  0  0.092637  0.136911  0  1.031876  0
H  H39  1  0.59350039  0.86160235  0.33040285  1  0.09102  0  0.104486  0.159889  0  0.969435  0
H  H40  1  0.65956099  0.91799877  0.22622082  1  0.127652  0  0.093181  0.144329  0  1.05055  0
H  H41  1  0.53731141  0.29564717  0.02274897  1  0.127866  0  0.099927  0.165754  0  1.004554  0
H  H42  1  0.61801069  0.35932819  0.93392760  1  0.085335  0  0.101244  0.153482  0  0.991516  0
H  H43  1  0.50599277  0.29327113  0.89208633  1  0.054521  0  0.092  0.13665  0  1.029229  0
H  H44  1  0.30561194  0.41999667  0.71124601  1  0.07345  0  0.092641  0.136959  0  1.03188  0
H  H45  1  0.36160457  0.40650112  0.83040170  1  0.091043  0  0.104502  0.159932  0  0.969416  0
H  H46  1  0.41799892  0.34043808  0.72622055  1  0.127625  0  0.093172  0.144308  0  1.050552  0
H  H47  1  0.79564796  0.46268847  0.52274784  1  0.127891  0  0.09995  0.165781  0  1.004552  0
H  H48  1  0.85932844  0.38198870  0.43392643  1  0.085328  0  0.101257  0.153523  0  0.99147  0
H  H49  1  0.79327300  0.49400831  0.39208498  1  0.054461  0  0.091994  0.136642  0  1.029239  0
H  H50  1  0.19438990  0.08000357  0.71124481  1  0.07351  0  0.092641  0.136938  0  1.031917  0
H  H51  1  0.13839850  0.09349877  0.83040099  1  0.091078  0  0.104498  0.159896  0  0.969365  0
H  H52  1  0.08200298  0.15956058  0.72621872  1  0.127793  0  0.093179  0.144322  0  1.050523  0
H  H53  1  0.70435388  0.03731047  0.52274900  1  0.127874  0  0.099936  0.165753  0  1.004525  0
H  H54  1  0.64066998  0.11800897  0.43392640  1  0.085334  0  0.101258  0.153511  0  0.991462  0
H  H55  1  0.70672832  0.00599103  0.39208550  1  0.054462  0  0.091999  0.136635  0  1.029231  0
C  C56  1  0.12001583  0.62118781  0.85989541  1  1.619285  0  0.187724  0.544276  0  4.320337  0
C  C57  1  0.05587013  0.55851692  0.93166069  1  0.050438  0  -0.003049  -0.057677  0  3.9115  0
C  C58  1  0.99115085  0.47967103  0.89783725  1  -0.090982  0  -0.0029  0.00805  0  3.941224  0
C  C59  1  0.06391817  0.57973958  0.03313985  1  -0.114623  0  -0.003811  0.006018  0  3.93108  0
C  C60  1  0.09048733  0.37778723  0.74888726  1  -0.221996  0  -0.228508  -0.396523  0  3.866175  0
C  C61  1  0.06718259  0.79358903  0.05272833  1  -0.17715  0  -0.224793  -0.390593  0  3.834477  0
C  C62  1  0.37998933  0.87881475  0.85988889  1  1.619215  0  0.187814  0.544703  0  4.320055  0
C  C63  1  0.44412687  0.94148466  0.93166012  1  0.050459  0  -0.003033  -0.05774  0  3.911414  0
C  C64  1  0.50885092  0.02033140  0.89784070  1  -0.090987  0  -0.00295  0.007903  0  3.941213  0
C  C65  1  0.43607761  0.92025932  0.03313783  1  -0.114665  0  -0.003777  0.006126  0  3.931012  0
C  C66  1  0.40951389  0.12221137  0.74888892  1  -0.221537  0  -0.228469  -0.396444  0  3.866019  0
C  C67  1  0.43281865  0.70641058  0.05272763  1  -0.177172  0  -0.224775  -0.390592  0  3.834413  0
C  C68  1  0.37881086  0.62001283  0.35989430  1  1.619246  0  0.187756  0.544349  0  4.320531  0
C  C69  1  0.44148083  0.55586911  0.43166054  1  0.050267  0  -0.003024  -0.057596  0  3.911525  0
C  C70  1  0.52032847  0.49114992  0.39783849  1  -0.091  0  -0.002901  0.007975  0  3.941286  0
C  C71  1  0.42025976  0.56391799  0.53313914  1  -0.114432  0  -0.003839  0.005992  0  3.931104  0
C  C72  1  0.62221318  0.59048716  0.24888928  1  -0.222114  0  -0.228537  -0.396576  0  3.866119  0
C  C73  1  0.20641230  0.56718215  0.55272753  1  -0.177205  0  -0.224778  -0.390568  0  3.834458  0
C  C74  1  0.12118083  0.87999277  0.35989053  1  1.61913  0  0.187733  0.544614  0  4.320025  0
C  C75  1  0.05851191  0.94412860  0.43165858  1  0.050633  0  -0.002914  -0.057535  0  3.911255  0
C  C76  1  0.97966444  0.00885247  0.39783851  1  -0.090778  0  -0.002986  0.0078  0  3.94123  0
C  C77  1  0.07973798  0.93607942  0.53313728  1  -0.11465  0  -0.003792  0.006092  0  3.930932  0
C  C78  1  0.87778649  0.90951384  0.24888709  1  -0.221833  0  -0.228451  -0.396436  0  3.866015  0
C  C79  1  0.29358859  0.93281903  0.55272570  1  -0.177197  0  -0.22478  -0.390624  0  3.834399  0
C  C80  1  0.87998500  0.37881083  0.14010374  1  1.619283  0  0.18774  0.544309  0  4.32036  0
C  C81  1  0.94412993  0.44148172  0.06833847  1  0.050421  0  -0.003045  -0.057697  0  3.911536  0
C  C82  1  0.00884998  0.52032685  0.10216265  1  -0.090969  0  -0.002853  0.008078  0  3.94129  0
C  C83  1  0.93608266  0.42025906  0.96686005  1  -0.114583  0  -0.003835  0.006041  0  3.931033  0
C  C84  1  0.90951274  0.62221142  0.25111116  1  -0.221528  0  -0.228497  -0.396491  0  3.866129  0
C  C85  1  0.93281594  0.20641115  0.94727083  1  -0.177135  0  -0.22482  -0.390625  0  3.834543  0
C  C86  1  0.62000536  0.12118389  0.14011174  1  1.618226  0  0.187777  0.544523  0  4.320226  0
C  C87  1  0.55587013  0.05851475  0.06834198  1  0.050748  0  -0.002976  -0.05763  0  3.911371  0
C  C88  1  0.49114761  0.97966648  0.10216214  1  -0.09078  0  -0.00299  0.007838  0  3.94122  0
C  C89  1  0.56392015  0.07973855  0.96686427  1  -0.114504  0  -0.003773  0.006194  0  3.930923  0
C  C90  1  0.59048771  0.87778727  0.25111392  1  -0.221843  0  -0.228494  -0.396448  0  3.866117  0
C  C91  1  0.56718372  0.29358806  0.94727374  1  -0.177224  0  -0.224785  -0.390573  0  3.834513  0
C  C92  1  0.62118844  0.37998658  0.64010707  1  1.619229  0  0.18777  0.544449  0  4.320307  0
C  C93  1  0.55851846  0.44412953  0.56834009  1  0.050342  0  -0.003  -0.057593  0  3.911429  0
C  C94  1  0.47967160  0.50885026  0.60216288  1  -0.090871  0  -0.002914  0.007978  0  3.94127  0
C  C95  1  0.57973953  0.43608219  0.46686075  1  -0.114483  0  -0.003837  0.006001  0  3.931057  0
C  C96  1  0.37778842  0.40951301  0.75111356  1  -0.221821  0  -0.228512  -0.396552  0  3.866093  0
C  C97  1  0.79358853  0.43281726  0.44727163  1  -0.177161  0  -0.224818  -0.390653  0  3.834513  0
C  C98  1  0.87881155  0.12000971  0.64010936  1  1.619213  0  0.18782  0.54456  0  4.320373  0
C  C99  1  0.94148278  0.05587158  0.56834058  1  0.050359  0  -0.003051  -0.05773  0  3.911494  0
C  C100  1  0.02032948  0.99114924  0.60216065  1  -0.090771  0  -0.00295  0.007911  0  3.941259  0
C  C101  1  0.92025748  0.06392153  0.46686261  1  -0.114658  0  -0.003811  0.006134  0  3.930976  0
C  C102  1  0.12221357  0.09048788  0.75110985  1  -0.222102  0  -0.228511  -0.396486  0  3.866011  0
C  C103  1  0.70641147  0.06718268  0.44727198  1  -0.177162  0  -0.224787  -0.390568  0  3.834463  0
S  S104  1  0.98169162  0.46211791  0.76782082  1  0.069795  0  0.003639  0.088798  0  2.909286  0
S  S105  1  0.14879798  0.68150424  0.06579543  1  0.08351  0  -0.002582  0.070383  0  3.256725  0
S  S106  1  0.51831194  0.03788567  0.76782352  1  0.069664  0  0.003623  0.088805  0  2.909339  0
S  S107  1  0.35120023  0.81849227  0.06579413  1  0.082778  0  -0.002545  0.07041  0  3.256554  0
S  S108  1  0.53788148  0.48169113  0.26782062  1  0.069814  0  0.003669  0.088848  0  2.909289  0
S  S109  1  0.31849541  0.64879777  0.56579662  1  0.083597  0  -0.002599  0.070332  0  3.256726  0
S  S110  1  0.96211322  0.01831395  0.26782129  1  0.069564  0  0.003647  0.088846  0  2.909217  0
S  S111  1  0.18150553  0.85120108  0.56579094  1  0.082793  0  -0.002568  0.070364  0  3.256697  0
S  S112  1  0.01830997  0.53788073  0.23217834  1  0.069725  0  0.003625  0.088769  0  2.909322  0
S  S113  1  0.85120361  0.31849287  0.93420299  1  0.083529  0  -0.002581  0.070346  0  3.256814  0
S  S114  1  0.48168889  0.96211297  0.23217858  1  0.069725  0  0.003648  0.088818  0  2.909399  0
S  S115  1  0.64880060  0.18150484  0.93420871  1  0.082792  0  -0.00255  0.070331  0  3.25665  0
S  S116  1  0.46211935  0.51830981  0.73217853  1  0.069683  0  0.003646  0.088815  0  2.909284  0
S  S117  1  0.68150542  0.35120241  0.43420401  1  0.083555  0  -0.002571  0.070387  0  3.256689  0
S  S118  1  0.03788377  0.98168853  0.73217713  1  0.069713  0  0.00364  0.088818  0  2.909251  0
S  S119  1  0.81849146  0.14880140  0.43420675  1  0.082699  0  -0.002551  0.070374  0  3.256824  0
O  O120  1  0.08262129  0.70763422  0.83625206  1  -1.134063  0  -0.331344  -0.507012  0  2.370172  0
O  O121  1  0.20416171  0.58127350  0.83336108  1  -1.14744  0  -0.329375  -0.52073  0  2.296008  0
O  O122  1  0.41738224  0.79237532  0.83624296  1  -1.134095  0  -0.331377  -0.507173  0  2.370482  0
O  O123  1  0.29583491  0.91873376  0.83335415  1  -1.147309  0  -0.329468  -0.521001  0  2.295698  0
O  O124  1  0.29236842  0.58262282  0.33625029  1  -1.134231  0  -0.331329  -0.506995  0  2.370575  0
O  O125  1  0.41873130  0.70416438  0.33336119  1  -1.147262  0  -0.329438  -0.52087  0  2.295822  0
O  O126  1  0.20762472  0.91738822  0.33624525  1  -1.134223  0  -0.331381  -0.50717  0  2.370405  0
O  O127  1  0.08126797  0.79583747  0.33335456  1  -1.14721  0  -0.329472  -0.521037  0  2.295629  0
O  O128  1  0.91737724  0.29236519  0.16374710  1  -1.134082  0  -0.33133  -0.507017  0  2.370209  0
O  O129  1  0.79583682  0.41872515  0.16663807  1  -1.147413  0  -0.329421  -0.52078  0  2.296011  0
O  O130  1  0.58261245  0.20762869  0.16375546  1  -1.133613  0  -0.331318  -0.50705  0  2.370529  0
O  O131  1  0.70416055  0.08126949  0.16664869  1  -1.147162  0  -0.3295  -0.520972  0  2.295598  0
O  O132  1  0.70763318  0.41737889  0.66374961  1  -1.134242  0  -0.331374  -0.507117  0  2.370346  0
O  O133  1  0.58127107  0.29583657  0.66664018  1  -1.147263  0  -0.329415  -0.52084  0  2.295915  0
O  O134  1  0.79237611  0.08261963  0.66375538  1  -1.134246  0  -0.331368  -0.507048  0  2.370713  0
O  O135  1  0.91873286  0.20416501  0.66663944  1  -1.147252  0  -0.32945  -0.52095  0  2.295537  0
