# generated using pymatgen
data_ZnH18C26(NO)4
_symmetry_space_group_name_H-M   'P 1'
_cell_length_a   9.06915219
_cell_length_b   10.06918607
_cell_length_c   13.13600000
_cell_angle_alpha   90.00000000
_cell_angle_beta   110.24021421
_cell_angle_gamma   90.00000000
_symmetry_Int_Tables_number   1
_chemical_formula_structural   ZnH18C26(NO)4
_chemical_formula_sum   'Zn2 H36 C52 N8 O8'
_cell_volume   1125.49344782
_cell_formula_units_Z   2
loop_
 _symmetry_equiv_pos_site_id
 _symmetry_equiv_pos_as_xyz
  1  'x, y, z'
loop_
 _atom_site_type_symbol
 _atom_site_label
 _atom_site_symmetry_multiplicity
 _atom_site_fract_x
 _atom_site_fract_y
 _atom_site_fract_z
 _atom_site_occupancy
 _atom_site_hle17_bader_spin_density
 _atom_site_hle17_ddec_charge
 _atom_site_hle17_ddec_spin_density
 _atom_site_hle17_ddec_sum_bond_order
 _atom_site_hle17_magmom
 _atom_site_hse06_10hf_bader_spin_density
 _atom_site_hse06_10hf_ddec_charge
 _atom_site_hse06_10hf_ddec_spin_density
 _atom_site_hse06_10hf_ddec_sum_bond_order
 _atom_site_hse06_10hf_magmom
 _atom_site_hse06_bader_spin_density
 _atom_site_hse06_ddec_charge
 _atom_site_hse06_ddec_spin_density
 _atom_site_hse06_ddec_sum_bond_order
 _atom_site_hse06_magmom
 _atom_site_pbe_bader_charge
 _atom_site_pbe_bader_spin_density
 _atom_site_pbe_cm5_charge
 _atom_site_pbe_ddec_charge
 _atom_site_pbe_ddec_spin_density
 _atom_site_pbe_ddec_sum_bond_order
 _atom_site_pbe_magmom
Zn  Zn0  1  0.00000235  0.00000099  0.99999980  1  0  1.011178  0  1.91907  0  0  0.840174  0  2.362067  0  0  0.886449  0  2.309802  0  1.336969  0  0.682891  0.807642  0  2.397909  0
Zn  Zn1  1  0.49999788  0.50000069  0.50000007  1  0  1.011234  0  1.918982  0  0  0.840257  0  2.36197  0  0  0.886526  0  2.309708  0  1.33707  0  0.682923  0.807727  0  2.397815  0
H  H2  1  0.83822376  0.41486769  0.90015426  1  0  0.113576  0  0.992674  0  0  0.121621  0  1.060078  0  0  0.125274  0  1.061223  0  0.05161  0  0.091498  0.11911  0  1.059361  0
H  H3  1  0.66177342  0.91487137  0.59984297  1  0  0.113543  0  0.992696  0  0  0.121604  0  1.060085  0  0  0.125257  0  1.06123  0  0.05155  0  0.091501  0.119093  0  1.059368  0
H  H4  1  0.16177083  0.58512872  0.09984483  1  0  0.11353  0  0.992674  0  0  0.121596  0  1.060057  0  0  0.12525  0  1.0612  0  0.051572  0  0.091486  0.119085  0  1.059339  0
H  H5  1  0.33823410  0.08512505  0.40015616  1  0  0.113613  0  0.992669  0  0  0.121695  0  1.060015  0  0  0.12535  0  1.061156  0  0.051573  0  0.091545  0.119183  0  1.059299  0
H  H6  1  0.67653402  0.40481326  0.72355353  1  0  0.084587  0  0.946977  0  0  0.090699  0  1.01668  0  0  0.094083  0  1.013065  0  0.107971  0  0.116295  0.088162  0  1.01942  0
H  H7  1  0.82345611  0.90481494  0.77644659  1  0  0.084633  0  0.946983  0  0  0.090749  0  1.016674  0  0  0.094129  0  1.013065  0  0.107962  0  0.116344  0.088212  0  1.019416  0
H  H8  1  0.32345822  0.59518614  0.27644880  1  0  0.084567  0  0.946934  0  0  0.090666  0  1.016658  0  0  0.094047  0  1.013047  0  0.107989  0  0.116293  0.088129  0  1.0194  0
H  H9  1  0.17654319  0.09518346  0.22354906  1  0  0.08461  0  0.946995  0  0  0.090714  0  1.0167  0  0  0.094094  0  1.013092  0  0.108073  0  0.116345  0.088177  0  1.019441  0
H  H10  1  0.79512185  0.41591743  0.44626238  1  0  0.083342  0  0.973702  0  0  0.085078  0  1.051203  0  0  0.088493  0  1.047146  0  0.136921  0  0.115283  0.082667  0  1.053779  0
H  H11  1  0.70487885  0.91591514  0.05374178  1  0  0.083284  0  0.973779  0  0  0.085039  0  1.051257  0  0  0.088455  0  1.047201  0  0.136871  0  0.115257  0.082624  0  1.053843  0
H  H12  1  0.20487979  0.58408892  0.55374372  1  0  0.083214  0  0.973881  0  0  0.084968  0  1.051338  0  0  0.088389  0  1.047289  0  0.136934  0  0.115234  0.08255  0  1.053932  0
H  H13  1  0.29512867  0.08409121  0.94625963  1  0  0.083264  0  0.973899  0  0  0.085034  0  1.051353  0  0  0.088454  0  1.047301  0  0.13692  0  0.115255  0.082619  0  1.05394  0
H  H14  1  0.03167889  0.27563996  0.53088715  1  0  0.103152  0  0.949233  0  0  0.113505  0  1.00765  0  0  0.116272  0  1.007751  0  0.076268  0  0.106912  0.111794  0  1.007239  0
H  H15  1  0.46832487  0.77563965  0.96911203  1  0  0.103145  0  0.949306  0  0  0.113516  0  1.007683  0  0  0.116283  0  1.007783  0  0.076243  0  0.10692  0.111806  0  1.007273  0
H  H16  1  0.96832510  0.72436838  0.46911266  1  0  0.103133  0  0.949371  0  0  0.113517  0  1.007733  0  0  0.116284  0  1.007834  0  0.076203  0  0.106928  0.111808  0  1.007322  0
H  H17  1  0.53168148  0.22436769  0.03089291  1  0  0.103073  0  0.949399  0  0  0.113462  0  1.007763  0  0  0.116233  0  1.007852  0  0.076227  0  0.106915  0.111752  0  1.007355  0
H  H18  1  0.08066389  0.18351732  0.71903591  1  0  0.096423  0  0.980282  0  0  0.104432  0  1.04732  0  0  0.106564  0  1.046797  0  0.137493  0  0.105161  0.102687  0  1.048065  0
H  H19  1  0.41933517  0.68351701  0.78096672  1  0  0.096361  0  0.980301  0  0  0.104361  0  1.047356  0  0  0.106474  0  1.046864  0  0.137485  0  0.105132  0.102622  0  1.048084  0
H  H20  1  0.91933188  0.81648407  0.28096422  1  0  0.096447  0  0.980195  0  0  0.104478  0  1.047216  0  0  0.106591  0  1.046725  0  0.137466  0  0.105185  0.102734  0  1.047955  0
H  H21  1  0.58067117  0.31648536  0.21904127  1  0  0.096424  0  0.980148  0  0  0.104418  0  1.047214  0  0  0.106546  0  1.046694  0  0.137393  0  0.105167  0.102675  0  1.047953  0
H  H22  1  0.97144763  0.26263791  0.24198241  1  0  0.074004  0  0.942039  0  0  0.080561  0  1.010085  0  0  0.083814  0  1.006995  0  0.111865  0  0.110463  0.078278  0  1.012201  0
H  H23  1  0.52855190  0.76263463  0.25801386  1  0  0.074019  0  0.942016  0  0  0.080566  0  1.010084  0  0  0.083819  0  1.006995  0  0.111808  0  0.110486  0.078276  0  1.012215  0
H  H24  1  0.02855049  0.73736347  0.75801524  1  0  0.074058  0  0.942091  0  0  0.080584  0  1.010174  0  0  0.083838  0  1.007081  0  0.111825  0  0.1105  0.078295  0  1.012303  0
H  H25  1  0.47144739  0.23736278  0.74198407  1  0  0.074014  0  0.942017  0  0  0.080572  0  1.010069  0  0  0.083823  0  1.006983  0  0.111867  0  0.110468  0.078291  0  1.01218  0
H  H26  1  0.72534979  0.57866743  0.30755484  1  0  0.077445  0  0.958889  0  0  0.081266  0  1.031248  0  0  0.084579  0  1.028096  0  0.107655  0  0.108893  0.078828  0  1.033444  0
H  H27  1  0.77465444  0.07866773  0.19244636  1  0  0.07742  0  0.958896  0  0  0.081283  0  1.031213  0  0  0.084582  0  1.028105  0  0.10765  0  0.108881  0.07883  0  1.033423  0
H  H28  1  0.27465186  0.42133495  0.69244594  1  0  0.077454  0  0.958889  0  0  0.081269  0  1.031256  0  0  0.084579  0  1.028115  0  0.107672  0  0.108899  0.078826  0  1.033456  0
H  H29  1  0.22534368  0.92133167  0.80755052  1  0  0.077463  0  0.958914  0  0  0.081274  0  1.031273  0  0  0.084575  0  1.028155  0  0.107814  0  0.108881  0.07885  0  1.033452  0
H  H30  1  0.62414562  0.64611479  0.11260800  1  0  0.097051  0  0.969663  0  0  0.106323  0  1.033186  0  0  0.109226  0  1.033002  0  0.081773  0  0.103127  0.104225  0  1.033474  0
H  H31  1  0.87585508  0.14611509  0.38739312  1  0  0.097062  0  0.969717  0  0  0.106335  0  1.033233  0  0  0.10924  0  1.033045  0  0.114794  0  0.103127  0.104234  0  1.033527  0
H  H32  1  0.37585485  0.35388660  0.88739173  1  0  0.09707  0  0.969659  0  0  0.106342  0  1.033173  0  0  0.109247  0  1.032983  0  0.081795  0  0.103136  0.104241  0  1.033469  0
H  H33  1  0.12414069  0.85388431  0.61260397  1  0  0.097052  0  0.969742  0  0  0.106325  0  1.033261  0  0  0.10923  0  1.033078  0  0.114739  0  0.103123  0.104227  0  1.033549  0
H  H34  1  0.68761035  0.50578666  0.97618541  1  0  0.092325  0  0.94898  0  0  0.105312  0  1.007049  0  0  0.108039  0  1.005558  0  0.074521  0  0.10461  0.103265  0  1.008325  0
H  H35  1  0.81239153  0.00578398  0.52381599  1  0  0.092358  0  0.948894  0  0  0.105344  0  1.006968  0  0  0.10807  0  1.005477  0  0.074528  0  0.104627  0.103297  0  1.008245  0
H  H36  1  0.31238659  0.49421274  0.02381424  1  0  0.092342  0  0.948905  0  0  0.105327  0  1.00698  0  0  0.108054  0  1.005489  0  0.07456  0  0.10461  0.103281  0  1.008256  0
H  H37  1  0.18761012  0.99421244  0.47618250  1  0  0.0923  0  0.948931  0  0  0.105307  0  1.006988  0  0  0.108033  0  1.005497  0  0.074491  0  0.104619  0.10326  0  1.008264  0
C  C38  1  0.87131290  0.27086698  0.02602350  1  0  0.422361  0  3.833884  0  0  0.400596  0  4.096544  0  0  0.428243  0  4.10249  0  0.767268  0  0.115652  0.382228  0  4.091796  0
C  C39  1  0.62869133  0.77086370  0.47397694  1  0  0.422317  0  3.833932  0  0  0.40051  0  4.096647  0  0  0.428161  0  4.102586  0  0.767689  0  0.115635  0.382146  0  4.091892  0
C  C40  1  0.12868874  0.72913441  0.97397499  1  0  0.422289  0  3.834027  0  0  0.400541  0  4.096665  0  0  0.428191  0  4.102606  0  0.767053  0  0.115625  0.382173  0  4.091917  0
C  C41  1  0.37130914  0.22913272  0.52602432  1  0  0.422266  0  3.834025  0  0  0.400497  0  4.096717  0  0  0.428145  0  4.102658  0  0.76822  0  0.115594  0.38213  0  4.091969  0
C  C42  1  0.86987092  0.31202423  0.92295071  1  0  -0.442834  0  3.741173  0  0  -0.471987  0  4.010497  0  0  -0.498781  0  4.031633  0  -0.094913  0  -0.162487  -0.454338  0  3.995871  0
C  C43  1  0.63012861  0.81202293  0.57704937  1  0  -0.442757  0  3.741144  0  0  -0.471924  0  4.010487  0  0  -0.498719  0  4.031618  0  -0.094817  0  -0.162482  -0.454274  0  3.995853  0
C  C44  1  0.13012602  0.68797318  0.07704666  1  0  -0.44271  0  3.741058  0  0  -0.471881  0  4.010383  0  0  -0.498677  0  4.031516  0  -0.09491  0  -0.162444  -0.454232  0  3.99575  0
C  C45  1  0.36987069  0.18797249  0.42295008  1  0  -0.442837  0  3.741138  0  0  -0.472006  0  4.010455  0  0  -0.498797  0  4.031583  0  -0.094886  0  -0.162491  -0.454357  0  3.995822  0
C  C46  1  0.91132167  0.23360975  0.84761447  1  0  0.429803  0  3.821332  0  0  0.410751  0  4.078924  0  0  0.438963  0  4.084217  0  0.811983  0  0.120983  0.392069  0  4.074734  0
C  C47  1  0.58867786  0.73360944  0.65238561  1  0  0.429817  0  3.821424  0  0  0.410776  0  4.07899  0  0  0.438995  0  4.084266  0  0.811973  0  0.121015  0.3921  0  4.074788  0
C  C48  1  0.08867763  0.76638965  0.15238498  1  0  0.429806  0  3.821389  0  0  0.410732  0  4.078991  0  0  0.43895  0  4.084275  0  0.812094  0  0.121027  0.392059  0  4.074786  0
C  C49  1  0.41132143  0.26638797  0.34761308  1  0  0.429867  0  3.821497  0  0  0.410799  0  4.079132  0  0  0.439011  0  4.084419  0  0.811972  0  0.120981  0.392128  0  4.074923  0
C  C50  1  0.88567511  0.28954575  0.73738708  1  0  -0.066433  0  3.742943  0  0  -0.041525  0  3.96949  0  0  -0.052667  0  3.99311  0  0.027437  0  -0.011884  -0.034565  0  3.954044  0
C  C51  1  0.61431736  0.78954743  0.76261055  1  0  -0.066569  0  3.742897  0  0  -0.041663  0  3.969471  0  0  -0.052805  0  3.993082  0  0.026908  0  -0.011972  -0.034703  0  3.954022  0
C  C52  1  0.11431948  0.71045663  0.26261201  1  0  -0.06654  0  3.742927  0  0  -0.041588  0  3.969453  0  0  -0.052729  0  3.993066  0  0.027091  0  -0.011936  -0.034629  0  3.954004  0
C  C53  1  0.38568076  0.21045495  0.23738862  1  0  -0.066657  0  3.742807  0  0  -0.041736  0  3.969386  0  0  -0.052876  0  3.993  0  0.02692  0  -0.011986  -0.034777  0  3.953937  0
C  C54  1  0.75916756  0.37284245  0.68477198  1  0  0.10756  0  3.671752  0  0  0.070185  0  3.916213  0  0  0.078243  0  3.933422  0  0.481697  0  0.051328  0.064685  0  3.9048  0
C  C55  1  0.74082962  0.87284314  0.81522905  1  0  0.107561  0  3.671729  0  0  0.070186  0  3.916185  0  0  0.078243  0  3.933394  0  0.482103  0  0.051314  0.064681  0  3.904777  0
C  C56  1  0.24082939  0.62715496  0.31523071  1  0  0.107609  0  3.671737  0  0  0.070236  0  3.9162  0  0  0.078296  0  3.933404  0  0.482149  0  0.051313  0.064731  0  3.904792  0
C  C57  1  0.25916967  0.12715427  0.18477040  1  0  0.107636  0  3.67163  0  0  0.070265  0  3.916109  0  0  0.078323  0  3.933313  0  0.482034  0  0.051307  0.064761  0  3.904702  0
C  C58  1  0.82377224  0.37973874  0.52902895  1  0  0.145796  0  3.668796  0  0  0.11034  0  3.924912  0  0  0.119383  0  3.940022  0  0.504201  0  0.054094  0.104804  0  3.914448  0
C  C59  1  0.67622847  0.87974042  0.97097217  1  0  0.145753  0  3.668693  0  0  0.110286  0  3.924806  0  0  0.119326  0  3.939921  0  0.504459  0  0.054064  0.104749  0  3.914343  0
C  C60  1  0.17622706  0.62026563  0.47097279  1  0  0.145889  0  3.668907  0  0  0.110431  0  3.925012  0  0  0.119462  0  3.940136  0  0.50405  0  0.05411  0.104894  0  3.914545  0
C  C61  1  0.32377670  0.12026295  0.02902716  1  0  0.145752  0  3.669  0  0  0.110263  0  3.925121  0  0  0.119294  0  3.940249  0  0.504127  0  0.054056  0.104727  0  3.914656  0
C  C62  1  0.95430723  0.29886527  0.57598297  1  0  -0.123301  0  3.746942  0  0  -0.133964  0  4.00352  0  0  -0.14277  0  4.025412  0  0.002365  0  -0.083104  -0.128327  0  3.988316  0
C  C63  1  0.54569230  0.79886298  0.92402015  1  0  -0.123276  0  3.746931  0  0  -0.133947  0  4.0035  0  0  -0.142751  0  4.025384  0  0.002679  0  -0.083094  -0.128304  0  3.98828  0
C  C64  1  0.04569207  0.70114207  0.42401952  1  0  -0.123272  0  3.747022  0  0  -0.133951  0  4.003592  0  0  -0.142756  0  4.025479  0  0.00286  0  -0.083105  -0.128309  0  3.988375  0
C  C65  1  0.45431052  0.20113840  0.07598243  1  0  -0.123127  0  3.746957  0  0  -0.133806  0  4.003519  0  0  -0.142611  0  4.025414  0  0.002782  0  -0.083063  -0.128169  0  3.988307  0
C  C66  1  0.98312567  0.25021983  0.68007774  1  0  -0.026847  0  3.702988  0  0  -0.05544  0  3.948885  0  0  -0.050057  0  3.966964  0  -0.137905  0  -0.065598  -0.058899  0  3.937025  0
C  C67  1  0.51687386  0.75022251  0.81992462  1  0  -0.026742  0  3.702891  0  0  -0.055338  0  3.948814  0  0  -0.049945  0  3.966894  0  -0.138291  0  -0.065568  -0.058793  0  3.936954  0
C  C68  1  0.01687363  0.74977858  0.31992400  1  0  -0.026867  0  3.70295  0  0  -0.055513  0  3.948884  0  0  -0.05012  0  3.966967  0  -0.138291  0  -0.065619  -0.058969  0  3.937025  0
C  C69  1  0.48312896  0.24977789  0.18007643  1  0  -0.026834  0  3.702733  0  0  -0.055421  0  3.948652  0  0  -0.050031  0  3.96673  0  -0.138063  0  -0.06561  -0.058878  0  3.936792  0
C  C70  1  0.83241236  0.36945290  0.09838862  1  0  -0.077112  0  3.743976  0  0  -0.050843  0  3.969603  0  0  -0.060519  0  3.99257  0  -0.062398  0  -0.01541  -0.044676  0  3.953791  0
C  C71  1  0.66759187  0.86944863  0.40161030  1  0  -0.077133  0  3.743949  0  0  -0.050802  0  3.969524  0  0  -0.060482  0  3.992493  0  -0.062387  0  -0.015344  -0.044635  0  3.953711  0
C  C72  1  0.16758693  0.63054650  0.90161007  1  0  -0.07708  0  3.744003  0  0  -0.050821  0  3.969632  0  0  -0.060496  0  3.992595  0  -0.062183  0  -0.015395  -0.044653  0  3.953821  0
C  C73  1  0.33241095  0.13054680  0.59838924  1  0  -0.077163  0  3.744025  0  0  -0.050917  0  3.969696  0  0  -0.060594  0  3.992661  0  -0.062388  0  -0.015402  -0.044748  0  3.953882  0
C  C74  1  0.89164399  0.34616701  0.21100519  1  0  0.101693  0  3.705007  0  0  0.068626  0  3.962754  0  0  0.075689  0  3.978227  0  0.502211  0  0.047511  0.064303  0  3.951949  0
C  C75  1  0.60835906  0.84616273  0.28899420  1  0  0.101732  0  3.70497  0  0  0.068635  0  3.962747  0  0  0.075697  0  3.97822  0  0.502197  0  0.047512  0.064312  0  3.951938  0
C  C76  1  0.10835530  0.65383537  0.78899426  1  0  0.101618  0  3.704997  0  0  0.068561  0  3.962767  0  0  0.075625  0  3.978231  0  0.502193  0  0.047473  0.064236  0  3.95196  0
C  C77  1  0.39164258  0.15383170  0.71100581  1  0  0.101644  0  3.705018  0  0  0.068573  0  3.962781  0  0  0.075635  0  3.978256  0  0.502231  0  0.047464  0.06425  0  3.951973  0
C  C78  1  0.75871510  0.52336604  0.24717914  1  0  0.115488  0  3.72933  0  0  0.089998  0  3.99089  0  0  0.096728  0  4.006565  0  0.475722  0  0.041751  0.085804  0  3.980299  0
C  C79  1  0.74128795  0.02336534  0.25282026  1  0  0.115495  0  3.729202  0  0  0.089949  0  3.990805  0  0  0.096673  0  4.006475  0  0.475702  0  0.04179  0.085766  0  3.980219  0
C  C80  1  0.24128537  0.47663634  0.75281907  1  0  0.115441  0  3.729359  0  0  0.089925  0  3.990963  0  0  0.096653  0  4.006636  0  0.475577  0  0.041742  0.085737  0  3.980372  0
C  C81  1  0.25871017  0.97663207  0.74717663  1  0  0.115469  0  3.729267  0  0  0.089989  0  3.990836  0  0  0.096717  0  4.006507  0  0.47558  0  0.041751  0.085785  0  3.980236  0
C  C82  1  0.69914266  0.55900447  0.13777364  1  0  -0.128358  0  3.752219  0  0  -0.139697  0  4.000949  0  0  -0.147559  0  4.023921  0  -0.044293  0  -0.089335  -0.134515  0  3.985349  0
C  C83  1  0.80086157  0.05900179  0.36222756  1  0  -0.128346  0  3.752249  0  0  -0.139669  0  4.000985  0  0  -0.147529  0  4.023954  0  -0.077279  0  -0.089302  -0.134486  0  3.98538  0
C  C84  1  0.30085546  0.44099592  0.86222477  1  0  -0.128312  0  3.752282  0  0  -0.139631  0  4.000997  0  0  -0.147491  0  4.023967  0  -0.044149  0  -0.089294  -0.134449  0  3.985395  0
C  C85  1  0.19913890  0.94099463  0.63776989  1  0  -0.12843  0  3.752315  0  0  -0.139765  0  4.001037  0  0  -0.147628  0  4.024003  0  -0.077323  0  -0.089382  -0.134581  0  3.98544  0
C  C86  1  0.73637558  0.48125538  0.06228031  1  0  -0.039819  0  3.718918  0  0  -0.063895  0  3.959425  0  0  -0.060061  0  3.978442  0  -0.041618  0  -0.068994  -0.06606  0  3.945883  0
C  C87  1  0.76362629  0.98125210  0.43771881  1  0  -0.039888  0  3.719003  0  0  -0.063979  0  3.959514  0  0  -0.060144  0  3.97853  0  -0.041593  0  -0.069063  -0.06614  0  3.945963  0
C  C88  1  0.26362253  0.51874501  0.93771734  1  0  -0.039913  0  3.719057  0  0  -0.063984  0  3.95957  0  0  -0.06015  0  3.978584  0  -0.041605  0  -0.069031  -0.066143  0  3.946016  0
C  C89  1  0.23637417  0.01874332  0.56227864  1  0  -0.039752  0  3.718855  0  0  -0.063836  0  3.959374  0  0  -0.059999  0  3.978389  0  -0.04166  0  -0.068988  -0.065997  0  3.94582  0
N  N90  1  0.72675181  0.41395799  0.58209038  1  0  -0.310248  0  3.27629  0  0  -0.235765  0  3.540443  0  0  -0.253293  0  3.555934  0  -1.258048  0  -0.32252  -0.223954  0  3.529868  0
N  N91  1  0.77324654  0.91395967  0.91790789  1  0  -0.31018  0  3.276225  0  0  -0.235687  0  3.540355  0  0  -0.253217  0  3.55585  0  -1.258007  0  -0.322477  -0.223878  0  3.529784  0
N  N92  1  0.27324513  0.58603942  0.41791003  1  0  -0.310255  0  3.276493  0  0  -0.235773  0  3.540646  0  0  -0.2533  0  3.556136  0  -1.258035  0  -0.322488  -0.223961  0  3.530071  0
N  N93  1  0.22675863  0.08603972  0.08209068  1  0  -0.310212  0  3.276417  0  0  -0.235716  0  3.540571  0  0  -0.253247  0  3.556066  0  -1.258028  0  -0.322459  -0.223908  0  3.529999  0
N  N94  1  0.85630903  0.41977574  0.28419683  1  0  -0.317378  0  3.087758  0  0  -0.279879  0  3.361214  0  0  -0.291323  0  3.375509  0  -1.199701  0  -0.324924  -0.272177  0  3.351183  0
N  N95  1  0.64369402  0.91977345  0.21580485  1  0  -0.317355  0  3.087737  0  0  -0.279841  0  3.361234  0  0  -0.291278  0  3.375522  0  -1.199664  0  -0.324997  -0.272136  0  3.351196  0
N  N96  1  0.14369144  0.58022565  0.71580214  1  0  -0.317301  0  3.087836  0  0  -0.279768  0  3.361263  0  0  -0.291218  0  3.375575  0  -1.199725  0  -0.324933  -0.272065  0  3.351232  0
N  N97  1  0.35630527  0.08022297  0.78419612  1  0  -0.317268  0  3.087772  0  0  -0.27977  0  3.361232  0  0  -0.291209  0  3.375516  0  -1.199656  0  -0.324843  -0.272068  0  3.351206  0
O  O98  1  0.90288603  0.15406409  0.06608378  1  0  -0.564026  0  2.069141  0  0  -0.4987  0  2.322945  0  0  -0.52558  0  2.314946  0  -1.146812  0  -0.29614  -0.479907  0  2.32749  0
O  O99  1  0.59712408  0.65406081  0.43392035  1  0  -0.564036  0  2.0692  0  0  -0.498675  0  2.322944  0  0  -0.525551  0  2.31494  0  -1.14724  0  -0.296154  -0.479893  0  2.3275  0
O  O100  1  0.09711562  0.84593630  0.93391776  1  0  -0.564037  0  2.069245  0  0  -0.498719  0  2.323041  0  0  -0.525599  0  2.315039  0  -1.146824  0  -0.296155  -0.479931  0  2.327593  0
O  O101  1  0.40287639  0.34593561  0.56608014  1  0  -0.563962  0  2.069255  0  0  -0.498607  0  2.32299  0  0  -0.525483  0  2.314988  0  -1.147701  0  -0.296106  -0.479827  0  2.327546  0
O  O102  1  0.97043460  0.11709487  0.86288768  1  0  -0.553832  0  2.066898  0  0  -0.487702  0  2.315546  0  0  -0.514207  0  2.307089  0  -1.141732  0  -0.294601  -0.469326  0  2.320658  0
O  O103  1  0.52956375  0.61709357  0.63711136  1  0  -0.553828  0  2.066963  0  0  -0.48771  0  2.315605  0  0  -0.514227  0  2.307165  0  -1.141844  0  -0.294618  -0.469345  0  2.320734  0
O  O104  1  0.02956704  0.88290751  0.13711234  1  0  -0.553786  0  2.066923  0  0  -0.487657  0  2.315572  0  0  -0.514168  0  2.30712  0  -1.141866  0  -0.29461  -0.469286  0  2.320683  0
O  O105  1  0.47042614  0.38290583  0.36288661  1  0  -0.553814  0  2.066947  0  0  -0.487722  0  2.315638  0  0  -0.51425  0  2.307231  0  -1.141815  0  -0.294605  -0.46935  0  2.320745  0
