# generated using pymatgen
data_NdH16C16N10ClO6
_symmetry_space_group_name_H-M   'P 1'
_cell_length_a   8.73572523
_cell_length_b   11.12015055
_cell_length_c   13.04638046
_cell_angle_alpha   115.20444444
_cell_angle_beta   105.56180707
_cell_angle_gamma   89.99218097
_symmetry_Int_Tables_number   1
_chemical_formula_structural   NdH16C16N10ClO6
_chemical_formula_sum   'Nd2 H32 C32 N20 Cl2 O12'
_cell_volume   1095.15549192
_cell_formula_units_Z   2
loop_
 _symmetry_equiv_pos_site_id
 _symmetry_equiv_pos_as_xyz
  1  'x, y, z'
loop_
 _atom_site_type_symbol
 _atom_site_label
 _atom_site_symmetry_multiplicity
 _atom_site_fract_x
 _atom_site_fract_y
 _atom_site_fract_z
 _atom_site_occupancy
 _atom_site_hle17_bader_spin_density
 _atom_site_hle17_ddec_charge
 _atom_site_hle17_ddec_spin_density
 _atom_site_hle17_ddec_sum_bond_order
 _atom_site_hle17_magmom
 _atom_site_hse06_10hf_bader_spin_density
 _atom_site_hse06_10hf_ddec_charge
 _atom_site_hse06_10hf_ddec_spin_density
 _atom_site_hse06_10hf_ddec_sum_bond_order
 _atom_site_hse06_10hf_magmom
 _atom_site_hse06_bader_spin_density
 _atom_site_hse06_ddec_charge
 _atom_site_hse06_ddec_spin_density
 _atom_site_hse06_ddec_sum_bond_order
 _atom_site_hse06_magmom
 _atom_site_pbe_bader_spin_density
 _atom_site_pbe_cm5_charge
 _atom_site_pbe_ddec_charge
 _atom_site_pbe_ddec_spin_density
 _atom_site_pbe_ddec_sum_bond_order
 _atom_site_pbe_magmom
Nd  Nd0  1  0.75004433  0.44651598  0.00006570  1  0  2.291111  0  1.59495  0  0  2.140153  0  2.043551  0  0  2.233038  0  1.905027  0  0  1.390041  2.105741  0  2.080265  0
Nd  Nd1  1  0.24995200  0.55348212  0.99993354  1  0  2.291126  0  1.594903  0  0  2.140195  0  2.043458  0  0  2.233058  0  1.904972  0  0  1.390052  2.105783  0  2.080171  0
H  H2  1  0.48146902  0.27586685  0.99831448  1  0  0.413842  0  0.895496  0  0  0.386399  0  0.955216  0  0  0.396446  0  0.940844  0  0  0.268532  0.379272  0  0.965537  0
H  H3  1  0.01867046  0.27751702  0.00171179  1  0  0.413655  0  0.895848  0  0  0.386405  0  0.955248  0  0  0.396439  0  0.940889  0  0  0.268405  0.379279  0  0.965565  0
H  H4  1  0.51852984  0.72413225  0.00168635  1  0  0.413873  0  0.89546  0  0  0.386429  0  0.955177  0  0  0.396476  0  0.940805  0  0  0.268544  0.379301  0  0.965499  0
H  H5  1  0.98132769  0.72248509  0.99828925  1  0  0.413741  0  0.895729  0  0  0.386461  0  0.955163  0  0  0.396508  0  0.940793  0  0  0.26843  0.379334  0  0.965479  0
H  H6  1  0.64565989  0.23451132  0.06317157  1  0  0.386934  0  0.938223  0  0  0.34341  0  1.022247  0  0  0.355544  0  1.005492  0  0  0.280432  0.334863  0  1.03415  0
H  H7  1  0.85448344  0.17143762  0.93697392  1  0  0.387532  0  0.937139  0  0  0.344003  0  1.021185  0  0  0.356128  0  1.004438  0  0  0.280543  0.335465  0  1.033079  0
H  H8  1  0.35434032  0.76548878  0.93682910  1  0  0.386933  0  0.938222  0  0  0.343411  0  1.022245  0  0  0.355545  0  1.00549  0  0  0.280428  0.334864  0  1.034148  0
H  H9  1  0.14551456  0.82856350  0.06302596  1  0  0.38753  0  0.937143  0  0  0.343999  0  1.021186  0  0  0.356124  0  1.004439  0  0  0.280553  0.33546  0  1.03308  0
H  H10  1  0.53131688  0.70596411  0.34655155  1  0  0.150621  0  0.907842  0  0  0.156185  0  0.974969  0  0  0.159779  0  0.971563  0  0  0.134831  0.153644  0  0.977354  0
H  H11  1  0.96859876  0.35916233  0.65329254  1  0  0.15168  0  0.906676  0  0  0.157105  0  0.974244  0  0  0.160732  0  0.97092  0  0  0.134948  0.154516  0  0.97661  0
H  H12  1  0.46868587  0.29403700  0.65344842  1  0  0.150645  0  0.907799  0  0  0.156219  0  0.974933  0  0  0.159815  0  0.971524  0  0  0.134829  0.15367  0  0.977333  0
H  H13  1  0.03140028  0.64083779  0.34670639  1  0  0.151682  0  0.906701  0  0  0.157126  0  0.974247  0  0  0.160744  0  0.970935  0  0  0.134955  0.154537  0  0.976615  0
H  H14  1  0.47308552  0.53546580  0.30750981  1  0  0.141203  0  0.88838  0  0  0.155433  0  0.941508  0  0  0.15798  0  0.939695  0  0  0.140858  0.153605  0  0.942798  0
H  H15  1  0.02693816  0.22785425  0.69257047  1  0  0.14186  0  0.887237  0  0  0.155286  0  0.941895  0  0  0.157824  0  0.940194  0  0  0.140875  0.153456  0  0.94314  0
H  H16  1  0.52691280  0.46453731  0.69249086  1  0  0.141199  0  0.888342  0  0  0.155439  0  0.941474  0  0  0.157987  0  0.93966  0  0  0.140859  0.153611  0  0.942764  0
H  H17  1  0.97306309  0.77214486  0.30742850  1  0  0.141857  0  0.887169  0  0  0.155281  0  0.941835  0  0  0.157818  0  0.940132  0  0  0.140868  0.153451  0  0.943081  0
H  H18  1  0.00469222  0.93610696  0.61792534  1  0  0.101603  0  0.965863  0  0  0.100481  0  1.048151  0  0  0.104062  0  1.044539  0  0  0.105667  0.097766  0  1.050897  0
H  H19  1  0.49535103  0.31797996  0.38209674  1  0  0.101969  0  0.964283  0  0  0.100515  0  1.047044  0  0  0.10413  0  1.043392  0  0  0.105711  0.097795  0  1.049796  0
H  H20  1  0.99530681  0.06389317  0.38207283  1  0  0.101637  0  0.965864  0  0  0.100489  0  1.048158  0  0  0.104093  0  1.044529  0  0  0.105677  0.097777  0  1.050901  0
H  H21  1  0.50464917  0.68202013  0.61790547  1  0  0.10198  0  0.964298  0  0  0.10053  0  1.047058  0  0  0.104146  0  1.043404  0  0  0.105713  0.097811  0  1.049811  0
H  H22  1  0.24193557  0.08715993  0.78789270  1  0  0.110799  0  0.94994  0  0  0.120554  0  1.006619  0  0  0.124043  0  1.00507  0  0  0.102867  0.118137  0  1.007645  0
H  H23  1  0.25814206  0.29929170  0.21212844  1  0  0.110686  0  0.949451  0  0  0.120648  0  1.00615  0  0  0.124054  0  1.004709  0  0  0.102928  0.11828  0  1.007135  0
H  H24  1  0.75806568  0.91283917  0.21210627  1  0  0.11078  0  0.949953  0  0  0.120536  0  1.006633  0  0  0.124024  0  1.005085  0  0  0.102866  0.118119  0  1.007659  0
H  H25  1  0.74185680  0.70070740  0.78787163  1  0  0.110681  0  0.94945  0  0  0.120636  0  1.006149  0  0  0.124042  0  1.004707  0  0  0.102926  0.118268  0  1.007134  0
H  H26  1  0.39853653  0.00130316  0.92637164  1  0  0.073957  0  0.937508  0  0  0.08353  0  1.00146  0  0  0.086233  0  0.99891  0  0  0.112401  0.081545  0  1.003299  0
H  H27  1  0.10157633  0.07510157  0.07357584  1  0  0.073351  0  0.937392  0  0  0.082884  0  1.001452  0  0  0.085591  0  0.998881  0  0  0.112149  0.080896  0  1.003304  0
H  H28  1  0.60146219  0.99869495  0.07362573  1  0  0.074019  0  0.937452  0  0  0.083506  0  1.001499  0  0  0.086208  0  0.998952  0  0  0.112416  0.081522  0  1.003339  0
H  H29  1  0.89842373  0.92489753  0.92642368  1  0  0.073381  0  0.93742  0  0  0.082914  0  1.001471  0  0  0.085621  0  0.998899  0  0  0.11218  0.080926  0  1.003322  0
H  H30  1  0.11645973  0.63127264  0.73864003  1  0  0.097608  0  0.95085  0  0  0.101469  0  1.022604  0  0  0.10513  0  1.018989  0  0  0.121609  0.098724  0  1.025464  0
H  H31  1  0.38337133  0.89255088  0.26136805  1  0  0.096925  0  0.952301  0  0  0.101992  0  1.022346  0  0  0.105591  0  1.018826  0  0  0.12168  0.099216  0  1.025274  0
H  H32  1  0.88353914  0.36872647  0.26135927  1  0  0.097612  0  0.950854  0  0  0.101475  0  1.022606  0  0  0.105136  0  1.01899  0  0  0.121614  0.098731  0  1.025465  0
H  H33  1  0.61662872  0.10744821  0.73863300  1  0  0.096911  0  0.952319  0  0  0.101979  0  1.022358  0  0  0.105578  0  1.018838  0  0  0.121667  0.099204  0  1.025284  0
C  C34  1  0.62739822  0.56447953  0.21358004  1  0  0.726646  0  3.847885  0  0  0.68171  0  4.144722  0  0  0.71512  0  4.140045  0  0  0.225546  0.658778  0  4.15069  0
C  C35  1  0.87257826  0.35086337  0.78636627  1  0  0.725911  0  3.850896  0  0  0.681544  0  4.147531  0  0  0.715057  0  4.142821  0  0  0.225509  0.658577  0  4.15347  0
C  C36  1  0.37260215  0.43552157  0.78642103  1  0  0.726612  0  3.847882  0  0  0.681701  0  4.144706  0  0  0.715112  0  4.140025  0  0  0.225524  0.658774  0  4.150667  0
C  C37  1  0.12742434  0.64913673  0.21363331  1  0  0.725782  0  3.850934  0  0  0.681402  0  4.147609  0  0  0.714916  0  4.142895  0  0  0.225431  0.658435  0  4.153548  0
C  C38  1  0.57323741  0.60764539  0.32455299  1  0  -0.205114  0  3.580104  0  0  -0.262312  0  3.830505  0  0  -0.263381  0  3.833216  0  0  -0.032148  -0.261302  0  3.828165  0
C  C39  1  0.92672737  0.28291681  0.67540953  1  0  -0.195371  0  3.591254  0  0  -0.263651  0  3.831871  0  0  -0.264972  0  3.834821  0  0  -0.032544  -0.262485  0  3.829352  0
C  C40  1  0.42676312  0.39235672  0.67544771  1  0  -0.205149  0  3.57999  0  0  -0.26239  0  3.830424  0  0  -0.26346  0  3.833135  0  0  -0.032163  -0.26138  0  3.828077  0
C  C41  1  0.07327506  0.71708229  0.32459041  1  0  -0.195352  0  3.591244  0  0  -0.263638  0  3.831823  0  0  -0.264951  0  3.834774  0  0  -0.032529  -0.262472  0  3.829304  0
C  C42  1  0.90490776  0.68365439  0.56984585  1  0  0.253455  0  3.807617  0  0  0.233995  0  4.082941  0  0  0.24213  0  4.100593  0  0  0.220776  0.22868  0  4.070901  0
C  C43  1  0.59503870  0.11351710  0.43020199  1  0  0.25474  0  3.802917  0  0  0.2337  0  4.083349  0  0  0.241762  0  4.101111  0  0  0.221395  0.228437  0  4.071207  0
C  C44  1  0.09509246  0.31634571  0.43015406  1  0  0.253453  0  3.807623  0  0  0.233969  0  4.082975  0  0  0.242102  0  4.100627  0  0  0.220761  0.228655  0  4.070933  0
C  C45  1  0.40496031  0.88648299  0.56980000  1  0  0.254737  0  3.802893  0  0  0.233686  0  4.083383  0  0  0.241749  0  4.101145  0  0  0.221369  0.228421  0  4.071245  0
C  C46  1  0.04363909  0.77175391  0.66494775  1  0  -0.039945  0  3.787212  0  0  -0.016302  0  4.017848  0  0  -0.022778  0  4.042599  0  0  0.000883  -0.012286  0  4.001059  0
C  C47  1  0.45632884  0.10663573  0.33508295  1  0  -0.039948  0  3.787862  0  0  -0.016601  0  4.018422  0  0  -0.023047  0  4.043177  0  0  0.000382  -0.01259  0  4.00161  0
C  C48  1  0.95636097  0.22824520  0.33505101  1  0  -0.039921  0  3.787192  0  0  -0.016272  0  4.017831  0  0  -0.022747  0  4.042589  0  0  0.000888  -0.012256  0  4.001042  0
C  C49  1  0.54367152  0.89336536  0.66491965  1  0  -0.039811  0  3.787864  0  0  -0.016531  0  4.018531  0  0  -0.022978  0  4.043288  0  0  0.0004  -0.012519  0  4.001721  0
C  C50  1  0.07985364  0.90192399  0.67918782  1  0  -0.032441  0  3.677445  0  0  -0.062789  0  3.927068  0  0  -0.060242  0  3.94686  0  0  -0.065849  -0.063931  0  3.913416  0
C  C51  1  0.42012683  0.22260997  0.32086448  1  0  -0.031978  0  3.675079  0  0  -0.061967  0  3.924579  0  0  -0.059463  0  3.94438  0  0  -0.065003  -0.063094  0  3.910901  0
C  C52  1  0.92014642  0.09807512  0.32081093  1  0  -0.032463  0  3.677451  0  0  -0.062787  0  3.927108  0  0  -0.060256  0  3.946868  0  0  -0.065824  -0.063929  0  3.913454  0
C  C53  1  0.57987219  0.77739014  0.67913598  1  0  -0.032028  0  3.67513  0  0  -0.062011  0  3.924636  0  0  -0.059507  0  3.944442  0  0  -0.065006  -0.063138  0  3.91096  0
C  C54  1  0.20958940  0.98529273  0.77291631  1  0  -0.115335  0  3.750423  0  0  -0.126044  0  4.004293  0  0  -0.133472  0  4.026679  0  0  -0.087165  -0.121302  0  3.988936  0
C  C55  1  0.29040768  0.21236838  0.22710390  1  0  -0.115696  0  3.748992  0  0  -0.126768  0  4.003304  0  0  -0.13414  0  4.025715  0  0  -0.08772  -0.122068  0  3.987952  0
C  C56  1  0.79041153  0.01470437  0.22708110  1  0  -0.11532  0  3.750417  0  0  -0.126027  0  4.004265  0  0  -0.133455  0  4.02666  0  0  -0.087187  -0.121285  0  3.988905  0
C  C57  1  0.70959357  0.78763072  0.77289583  1  0  -0.115756  0  3.748988  0  0  -0.126802  0  4.003281  0  0  -0.134173  0  4.025689  0  0  -0.087748  -0.1221  0  3.987929  0
C  C58  1  0.29776610  0.93745841  0.85059162  1  0  0.124392  0  3.711125  0  0  0.088968  0  3.971136  0  0  0.095559  0  3.988821  0  0  0.046656  0.084874  0  3.958842  0
C  C59  1  0.20226960  0.08695007  0.14939052  1  0  0.125739  0  3.710565  0  0  0.090286  0  3.970596  0  0  0.096881  0  3.988259  0  0  0.047154  0.086198  0  3.958304  0
C  C60  1  0.70223039  0.06254070  0.14940802  1  0  0.124365  0  3.71111  0  0  0.089  0  3.971125  0  0  0.095591  0  3.98881  0  0  0.046627  0.084905  0  3.958831  0
C  C61  1  0.79773061  0.91305003  0.85061092  1  0  0.125767  0  3.7106  0  0  0.090326  0  3.97062  0  0  0.096922  0  3.988282  0  0  0.047145  0.086239  0  3.958329  0
C  C62  1  0.13978147  0.73146131  0.74631922  1  0  0.109335  0  3.647393  0  0  0.065801  0  3.903908  0  0  0.071942  0  3.919949  0  0  0.058562  0.062003  0  3.892911  0
C  C63  1  0.36012300  0.98509464  0.25371024  1  0  0.108442  0  3.649381  0  0  0.064355  0  3.904849  0  0  0.070523  0  3.920966  0  0  0.057701  0.060549  0  3.893854  0
C  C64  1  0.86021875  0.26853880  0.25367993  1  0  0.109328  0  3.647397  0  0  0.065786  0  3.903921  0  0  0.071927  0  3.919962  0  0  0.058546  0.061987  0  3.892924  0
C  C65  1  0.63987618  0.01490647  0.74629062  1  0  0.108423  0  3.649404  0  0  0.064367  0  3.904905  0  0  0.070536  0  3.921022  0  0  0.057721  0.060561  0  3.893912  0
N  N66  1  0.81580942  0.71815273  0.48780619  1  0  -0.28723  0  2.813086  0  0  -0.277472  0  3.082077  0  0  -0.28404  0  3.094803  0  0  -0.189678  -0.273121  0  3.074022  0
N  N67  1  0.68404444  0.23005403  0.51218322  1  0  -0.273857  0  2.824199  0  0  -0.276781  0  3.081698  0  0  -0.283318  0  3.09443  0  0  -0.189805  -0.272455  0  3.073647  0
N  N68  1  0.18419095  0.28184838  0.51219412  1  0  -0.287249  0  2.813165  0  0  -0.277488  0  3.082163  0  0  -0.284055  0  3.094892  0  0  -0.189641  -0.273136  0  3.074105  0
N  N69  1  0.31595680  0.76994506  0.48781804  1  0  -0.273924  0  2.824265  0  0  -0.276848  0  3.081749  0  0  -0.283385  0  3.094481  0  0  -0.189811  -0.272522  0  3.0737  0
N  N70  1  0.69987224  0.61562419  0.42579908  1  0  0.244317  0  3.560629  0  0  0.292955  0  3.839645  0  0  0.289378  0  3.86124  0  0  -0.005132  0.295262  0  3.824803  0
N  N71  1  0.80011299  0.18960990  0.57422234  1  0  0.201809  0  3.622088  0  0  0.292533  0  3.841107  0  0  0.289033  0  3.862728  0  0  -0.005286  0.29479  0  3.826245  0
N  N72  1  0.30012814  0.38437692  0.57420123  1  0  0.244376  0  3.560607  0  0  0.293025  0  3.839622  0  0  0.289447  0  3.861216  0  0  -0.005126  0.295332  0  3.824777  0
N  N73  1  0.19988586  0.81038919  0.42577849  1  0  0.201778  0  3.62218  0  0  0.292548  0  3.841138  0  0  0.28905  0  3.862755  0  0  -0.005296  0.294806  0  3.826277  0
N  N74  1  0.71360920  0.52035036  0.46379158  1  0  -0.102168  0  2.845338  0  0  -0.099354  0  3.137065  0  0  -0.095867  0  3.145573  0  0  -0.065853  -0.101449  0  3.131668  0
N  N75  1  0.78654393  0.05638697  0.53630689  1  0  -0.087776  0  2.855823  0  0  -0.097752  0  3.137352  0  0  -0.09426  0  3.145843  0  0  -0.064667  -0.09985  0  3.131966  0
N  N76  1  0.28638999  0.47965076  0.53620852  1  0  -0.102227  0  2.845336  0  0  -0.09942  0  3.137068  0  0  -0.095934  0  3.145578  0  0  -0.065883  -0.101516  0  3.131672  0
N  N77  1  0.21345748  0.94361314  0.46369324  1  0  -0.087724  0  2.855807  0  0  -0.097728  0  3.137342  0  0  -0.094237  0  3.145839  0  0  -0.064658  -0.099827  0  3.131957  0
N  N78  1  0.84360979  0.56254177  0.55560449  1  0  -0.26002  0  2.911273  0  0  -0.251088  0  3.206695  0  0  -0.257987  0  3.216265  0  0  -0.195505  -0.246443  0  3.200549  0
N  N79  1  0.65651965  0.00672132  0.44451230  1  0  -0.259164  0  2.907341  0  0  -0.251953  0  3.208202  0  0  -0.258833  0  3.217807  0  0  -0.196542  -0.247318  0  3.202017  0
N  N80  1  0.15639043  0.43745834  0.44439466  1  0  -0.259995  0  2.911243  0  0  -0.251049  0  3.206661  0  0  -0.257947  0  3.21623  0  0  -0.195495  -0.246405  0  3.200515  0
N  N81  1  0.34348040  0.99327777  0.55548875  1  0  -0.259191  0  2.907316  0  0  -0.251965  0  3.208193  0  0  -0.258846  0  3.217799  0  0  -0.196538  -0.247329  0  3.20201  0
N  N82  1  0.26375349  0.81304009  0.83744824  1  0  -0.301214  0  3.196523  0  0  -0.233828  0  3.445103  0  0  -0.248335  0  3.460995  0  0  -0.302993  -0.223952  0  3.434006  0
N  N83  1  0.23619208  0.97563535  0.16254613  1  0  -0.301476  0  3.195258  0  0  -0.234045  0  3.443851  0  0  -0.248525  0  3.459704  0  0  -0.302895  -0.224173  0  3.432736  0
N  N84  1  0.73624554  0.18696002  0.16255070  1  0  -0.30125  0  3.196575  0  0  -0.233848  0  3.445122  0  0  -0.248355  0  3.461014  0  0  -0.302972  -0.223972  0  3.434025  0
N  N85  1  0.76380813  0.02436476  0.83745455  1  0  -0.301468  0  3.195252  0  0  -0.234066  0  3.443873  0  0  -0.248547  0  3.459725  0  0  -0.302897  -0.224194  0  3.432761  0
Cl  Cl86  1  0.74998087  0.69758570  0.00000796  1  0  -0.684285  0  0.865177  0  0  -0.637785  0  1.093752  0  0  -0.658288  0  1.066667  0  0  -0.285613  -0.627506  0  1.10718  0
Cl  Cl87  1  0.25001561  0.30241341  0.99999167  1  0  -0.684269  0  0.865183  0  0  -0.63778  0  1.093764  0  0  -0.658284  0  1.066677  0  0  -0.285611  -0.6275  0  1.107192  0
O  O88  1  0.52976461  0.56392470  0.12106893  1  0  -0.799659  0  2.110691  0  0  -0.74313  0  2.366671  0  0  -0.779315  0  2.357163  0  0  -0.400798  -0.724325  0  2.372401  0
O  O89  1  0.97024741  0.44283990  0.87878043  1  0  -0.798475  0  2.110868  0  0  -0.742783  0  2.366796  0  0  -0.778983  0  2.35727  0  0  -0.40037  -0.724015  0  2.3726  0
O  O90  1  0.47023560  0.43607540  0.87893174  1  0  -0.799678  0  2.110689  0  0  -0.743163  0  2.366682  0  0  -0.779354  0  2.357182  0  0  -0.400815  -0.724356  0  2.372405  0
O  O91  1  0.02975416  0.55716122  0.12121857  1  0  -0.798405  0  2.110829  0  0  -0.742726  0  2.366801  0  0  -0.778925  0  2.357269  0  0  -0.400343  -0.723954  0  2.372597  0
O  O92  1  0.76541463  0.52956882  0.21528686  1  0  -0.68475  0  2.000377  0  0  -0.636588  0  2.244495  0  0  -0.665699  0  2.234981  0  0  -0.361899  -0.619688  0  2.250377  0
O  O93  1  0.73460372  0.31433396  0.78474980  1  0  -0.683683  0  2.000991  0  0  -0.636384  0  2.245537  0  0  -0.665565  0  2.236132  0  0  -0.361809  -0.619437  0  2.251346  0
O  O94  1  0.23458559  0.47043129  0.78471229  1  0  -0.684687  0  2.000334  0  0  -0.636533  0  2.24444  0  0  -0.665641  0  2.234928  0  0  -0.361862  -0.619636  0  2.250322  0
O  O95  1  0.26539904  0.68566715  0.21525018  1  0  -0.683566  0  2.000923  0  0  -0.636288  0  2.245507  0  0  -0.665467  0  2.236101  0  0  -0.361753  -0.619343  0  2.251316  0
O  O96  1  0.59456321  0.26670374  0.99947311  1  0  -0.910268  0  1.912399  0  0  -0.853422  0  2.113716  0  0  -0.879788  0  2.079947  0  0  -0.665083  -0.838737  0  2.135182  0
O  O97  1  0.90559539  0.26724663  0.00061725  1  0  -0.910322  0  1.912599  0  0  -0.853531  0  2.113522  0  0  -0.879854  0  2.079775  0  0  -0.664692  -0.838853  0  2.135037  0
O  O98  1  0.40543598  0.73329737  0.00052775  1  0  -0.910323  0  1.912408  0  0  -0.853467  0  2.113707  0  0  -0.87983  0  2.079936  0  0  -0.665093  -0.838781  0  2.135173  0
O  O99  1  0.09440143  0.73275450  0.99938013  1  0  -0.910398  0  1.912446  0  0  -0.853579  0  2.113438  0  0  -0.879921  0  2.079639  0  0  -0.66473  -0.838902  0  2.134954  0
