# generated using pymatgen
data_NdP2H12C6NO11
_symmetry_space_group_name_H-M   'P 1'
_cell_length_a   8.99931405
_cell_length_b   11.01488046
_cell_length_c   15.21720000
_cell_angle_alpha   93.03004846
_cell_angle_beta   90.00000000
_cell_angle_gamma   90.00000000
_symmetry_Int_Tables_number   1
_chemical_formula_structural   NdP2H12C6NO11
_chemical_formula_sum   'Nd4 P8 H48 C24 N4 O44'
_cell_volume   1506.31692055
_cell_formula_units_Z   4
loop_
 _symmetry_equiv_pos_site_id
 _symmetry_equiv_pos_as_xyz
  1  'x, y, z'
loop_
 _atom_site_type_symbol
 _atom_site_label
 _atom_site_symmetry_multiplicity
 _atom_site_fract_x
 _atom_site_fract_y
 _atom_site_fract_z
 _atom_site_occupancy
 _atom_site_hle17_bader_spin_density
 _atom_site_hle17_ddec_charge
 _atom_site_hle17_ddec_spin_density
 _atom_site_hle17_ddec_sum_bond_order
 _atom_site_hle17_magmom
 _atom_site_hse06_10hf_bader_spin_density
 _atom_site_hse06_10hf_ddec_charge
 _atom_site_hse06_10hf_ddec_spin_density
 _atom_site_hse06_10hf_ddec_sum_bond_order
 _atom_site_hse06_10hf_magmom
 _atom_site_hse06_bader_spin_density
 _atom_site_hse06_ddec_charge
 _atom_site_hse06_ddec_spin_density
 _atom_site_hse06_ddec_sum_bond_order
 _atom_site_hse06_magmom
 _atom_site_pbe_bader_charge
 _atom_site_pbe_bader_spin_density
 _atom_site_pbe_cm5_charge
 _atom_site_pbe_ddec_charge
 _atom_site_pbe_ddec_spin_density
 _atom_site_pbe_ddec_sum_bond_order
 _atom_site_pbe_magmom
Nd  Nd0  1  0.25251925  0.40779833  0.61408391  1  0  2.353076  0  1.619911  0  0  2.252881  0  1.982044  0  0  2.288126  0  1.942388  0  2.267616  0  1.505374  2.174535  0  2.108624  0
Nd  Nd1  1  0.75252180  0.59220157  0.88591431  1  0  2.353041  0  1.619935  0  0  2.252841  0  1.982079  0  0  2.288085  0  1.942425  0  2.267604  0  1.505375  2.174508  0  2.108636  0
Nd  Nd2  1  0.74748030  0.59219975  0.38591358  1  0  2.353061  0  1.619947  0  0  2.252864  0  1.982096  0  0  2.288109  0  1.942439  0  2.267585  0  1.505373  2.17456  0  2.108601  0
Nd  Nd3  1  0.24748553  0.40779924  0.11408198  1  0  2.353051  0  1.619856  0  0  2.252858  0  1.98199  0  0  2.288104  0  1.942335  0  2.267637  0  1.505377  2.174516  0  2.108556  0
P  P4  1  0.15267719  0.64092751  0.45258034  1  0  1.50469  0  4.74411  0  0  1.354356  0  5.247662  0  0  1.405205  0  5.20645  0  3.376631  0  0.399818  1.318445  0  5.271566  0
P  P5  1  0.65267974  0.35906785  0.04742034  1  0  1.504642  0  4.744192  0  0  1.354307  0  5.247718  0  0  1.405148  0  5.206511  0  3.376769  0  0.399771  1.318396  0  5.271612  0
P  P6  1  0.84732125  0.35906512  0.54741892  1  0  1.504571  0  4.744185  0  0  1.354243  0  5.247749  0  0  1.405091  0  5.206533  0  3.376411  0  0.39975  1.318333  0  5.271644  0
P  P7  1  0.34732314  0.64092751  0.95257837  1  0  1.504617  0  4.744105  0  0  1.3543  0  5.24767  0  0  1.405145  0  5.206468  0  3.376742  0  0.399795  1.318385  0  5.271579  0
P  P8  1  0.19919852  0.06061922  0.60314283  1  0  1.507071  0  4.803343  0  0  1.355053  0  5.323977  0  0  1.405567  0  5.281813  0  3.372987  0  0.378275  1.319629  0  5.350855  0
P  P9  1  0.69919551  0.93937977  0.89685864  1  0  1.507224  0  4.803051  0  0  1.355218  0  5.323672  0  0  1.405734  0  5.2815  0  3.372375  0  0.3783  1.319792  0  5.350551  0
P  P10  1  0.80080437  0.93937977  0.39685798  1  0  1.507221  0  4.803243  0  0  1.35521  0  5.323872  0  0  1.405726  0  5.2817  0  3.372549  0  0.378298  1.319782  0  5.350751  0
P  P11  1  0.30079959  0.06061922  0.10314152  1  0  1.507155  0  4.803307  0  0  1.355115  0  5.323929  0  0  1.405628  0  5.281765  0  3.373049  0  0.378292  1.319693  0  5.350809  0
H  H12  1  0.35801284  0.04850229  0.70920932  1  0  0.435496  0  0.790626  0  0  0.422266  0  0.837034  0  0  0.430853  0  0.82765  0  0.636397  0  0.353454  0.416641  0  0.843177  0
H  H13  1  0.85800984  0.95149670  0.79079478  1  0  0.435463  0  0.790583  0  0  0.422254  0  0.836963  0  0  0.430838  0  0.827588  0  0.636426  0  0.353459  0.416631  0  0.843102  0
H  H14  1  0.64198671  0.95149761  0.29079547  1  0  0.43544  0  0.79059  0  0  0.422228  0  0.836972  0  0  0.430811  0  0.827598  0  0.636422  0  0.353451  0.416605  0  0.843111  0
H  H15  1  0.14198749  0.04850411  0.20920742  1  0  0.435472  0  0.790671  0  0  0.422245  0  0.837074  0  0  0.430831  0  0.827694  0  0.636375  0  0.353447  0.416619  0  0.843219  0
H  H16  1  0.47150038  0.36909741  0.44707005  1  0  0.444499  0  0.843496  0  0  0.419427  0  0.896265  0  0  0.43042  0  0.880007  0  0.632409  0  0.306787  0.411258  0  0.908266  0
H  H17  1  0.97150738  0.63090431  0.05292364  1  0  0.444582  0  0.843373  0  0  0.419509  0  0.896143  0  0  0.430504  0  0.879881  0  0.632492  0  0.30683  0.411339  0  0.908148  0
H  H18  1  0.52849361  0.63090794  0.55292181  1  0  0.444634  0  0.843304  0  0  0.419566  0  0.896062  0  0  0.430558  0  0.879803  0  0.632514  0  0.306867  0.411396  0  0.908067  0
H  H19  1  0.02849884  0.36909559  0.94707130  1  0  0.444506  0  0.843495  0  0  0.41943  0  0.896272  0  0  0.430423  0  0.880012  0  0.632424  0  0.306798  0.411261  0  0.908272  0
H  H20  1  0.55882704  0.39684872  0.53144484  1  0  0.420064  0  0.873994  0  0  0.390684  0  0.947337  0  0  0.400153  0  0.933337  0  0.624249  0  0.30923  0.384268  0  0.956478  0
H  H21  1  0.05882337  0.60315027  0.96854678  1  0  0.420027  0  0.874081  0  0  0.39064  0  0.947413  0  0  0.400112  0  0.933408  0  0.624289  0  0.309204  0.384226  0  0.956553  0
H  H22  1  0.44117807  0.60315118  0.46854484  1  0  0.420032  0  0.874097  0  0  0.390646  0  0.947402  0  0  0.400115  0  0.933401  0  0.62432  0  0.309205  0.38423  0  0.956545  0
H  H23  1  0.94117396  0.39684781  0.03144612  1  0  0.420069  0  0.874  0  0  0.390692  0  0.947326  0  0  0.40016  0  0.933328  0  0.624258  0  0.309222  0.384277  0  0.956467  0
H  H24  1  0.10065323  0.91759510  0.43758795  1  0  0.294311  0  0.906703  0  0  0.275397  0  0.967911  0  0  0.283506  0  0.963019  0  0.553725  0  0.310241  0.269918  0  0.971106  0
H  H25  1  0.60065356  0.08240480  0.06241750  1  0  0.294221  0  0.906779  0  0  0.275319  0  0.967963  0  0  0.283426  0  0.963077  0  0.55382  0  0.31021  0.26984  0  0.971156  0
H  H26  1  0.89934632  0.08240389  0.56241681  1  0  0.294222  0  0.906773  0  0  0.275326  0  0.967953  0  0  0.283434  0  0.963067  0  0.553813  0  0.310231  0.269848  0  0.971146  0
H  H27  1  0.39934488  0.91759510  0.93758598  1  0  0.294343  0  0.906672  0  0  0.275424  0  0.967884  0  0  0.283533  0  0.962993  0  0.553738  0  0.31025  0.269944  0  0.971081  0
H  H28  1  0.13400688  0.80313698  0.56607923  1  0  0.160153  0  0.909178  0  0  0.171957  0  0.961178  0  0  0.175561  0  0.958767  0  0.125368  0  0.134643  0.169133  0  0.963504  0
H  H29  1  0.63400943  0.19685747  0.93392470  1  0  0.1602  0  0.909238  0  0  0.171956  0  0.961264  0  0  0.17556  0  0.958851  0  0.12535  0  0.134644  0.169131  0  0.963594  0
H  H30  1  0.86598711  0.19685565  0.43392134  1  0  0.160201  0  0.909205  0  0  0.171986  0  0.961213  0  0  0.175589  0  0.958804  0  0.125311  0  0.134658  0.169161  0  0.963539  0
H  H31  1  0.36599234  0.80313607  0.06607723  1  0  0.160165  0  0.909222  0  0  0.171977  0  0.961222  0  0  0.175584  0  0.95881  0  0.125415  0  0.13465  0.169152  0  0.96355  0
H  H32  1  0.32350243  0.77186277  0.53607508  1  0  0.143162  0  0.935679  0  0  0.15516  0  0.991756  0  0  0.15821  0  0.99006  0  0.109026  0  0.126603  0.152439  0  0.993887  0
H  H33  1  0.82350165  0.22813349  0.96392695  1  0  0.143159  0  0.935677  0  0  0.155138  0  0.991754  0  0  0.158191  0  0.990052  0  0.109076  0  0.126596  0.152409  0  0.993894  0
H  H34  1  0.67649489  0.22813349  0.46392826  1  0  0.143126  0  0.935671  0  0  0.155125  0  0.991747  0  0  0.158181  0  0.990041  0  0.109042  0  0.126581  0.152395  0  0.993887  0
H  H35  1  0.17649567  0.77186096  0.03607435  1  0  0.143139  0  0.935751  0  0  0.155146  0  0.991824  0  0  0.158197  0  0.990131  0  0.109033  0  0.126605  0.152417  0  0.993965  0
H  H36  1  0.28111365  0.07329073  0.45465743  1  0  0.147558  0  0.898308  0  0  0.165016  0  0.942946  0  0  0.167655  0  0.941854  0  0.127579  0  0.137943  0.16281  0  0.944452  0
H  H37  1  0.78111287  0.92670371  0.04534584  1  0  0.147586  0  0.898457  0  0  0.165024  0  0.943115  0  0  0.167668  0  0.942018  0  0.127476  0  0.137957  0.162817  0  0.94462  0
H  H38  1  0.71889146  0.92670281  0.54534581  1  0  0.147555  0  0.898399  0  0  0.164997  0  0.943062  0  0  0.167642  0  0.941962  0  0.127481  0  0.137926  0.162788  0  0.944567  0
H  H39  1  0.21888224  0.07329073  0.95465546  1  0  0.14755  0  0.898312  0  0  0.164995  0  0.942946  0  0  0.167633  0  0.941855  0  0.127571  0  0.137932  0.16279  0  0.944453  0
H  H40  1  0.39982825  0.97500327  0.51243256  1  0  0.115242  0  0.957452  0  0  0.129104  0  1.01735  0  0  0.131006  0  1.016934  0  0.040853  0  0.1182  0.12847  0  1.016367  0
H  H41  1  0.89982525  0.02499209  0.98756877  1  0  0.115208  0  0.957457  0  0  0.129069  0  1.017371  0  0  0.130971  0  1.016957  0  0.040622  0  0.118176  0.128436  0  1.016386  0
H  H42  1  0.60017463  0.02498754  0.48756991  1  0  0.115214  0  0.957463  0  0  0.129065  0  1.017381  0  0  0.130969  0  1.016965  0  0.040647  0  0.118174  0.128431  0  1.016395  0
H  H43  1  0.10017208  0.97500054  0.01243246  1  0  0.115246  0  0.957467  0  0  0.129105  0  1.01735  0  0  0.131004  0  1.016938  0  0.040915  0  0.118201  0.128472  0  1.016369  0
H  H44  1  0.29105663  0.94648647  0.33186625  1  0  0.099903  0  0.922391  0  0  0.115265  0  0.980021  0  0  0.116944  0  0.978689  0  0.103547  0  0.120643  0.113956  0  0.981036  0
H  H45  1  0.79105918  0.05351343  0.16813986  1  0  0.099888  0  0.922351  0  0  0.115217  0  0.980009  0  0  0.116884  0  0.978689  0  0.103645  0  0.120599  0.113906  0  0.981024  0
H  H46  1  0.70893848  0.05351343  0.66813854  1  0  0.099968  0  0.922275  0  0  0.115244  0  0.979986  0  0  0.116921  0  0.978655  0  0.103566  0  0.120626  0.113937  0  0.981001  0
H  H47  1  0.20893815  0.94648737  0.83186497  1  0  0.099925  0  0.922359  0  0  0.115282  0  0.97999  0  0  0.116959  0  0.97866  0  0.103612  0  0.120634  0.113972  0  0.981004  0
H  H48  1  0.40457528  0.83512121  0.38238266  1  0  0.103279  0  0.908958  0  0  0.116545  0  0.971462  0  0  0.118045  0  0.970899  0  0.073128  0  0.123127  0.115571  0  0.971256  0
H  H49  1  0.90457783  0.16487414  0.11761998  1  0  0.103267  0  0.909032  0  0  0.116543  0  0.971488  0  0  0.118042  0  0.970928  0  0.07312  0  0.123133  0.115568  0  0.971283  0
H  H50  1  0.59542538  0.16487596  0.61762005  1  0  0.103272  0  0.909063  0  0  0.116552  0  0.971525  0  0  0.118048  0  0.970962  0  0.073146  0  0.123134  0.115578  0  0.97132  0
H  H51  1  0.09542061  0.83511849  0.88238322  1  0  0.103258  0  0.908996  0  0  0.116525  0  0.971498  0  0  0.118025  0  0.970939  0  0.073055  0  0.123103  0.115548  0  0.971295  0
H  H52  1  0.09310265  0.78483066  0.30347056  1  0  0.080589  0  0.926457  0  0  0.089275  0  0.994488  0  0  0.090972  0  0.992593  0  0.110534  0  0.115163  0.088044  0  0.995761  0
H  H53  1  0.59310743  0.21517379  0.19653112  1  0  0.080632  0  0.9265  0  0  0.089384  0  0.994413  0  0  0.091082  0  0.992521  0  0.110563  0  0.115185  0.088153  0  0.995687  0
H  H54  1  0.90689579  0.21516833  0.69652894  1  0  0.080589  0  0.926477  0  0  0.089279  0  0.994484  0  0  0.090974  0  0.992592  0  0.110553  0  0.115162  0.088049  0  0.995757  0
H  H55  1  0.40689323  0.78483066  0.80346661  1  0  0.080596  0  0.926486  0  0  0.089328  0  0.994432  0  0  0.091026  0  0.992537  0  0.11054  0  0.115159  0.088096  0  0.995706  0
H  H56  1  0.26557357  0.75011084  0.24964033  1  0  0.105723  0  0.912863  0  0  0.117729  0  0.9719  0  0  0.119005  0  0.971153  0  0.12386  0  0.122132  0.116312  0  0.973213  0
H  H57  1  0.76558279  0.24989542  0.25036077  1  0  0.105846  0  0.912931  0  0  0.117829  0  0.971956  0  0  0.119108  0  0.971203  0  0.123792  0  0.122187  0.116409  0  0.973272  0
H  H58  1  0.73442486  0.24989270  0.75036066  1  0  0.10577  0  0.912971  0  0  0.117768  0  0.971988  0  0  0.119043  0  0.971242  0  0.123846  0  0.122162  0.116351  0  0.973301  0
H  H59  1  0.23441787  0.75010902  0.74963894  1  0  0.105844  0  0.912917  0  0  0.11783  0  0.971937  0  0  0.119109  0  0.971184  0  0.123776  0  0.122179  0.11641  0  0.973253  0
C  C60  1  0.21041270  0.78363697  0.51093809  1  0  -0.346674  0  3.477541  0  0  -0.382015  0  3.714673  0  0  -0.387352  0  3.719753  0  -0.292558  0  -0.064923  -0.378507  0  3.712771  0
C  C61  1  0.71041192  0.21636112  0.98906466  1  0  -0.346685  0  3.477688  0  0  -0.381923  0  3.714709  0  0  -0.387252  0  3.719779  0  -0.292684  0  -0.064857  -0.378426  0  3.712844  0
C  C62  1  0.78958573  0.21635930  0.48906393  1  0  -0.346619  0  3.477574  0  0  -0.381941  0  3.714709  0  0  -0.387299  0  3.719826  0  -0.292595  0  -0.06484  -0.378446  0  3.712856  0
C  C63  1  0.28958540  0.78363606  0.01093674  1  0  -0.346614  0  3.477576  0  0  -0.382015  0  3.714802  0  0  -0.387329  0  3.71983  0  -0.292673  0  -0.06491  -0.378485  0  3.712862  0
C  C64  1  0.28370385  0.99882621  0.49987314  1  0  -0.335534  0  3.535329  0  0  -0.38031  0  3.792914  0  0  -0.384777  0  3.798687  0  -0.240621  0  -0.064962  -0.377582  0  3.789311  0
C  C65  1  0.78369973  0.00116824  0.00013210  1  0  -0.335622  0  3.535411  0  0  -0.380403  0  3.793036  0  0  -0.384877  0  3.798818  0  -0.24045  0  -0.064966  -0.377669  0  3.789423  0
C  C66  1  0.71630126  0.00116915  0.50013082  1  0  -0.335638  0  3.535469  0  0  -0.380407  0  3.793087  0  0  -0.38488  0  3.798866  0  -0.240553  0  -0.064926  -0.377666  0  3.789463  0
C  C67  1  0.21629537  0.99882712  0.99987120  1  0  -0.33559  0  3.53537  0  0  -0.380318  0  3.792918  0  0  -0.384785  0  3.798694  0  -0.240717  0  -0.064974  -0.377601  0  3.789329  0
C  C68  1  0.29008211  0.86278252  0.36778573  1  0  -0.05307  0  3.54002  0  0  -0.116382  0  3.803898  0  0  -0.114024  0  3.813387  0  0.193049  0  -0.060047  -0.117633  0  3.796958  0
C  C69  1  0.79008466  0.13721556  0.13221702  1  0  -0.053055  0  3.539894  0  0  -0.116334  0  3.803695  0  0  -0.113968  0  3.813181  0  0.192952  0  -0.060011  -0.117582  0  3.796753  0
C  C70  1  0.70991633  0.13721465  0.63221698  1  0  -0.053228  0  3.539954  0  0  -0.116469  0  3.803772  0  0  -0.114102  0  3.813246  0  0.192999  0  -0.060067  -0.117726  0  3.79684  0
C  C71  1  0.20991378  0.86278161  0.86778570  1  0  -0.053101  0  3.540127  0  0  -0.116418  0  3.803967  0  0  -0.114063  0  3.81346  0  0.19301  0  -0.060015  -0.117663  0  3.797018  0
C  C72  1  0.21101386  0.76345056  0.31377479  1  0  0.097402  0  3.582868  0  0  0.036885  0  3.852355  0  0  0.044161  0  3.857385  0  0.389798  0  -0.056067  0.031808  0  3.849768  0
C  C73  1  0.71101864  0.23655570  0.18622762  1  0  0.097101  0  3.583177  0  0  0.036631  0  3.85247  0  0  0.043896  0  3.857511  0  0.389826  0  -0.056199  0.031555  0  3.849875  0
C  C74  1  0.78898458  0.23655116  0.68622679  1  0  0.097373  0  3.583047  0  0  0.036908  0  3.852393  0  0  0.044183  0  3.857422  0  0.389871  0  -0.056058  0.031832  0  3.849801  0
C  C75  1  0.28898091  0.76345056  0.81377348  1  0  0.097188  0  3.583156  0  0  0.036738  0  3.852451  0  0  0.044006  0  3.85749  0  0.389903  0  -0.056111  0.031661  0  3.849857  0
C  C76  1  0.53352955  0.55342792  0.71496527  1  0  0.56861  0  3.925154  0  0  0.520335  0  4.238447  0  0  0.550565  0  4.227578  0  1.592933  0  0.217249  0.500084  0  4.239481  0
C  C77  1  0.03353811  0.44657834  0.78504042  1  0  0.568705  0  3.925168  0  0  0.520444  0  4.238451  0  0  0.550667  0  4.227583  0  1.592609  0  0.217303  0.500194  0  4.239484  0
C  C78  1  0.46646222  0.44658288  0.28503731  1  0  0.568616  0  3.925229  0  0  0.520471  0  4.238312  0  0  0.550695  0  4.22744  0  1.592498  0  0.217348  0.500221  0  4.239348  0
C  C79  1  0.96647699  0.55342429  0.21496645  1  0  0.56868  0  3.925098  0  0  0.520341  0  4.238486  0  0  0.550572  0  4.227622  0  1.593309  0  0.217304  0.50009  0  4.239519  0
C  C80  1  0.52766133  0.42835475  0.75806959  1  0  0.565189  0  3.952271  0  0  0.518859  0  4.267313  0  0  0.549158  0  4.25626  0  1.608554  0  0.211838  0.498605  0  4.268305  0
C  C81  1  0.02766100  0.57166242  0.74193061  1  0  0.565349  0  3.952389  0  0  0.518981  0  4.267479  0  0  0.549305  0  4.256385  0  1.606385  0  0.211848  0.498725  0  4.268475  0
C  C82  1  0.47233378  0.57166424  0.24193331  1  0  0.565354  0  3.952503  0  0  0.519002  0  4.267491  0  0  0.549326  0  4.256396  0  1.606768  0  0.211856  0.498744  0  4.268488  0
C  C83  1  0.97234411  0.42835112  0.25807076  1  0  0.565122  0  3.952504  0  0  0.51883  0  4.267524  0  0  0.549119  0  4.256489  0  1.608038  0  0.211823  0.498576  0  4.268518  0
N  N84  1  0.21213950  0.89104658  0.45416934  1  0  -0.025909  0  3.392322  0  0  0.05424  0  3.604307  0  0  0.042791  0  3.625155  0  -1.01587  0  -0.337025  0.061436  0  3.590469  0
N  N85  1  0.71213872  0.10895150  0.04583407  1  0  -0.025725  0  3.392196  0  0  0.054361  0  3.604251  0  0  0.042912  0  3.625102  0  -1.016017  0  -0.337027  0.061558  0  3.590404  0
N  N86  1  0.78786005  0.10894787  0.54583328  1  0  -0.025686  0  3.392171  0  0  0.054428  0  3.604211  0  0  0.042982  0  3.625061  0  -1.016036  0  -0.337052  0.061622  0  3.590364  0
N  N87  1  0.28785861  0.89104749  0.95416740  1  0  -0.02589  0  3.392265  0  0  0.054217  0  3.604329  0  0  0.04277  0  3.625183  0  -1.015875  0  -0.337069  0.061414  0  3.590493  0
O  O88  1  0.23848484  0.53898997  0.49155516  1  0  -0.915091  0  1.985445  0  0  -0.846896  0  2.247847  0  0  -0.870965  0  2.225851  0  -1.459429  0  -0.434805  -0.82246  0  2.263955  0
O  O89  1  0.73848184  0.46100356  0.00844085  1  0  -0.915004  0  1.985469  0  0  -0.846834  0  2.247874  0  0  -0.870889  0  2.22586  0  -1.459383  0  -0.434754  -0.822412  0  2.264011  0
O  O90  1  0.76151915  0.46100447  0.50844286  1  0  -0.914978  0  1.985441  0  0  -0.846804  0  2.24784  0  0  -0.870861  0  2.225827  0  -1.45934  0  -0.434728  -0.822378  0  2.263956  0
O  O91  1  0.26151882  0.53898997  0.99155450  1  0  -0.915037  0  1.985438  0  0  -0.846845  0  2.247831  0  0  -0.870912  0  2.225829  0  -1.459401  0  -0.434748  -0.82241  0  2.263941  0
O  O92  1  0.22515383  0.64928426  0.35588290  1  0  -0.49991  0  2.206257  0  0  -0.416586  0  2.454604  0  0  -0.438393  0  2.44862  0  -1.288532  0  -0.204614  -0.401404  0  2.458992  0
O  O93  1  0.72515971  0.35071927  0.14411678  1  0  -0.499826  0  2.206329  0  0  -0.416542  0  2.454655  0  0  -0.438355  0  2.448691  0  -1.288586  0  -0.20456  -0.401351  0  2.459031  0
O  O94  1  0.77484572  0.35071563  0.64411598  1  0  -0.499907  0  2.206229  0  0  -0.416591  0  2.454537  0  0  -0.438405  0  2.448569  0  -1.288626  0  -0.204646  -0.401406  0  2.458921  0
O  O95  1  0.27484428  0.64928245  0.85588020  1  0  -0.499811  0  2.206169  0  0  -0.416537  0  2.454525  0  0  -0.438347  0  2.44855  0  -1.288578  0  -0.204608  -0.401354  0  2.458914  0
O  O96  1  0.98629851  0.63940653  0.44850695  1  0  -0.920517  0  1.985657  0  0  -0.860087  0  2.256899  0  0  -0.883799  0  2.235761  0  -1.449353  0  -0.441262  -0.835193  0  2.2734  0
O  O97  1  0.48630151  0.36059610  0.05149795  1  0  -0.920515  0  1.985641  0  0  -0.860099  0  2.256902  0  0  -0.883808  0  2.235762  0  -1.449335  0  -0.441292  -0.835198  0  2.273407  0
O  O98  1  0.01370104  0.36059246  0.55149189  1  0  -0.92051  0  1.985595  0  0  -0.860086  0  2.256851  0  0  -0.883795  0  2.235709  0  -1.449035  0  -0.441268  -0.835185  0  2.273355  0
O  O99  1  0.51370137  0.63940471  0.94850557  1  0  -0.920521  0  1.985699  0  0  -0.860084  0  2.256923  0  0  -0.883797  0  2.235786  0  -1.449378  0  -0.441273  -0.835184  0  2.273427  0
O  O100  1  0.03866295  0.02304654  0.60623628  1  0  -0.80398  0  1.876865  0  0  -0.737961  0  2.110734  0  0  -0.762379  0  2.09262  0  -1.457779  0  -0.370041  -0.720936  0  2.122731  0
O  O101  1  0.53865883  0.97695881  0.89376544  1  0  -0.804082  0  1.876723  0  0  -0.738024  0  2.110565  0  0  -0.762445  0  2.092447  0  -1.457252  0  -0.370049  -0.720996  0  2.122562  0
O  O102  1  0.96133883  0.97695881  0.39376347  1  0  -0.804027  0  1.87679  0  0  -0.737994  0  2.11065  0  0  -0.762412  0  2.092531  0  -1.457374  0  -0.370018  -0.720966  0  2.122647  0
O  O103  1  0.46133627  0.02304836  0.10623438  1  0  -0.803999  0  1.876829  0  0  -0.737962  0  2.110696  0  0  -0.762382  0  2.092583  0  -1.457785  0  -0.37001  -0.720938  0  2.122693  0
O  O104  1  0.24737774  0.19131630  0.60651714  1  0  -0.938361  0  2.012556  0  0  -0.875909  0  2.290731  0  0  -0.899368  0  2.267222  0  -1.462397  0  -0.457339  -0.851665  0  2.308755  0
O  O105  1  0.74737807  0.80868451  0.89348441  1  0  -0.938373  0  2.012555  0  0  -0.875923  0  2.290728  0  0  -0.899381  0  2.267218  0  -1.462394  0  -0.457324  -0.851682  0  2.308751  0
O  O106  1  0.75262292  0.80868269  0.39348236  1  0  -0.938384  0  2.012496  0  0  -0.875927  0  2.290659  0  0  -0.899386  0  2.267151  0  -1.462402  0  -0.457339  -0.851689  0  2.30868  0
O  O107  1  0.25262259  0.19131539  0.10651447  1  0  -0.938383  0  2.01257  0  0  -0.875944  0  2.290775  0  0  -0.899402  0  2.267265  0  -1.462434  0  -0.457354  -0.8517  0  2.308796  0
O  O108  1  0.28489949  0.99345232  0.68114703  1  0  -0.723171  0  1.940238  0  0  -0.663616  0  2.153329  0  0  -0.682482  0  2.13142  0  -1.374708  0  -0.384386  -0.650722  0  2.167664  0
O  O109  1  0.78489871  0.00655122  0.81885593  1  0  -0.723176  0  1.940067  0  0  -0.66365  0  2.153162  0  0  -0.682516  0  2.131248  0  -1.374725  0  -0.384399  -0.650757  0  2.167497  0
O  O110  1  0.71510117  0.00655031  0.31885655  1  0  -0.723187  0  1.94018  0  0  -0.663651  0  2.153282  0  0  -0.682514  0  2.131368  0  -1.374726  0  -0.384429  -0.650757  0  2.167618  0
O  O111  1  0.21509862  0.99345323  0.18114707  1  0  -0.72315  0  1.940223  0  0  -0.663597  0  2.153319  0  0  -0.682463  0  2.13141  0  -1.37467  0  -0.38438  -0.650703  0  2.167654  0
O  O112  1  0.45304120  0.56404297  0.64664853  1  0  -0.701031  0  2.065172  0  0  -0.647529  0  2.301669  0  0  -0.671343  0  2.290614  0  -1.209323  0  -0.366422  -0.625056  0  2.31038  0
O  O113  1  0.95304153  0.43595329  0.85334692  1  0  -0.701075  0  2.065405  0  0  -0.647584  0  2.301921  0  0  -0.671397  0  2.290867  0  -1.208902  0  -0.366417  -0.625111  0  2.310632  0
O  O114  1  0.54695947  0.43595602  0.35334702  1  0  -0.701079  0  2.065361  0  0  -0.647616  0  2.301781  0  0  -0.671431  0  2.290727  0  -1.208829  0  -0.366435  -0.625148  0  2.310492  0
O  O115  1  0.04695580  0.56404115  0.14664781  1  0  -0.701026  0  2.065265  0  0  -0.647513  0  2.301817  0  0  -0.671328  0  2.290762  0  -1.209385  0  -0.366434  -0.625041  0  2.310526  0
O  O116  1  0.61672034  0.63436720  0.74945232  1  0  -0.649358  0  2.019618  0  0  -0.612326  0  2.259376  0  0  -0.63267  0  2.247843  0  -1.17897  0  -0.368511  -0.592268  0  2.268749  0
O  O117  1  0.11672890  0.36563907  0.75055140  1  0  -0.649394  0  2.019665  0  0  -0.612351  0  2.259407  0  0  -0.632697  0  2.247881  0  -1.17893  0  -0.368514  -0.592292  0  2.268782  0
O  O118  1  0.38327366  0.36564179  0.25055085  1  0  -0.649376  0  2.019657  0  0  -0.612397  0  2.259366  0  0  -0.632741  0  2.247836  0  -1.178894  0  -0.368569  -0.592338  0  2.26874  0
O  O119  1  0.88328065  0.63436356  0.24945087  1  0  -0.649374  0  2.019446  0  0  -0.612314  0  2.259234  0  0  -0.63266  0  2.247703  0  -1.179206  0  -0.368517  -0.592259  0  2.268602  0
O  O120  1  0.44160032  0.34871372  0.72347121  1  0  -0.663505  0  1.998095  0  0  -0.625629  0  2.238447  0  0  -0.646463  0  2.226914  0  -1.186991  0  -0.376748  -0.604867  0  2.247625  0
O  O121  1  0.94158176  0.65128345  0.77652362  1  0  -0.66352  0  1.998462  0  0  -0.625618  0  2.238835  0  0  -0.646458  0  2.227288  0  -1.187214  0  -0.376688  -0.604856  0  2.248012  0
O  O122  1  0.55841700  0.65128981  0.27652321  1  0  -0.663542  0  1.99844  0  0  -0.625676  0  2.2388  0  0  -0.646516  0  2.227247  0  -1.187249  0  -0.376744  -0.60492  0  2.247984  0
O  O123  1  0.05840556  0.34871281  0.22347315  1  0  -0.6634  0  1.998285  0  0  -0.625525  0  2.23862  0  0  -0.646356  0  2.227093  0  -1.187001  0  -0.376722  -0.604764  0  2.247793  0
O  O124  1  0.61242557  0.41598599  0.82356576  1  0  -0.673902  0  2.02216  0  0  -0.635337  0  2.267701  0  0  -0.65759  0  2.257431  0  -1.187345  0  -0.377299  -0.613528  0  2.276033  0
O  O125  1  0.11241412  0.58401846  0.67642475  1  0  -0.674033  0  2.022118  0  0  -0.635479  0  2.267726  0  0  -0.657741  0  2.257441  0  -1.185092  0  -0.377414  -0.61367  0  2.276062  0
O  O126  1  0.38758065  0.58402300  0.17642886  1  0  -0.673965  0  2.022123  0  0  -0.635407  0  2.267672  0  0  -0.657674  0  2.257396  0  -1.185477  0  -0.377334  -0.613598  0  2.276005  0
O  O127  1  0.88757987  0.41598417  0.32356964  1  0  -0.673985  0  2.022123  0  0  -0.635441  0  2.267683  0  0  -0.657684  0  2.257407  0  -1.186872  0  -0.37735  -0.613635  0  2.276013  0
O  O128  1  0.46992693  0.35156295  0.51065012  1  0  -0.896  0  1.820769  0  0  -0.859843  0  2.002305  0  0  -0.876285  0  1.9706  0  -1.258227  0  -0.62629  -0.84153  0  2.027947  0
O  O129  1  0.96992726  0.64843877  0.98934422  1  0  -0.896076  0  1.820769  0  0  -0.859914  0  2.002295  0  0  -0.876366  0  1.970591  0  -1.258333  0  -0.626302  -0.841608  0  2.027932  0
O  O130  1  0.53007262  0.64843786  0.48934353  1  0  -0.896104  0  1.820753  0  0  -0.859951  0  2.002267  0  0  -0.876396  0  1.970564  0  -1.2584  0  -0.626334  -0.841647  0  2.027903  0
O  O131  1  0.03007340  0.35156295  0.01065078  1  0  -0.896022  0  1.820781  0  0  -0.859855  0  2.002309  0  0  -0.876301  0  1.970606  0  -1.258263  0  -0.626291  -0.841545  0  2.027949  0
