# generated using pymatgen
data_Cd3H64C84(N3O7)2
_symmetry_space_group_name_H-M   'P 1'
_cell_length_a   11.64889272
_cell_length_b   19.00517339
_cell_length_c   21.90231137
_cell_angle_alpha   90.00002576
_cell_angle_beta   96.75200125
_cell_angle_gamma   90.00015544
_symmetry_Int_Tables_number   1
_chemical_formula_structural   Cd3H64C84(N3O7)2
_chemical_formula_sum   'Cd6 H128 C168 N12 O28'
_cell_volume   4815.30524479
_cell_formula_units_Z   2
loop_
 _symmetry_equiv_pos_site_id
 _symmetry_equiv_pos_as_xyz
  1  'x, y, z'
loop_
 _atom_site_type_symbol
 _atom_site_label
 _atom_site_symmetry_multiplicity
 _atom_site_fract_x
 _atom_site_fract_y
 _atom_site_fract_z
 _atom_site_occupancy
 _atom_site_pbe_bader_charge
 _atom_site_pbe_bader_spin_density
 _atom_site_pbe_cm5_charge
 _atom_site_pbe_ddec_charge
 _atom_site_pbe_ddec_spin_density
 _atom_site_pbe_ddec_sum_bond_order
 _atom_site_pbe_magmom
Cd  Cd0  1  0.64233885  0.02361885  0.05150004  1  1.27049  0  0.767299  0.866241  0  2.264859  0
Cd  Cd1  1  0.35765936  0.02362345  0.44849887  1  1.270518  0  0.767297  0.866292  0  2.264747  0
Cd  Cd2  1  0.35767013  0.97637310  0.94849879  1  1.270552  0  0.767286  0.866276  0  2.264733  0
Cd  Cd3  1  0.64234099  0.97637902  0.55150218  1  1.27061  0  0.767284  0.866222  0  2.264798  0
Cd  Cd4  1  0.99999313  0.49999388  0.99999593  1  1.269907  0  0.754207  0.889726  0  2.237647  0
Cd  Cd5  1  0.00000282  0.50000135  0.50000026  1  1.270032  0  0.754188  0.889794  0  2.237567  0
H  H6  1  0.68261644  0.17287426  0.99466179  1  0.145014  0  0.116598  0.095302  0  1.003794  0
H  H7  1  0.31737543  0.17287910  0.50533812  1  0.144424  0  0.116602  0.095237  0  1.003771  0
H  H8  1  0.31737959  0.82711926  0.00533945  1  0.144337  0  0.116572  0.095176  0  1.003707  0
H  H9  1  0.68261627  0.82712653  0.49466103  1  0.145044  0  0.116602  0.095343  0  1.003759  0
H  H10  1  0.81793237  0.23966197  0.93634539  1  0.084465  0  0.108195  0.114589  0  1.001575  0
H  H11  1  0.18205722  0.23966345  0.56365532  1  0.084547  0  0.108195  0.114559  0  1.001542  0
H  H12  1  0.18205241  0.76033682  0.06365288  1  0.084582  0  0.108145  0.114475  0  1.001629  0
H  H13  1  0.81793276  0.76033902  0.43634509  1  0.084522  0  0.108182  0.114585  0  1.001489  0
H  H14  1  0.00193696  0.04447811  0.91725667  1  0.135759  0  0.10656  0.121729  0  1.027996  0
H  H15  1  0.99805603  0.04447675  0.58273960  1  0.13554  0  0.106558  0.121742  0  1.028171  0
H  H16  1  0.99806423  0.95552752  0.08273758  1  0.13546  0  0.106522  0.121663  0  1.028095  0
H  H17  1  0.00193566  0.95552519  0.41725635  1  0.135699  0  0.106553  0.121714  0  1.028088  0
H  H18  1  0.85431501  0.98543631  0.97517470  1  0.09323  0  0.119027  0.09424  0  0.98638  0
H  H19  1  0.14567798  0.98543825  0.52482151  1  0.093243  0  0.119012  0.094261  0  0.986427  0
H  H20  1  0.14569397  0.01456353  0.02482277  1  0.093232  0  0.119038  0.094278  0  0.986397  0
H  H21  1  0.85431717  0.01456581  0.47517648  1  0.093143  0  0.119033  0.094236  0  0.986373  0
H  H22  1  0.07428028  0.14485767  0.87410156  1  0.070988  0  0.102293  0.10487  0  1.038873  0
H  H23  1  0.92570886  0.14485569  0.62589589  1  0.071021  0  0.102295  0.104856  0  1.038923  0
H  H24  1  0.92570102  0.85514638  0.12588827  1  0.071371  0  0.10233  0.104926  0  1.038924  0
H  H25  1  0.07428630  0.85514678  0.37410484  1  0.071116  0  0.102282  0.104814  0  1.038909  0
H  H26  1  0.93676812  0.28337594  0.87948308  1  0.089753  0  0.105106  0.102317  0  1.001175  0
H  H27  1  0.06322165  0.28337305  0.62051492  1  0.089811  0  0.105085  0.102347  0  1.001218  0
H  H28  1  0.06321059  0.71662969  0.12051116  1  0.089978  0  0.105108  0.102375  0  1.001176  0
H  H29  1  0.93677438  0.71662785  0.37948677  1  0.089759  0  0.105095  0.102333  0  1.001213  0
H  H30  1  0.02895959  0.38488701  0.84935504  1  0.086666  0  0.102056  0.10357  0  1.02523  0
H  H31  1  0.97103237  0.38488669  0.65063949  1  0.086728  0  0.10205  0.103596  0  1.02525  0
H  H32  1  0.97101134  0.61511336  0.15063507  1  0.086942  0  0.102076  0.103666  0  1.025243  0
H  H33  1  0.02897145  0.61511420  0.34936497  1  0.086751  0  0.102036  0.103562  0  1.02518  0
H  H34  1  0.16185388  0.44452613  0.78400025  1  0.069056  0  0.098077  0.092093  0  1.009657  0
H  H35  1  0.83813922  0.44452615  0.71599437  1  0.069072  0  0.097991  0.09202  0  1.009691  0
H  H36  1  0.83812398  0.55547897  0.21599394  1  0.069181  0  0.097969  0.091984  0  1.009727  0
H  H37  1  0.16186807  0.55547738  0.28401121  1  0.069168  0  0.097977  0.092019  0  1.009745  0
H  H38  1  0.29046682  0.37309514  0.72554164  1  0.061314  0  0.102049  0.102004  0  0.996923  0
H  H39  1  0.70952682  0.37309656  0.77445526  1  0.061433  0  0.102096  0.102042  0  0.996878  0
H  H40  1  0.70951883  0.62690838  0.27445713  1  0.061498  0  0.102084  0.102007  0  0.996946  0
H  H41  1  0.29048220  0.62690697  0.22555134  1  0.061506  0  0.102078  0.101992  0  0.996999  0
H  H42  1  0.15837859  0.18371030  0.79984543  1  0.0622  0  0.102433  0.102167  0  1.03499  0
H  H43  1  0.84161592  0.18370979  0.70015510  1  0.062183  0  0.102409  0.10215  0  1.034975  0
H  H44  1  0.84161050  0.81629375  0.20015127  1  0.062061  0  0.102392  0.102122  0  1.034937  0
H  H45  1  0.15838618  0.81629320  0.29985062  1  0.062108  0  0.102411  0.10211  0  1.034925  0
H  H46  1  0.37143255  0.26427431  0.70123820  1  0.044068  0  0.102681  0.096919  0  1.001495  0
H  H47  1  0.62856407  0.26427507  0.79876386  1  0.044024  0  0.102703  0.096993  0  1.001575  0
H  H48  1  0.62855829  0.73572974  0.29876226  1  0.044412  0  0.102737  0.096987  0  1.001522  0
H  H49  1  0.37144323  0.73573056  0.20124492  1  0.044339  0  0.102651  0.096918  0  1.001563  0
H  H50  1  0.24162262  0.13102575  0.73468795  1  0.075076  0  0.103201  0.103571  0  1.013132  0
H  H51  1  0.75837595  0.13102777  0.76530870  1  0.07503  0  0.103197  0.103552  0  1.013175  0
H  H52  1  0.75837685  0.86897672  0.26530985  1  0.075311  0  0.103178  0.103541  0  1.013189  0
H  H53  1  0.24162700  0.86897628  0.23469433  1  0.075101  0  0.103194  0.103566  0  1.013183  0
H  H54  1  0.28557860  0.02534929  0.68568525  1  0.104564  0  0.11163  0.122424  0  0.984754  0
H  H55  1  0.71442988  0.02535126  0.81431516  1  0.104447  0  0.111675  0.122438  0  0.984762  0
H  H56  1  0.71442866  0.97465213  0.31431485  1  0.104453  0  0.111665  0.122447  0  0.984676  0
H  H57  1  0.28557394  0.97465227  0.18568793  1  0.10448  0  0.111696  0.122485  0  0.984618  0
H  H58  1  0.41249866  0.95634168  0.62413966  1  0.088087  0  0.119696  0.093826  0  0.999752  0
H  H59  1  0.58752277  0.95634346  0.87586970  1  0.088217  0  0.119646  0.093782  0  0.999695  0
H  H60  1  0.58751639  0.04366343  0.37586320  1  0.088228  0  0.119636  0.093766  0  0.999703  0
H  H61  1  0.41248537  0.04365901  0.12413502  1  0.088096  0  0.119645  0.093719  0  0.99975  0
H  H62  1  0.62518595  0.12783428  0.60623655  1  0.135055  0  0.118173  0.093083  0  0.995723  0
H  H63  1  0.37482475  0.12783046  0.89376815  1  0.13514  0  0.118184  0.093047  0  0.995775  0
H  H64  1  0.37480747  0.87217556  0.39375905  1  0.134791  0  0.1182  0.093073  0  0.995712  0
H  H65  1  0.62518512  0.87216938  0.10623622  1  0.134812  0  0.118164  0.093083  0  0.995671  0
H  H66  1  0.50695077  0.20485691  0.66514560  1  0.073908  0  0.106658  0.113955  0  1.004549  0
H  H67  1  0.49304902  0.20485325  0.83485298  1  0.073997  0  0.106672  0.113904  0  1.004604  0
H  H68  1  0.49304264  0.79515188  0.33485000  1  0.074077  0  0.106706  0.114007  0  1.004603  0
H  H69  1  0.50695654  0.79514817  0.16515341  1  0.074021  0  0.106701  0.114013  0  1.004595  0
H  H70  1  0.05528821  0.66136020  0.96539635  1  0.111827  0  0.117843  0.092134  0  0.995992  0
H  H71  1  0.94471628  0.66136452  0.53460591  1  0.111778  0  0.117857  0.092176  0  0.995834  0
H  H72  1  0.94470002  0.33863280  0.03460075  1  0.111871  0  0.117883  0.092213  0  0.995845  0
H  H73  1  0.05529098  0.33863848  0.46539465  1  0.111907  0  0.117794  0.092146  0  0.995799  0
H  H74  1  0.17922260  0.73244041  0.90375813  1  0.097148  0  0.112088  0.122138  0  0.998879  0
H  H75  1  0.82078742  0.73244402  0.59624770  1  0.097035  0  0.112102  0.122134  0  0.998801  0
H  H76  1  0.82077084  0.26755575  0.09624387  1  0.097026  0  0.112075  0.122096  0  0.998808  0
H  H77  1  0.17922418  0.26755740  0.40375586  1  0.097124  0  0.112119  0.122186  0  0.998772  0
H  H78  1  0.32450613  0.53637232  0.84719008  1  0.076969  0  0.108028  0.114227  0  0.993117  0
H  H79  1  0.67550126  0.53637520  0.65281505  1  0.077344  0  0.108033  0.114272  0  0.993192  0
H  H80  1  0.67549943  0.46362804  0.15281540  1  0.077422  0  0.10804  0.114249  0  0.993083  0
H  H81  1  0.32450600  0.46362938  0.34718323  1  0.077302  0  0.108039  0.114225  0  0.993032  0
H  H82  1  0.19676187  0.47409498  0.91363359  1  0.07547  0  0.116107  0.089345  0  1.008352  0
H  H83  1  0.80324090  0.47409751  0.58636848  1  0.075566  0  0.116119  0.089304  0  1.008413  0
H  H84  1  0.80324020  0.52590170  0.08636619  1  0.075477  0  0.116127  0.089374  0  1.008315  0
H  H85  1  0.19676376  0.52590549  0.41362872  1  0.075483  0  0.11608  0.089287  0  1.008395  0
H  H86  1  0.39446461  0.64082761  0.80754707  1  0.052522  0  0.100553  0.098195  0  1.011249  0
H  H87  1  0.60555018  0.64082724  0.69246221  1  0.052607  0  0.100493  0.098162  0  1.01113  0
H  H88  1  0.60552536  0.35917170  0.19245288  1  0.052668  0  0.100576  0.09822  0  1.011437  0
H  H89  1  0.39446833  0.35917155  0.30754315  1  0.052661  0  0.100564  0.098236  0  1.011366  0
H  H90  1  0.28744165  0.78191386  0.84229323  1  0.097045  0  0.108661  0.111581  0  1.007539  0
H  H91  1  0.71255562  0.78191679  0.65770909  1  0.097128  0  0.108689  0.111645  0  1.007475  0
H  H92  1  0.71255178  0.21808546  0.15770511  1  0.097188  0  0.108675  0.111584  0  1.007542  0
H  H93  1  0.28744474  0.21808620  0.34229332  1  0.097082  0  0.108676  0.111601  0  1.007512  0
H  H94  1  0.50000145  0.68811271  0.75000291  1  0.005457  0  0.10083  0.097618  0  1.024839  0
H  H95  1  0.49999890  0.31188503  0.24999813  1  0.00553  0  0.100841  0.097584  0  1.02492  0
H  H96  1  0.36327351  0.88389509  0.80884311  1  0.124238  0  0.100521  0.113627  0  1.052122  0
H  H97  1  0.63671990  0.88389581  0.69115628  1  0.124221  0  0.100551  0.113627  0  1.052138  0
H  H98  1  0.63671212  0.11610159  0.19114972  1  0.124109  0  0.100533  0.113629  0  1.052151  0
H  H99  1  0.36327266  0.11609982  0.30884018  1  0.124128  0  0.100556  0.113688  0  1.052091  0
H  H100  1  0.49999339  0.94958467  0.74999745  1  0.032845  0  0.092682  0.086249  0  1.038951  0
H  H101  1  0.49999137  0.05041306  0.24999442  1  0.03274  0  0.092727  0.086303  0  1.038934  0
H  H102  1  0.12451718  0.28483121  0.97261594  1  0.095428  0  0.09341  0.094521  0  1.052621  0
H  H103  1  0.87548473  0.28484330  0.52738966  1  0.09523  0  0.093455  0.094565  0  1.052446  0
H  H104  1  0.87549701  0.71515390  0.02738733  1  0.095286  0  0.093405  0.094459  0  1.052573  0
H  H105  1  0.12451650  0.71516128  0.47261647  1  0.095693  0  0.093426  0.094556  0  1.052555  0
H  H106  1  0.21187327  0.16390210  0.97094502  1  0.078371  0  0.09956  0.106741  0  1.021224  0
H  H107  1  0.78813329  0.16391141  0.52906446  1  0.078432  0  0.099494  0.106642  0  1.021205  0
H  H108  1  0.78814872  0.83608669  0.02906329  1  0.078501  0  0.099546  0.106767  0  1.021162  0
H  H109  1  0.21187141  0.83609106  0.47094188  1  0.078423  0  0.099566  0.106754  0  1.021293  0
H  H110  1  0.51292850  0.23810772  0.08440094  1  0.082292  0  0.094752  0.09671  0  1.053367  0
H  H111  1  0.48706816  0.23810936  0.41560984  1  0.082473  0  0.094718  0.096658  0  1.053473  0
H  H112  1  0.48708140  0.76189054  0.91560891  1  0.082426  0  0.094781  0.096779  0  1.053327  0
H  H113  1  0.51292963  0.76189206  0.58439881  1  0.082223  0  0.094785  0.096755  0  1.05336  0
H  H114  1  0.42101497  0.35744778  0.09045319  1  0.106847  0  0.098224  0.101228  0  1.017736  0
H  H115  1  0.57898307  0.35745009  0.40955041  1  0.107014  0  0.09819  0.101221  0  1.017821  0
H  H116  1  0.57898885  0.64254890  0.90955035  1  0.106854  0  0.098179  0.101237  0  1.017756  0
H  H117  1  0.42101643  0.64255238  0.59045515  1  0.106773  0  0.098234  0.101247  0  1.017763  0
H  H118  1  0.92456269  0.91931892  0.20415095  1  0.079266  0  0.094488  0.088296  0  1.063434  0
H  H119  1  0.07543183  0.91931719  0.29584035  1  0.079238  0  0.094479  0.08831  0  1.063431  0
H  H120  1  0.07544195  0.08068092  0.79584260  1  0.079254  0  0.094508  0.088302  0  1.06345  0
H  H121  1  0.92457194  0.08067844  0.70415314  1  0.07934  0  0.094534  0.088297  0  1.06347  0
H  H122  1  0.92090114  0.14484138  0.20548745  1  0.075115  0  0.103779  0.10753  0  1.002656  0
H  H123  1  0.07910194  0.14483702  0.29450907  1  0.07519  0  0.10378  0.107594  0  1.002673  0
H  H124  1  0.07911474  0.85515847  0.79450770  1  0.075039  0  0.103829  0.107718  0  1.002544  0
H  H125  1  0.92091135  0.85515651  0.70548547  1  0.075089  0  0.103747  0.107539  0  1.002717  0
H  H126  1  0.08163473  0.52155072  0.12989948  1  0.558149  0  0.301596  0.372286  0  0.922372  0
H  H127  1  0.91835971  0.52155568  0.37009667  1  0.558036  0  0.301563  0.372234  0  0.922288  0
H  H128  1  0.91835349  0.47842965  0.87009352  1  0.558119  0  0.301593  0.372213  0  0.922426  0
H  H129  1  0.08164926  0.47842890  0.62990034  1  0.558318  0  0.301598  0.372201  0  0.922459  0
H  H130  1  0.17914584  0.50456331  0.08759425  1  0.636012  0  0.268259  0.369854  0  0.985301  0
H  H131  1  0.82084767  0.50457024  0.41240412  1  0.636407  0  0.268235  0.369877  0  0.985277  0
H  H132  1  0.82084498  0.49542601  0.91239845  1  0.636561  0  0.268162  0.369774  0  0.985424  0
H  H133  1  0.17915699  0.49542697  0.58759582  1  0.636536  0  0.268174  0.369853  0  0.985302  0
C  C134  1  0.75460176  0.14680510  0.97622002  1  0.454917  0  0.040274  0.085085  0  3.975508  0
C  C135  1  0.24538740  0.14680878  0.52377926  1  0.456317  0  0.040272  0.085159  0  3.975364  0
C  C136  1  0.24539081  0.85319106  0.02377964  1  0.456471  0  0.04034  0.085247  0  3.975118  0
C  C137  1  0.75460257  0.85319527  0.47621887  1  0.454722  0  0.040287  0.085037  0  3.975448  0
C  C138  1  0.83068725  0.18335889  0.94376024  1  -0.025073  0  -0.086009  -0.183114  0  3.945588  0
C  C139  1  0.16930381  0.18335877  0.55624099  1  -0.025056  0  -0.085958  -0.182938  0  3.945443  0
C  C140  1  0.16929927  0.81664201  0.05623904  1  -0.02512  0  -0.085889  -0.182757  0  3.945371  0
C  C141  1  0.83068703  0.81664370  0.44375947  1  -0.024621  0  -0.086006  -0.183094  0  3.945595  0
C  C142  1  0.92231942  0.14724668  0.92093904  1  0.006079  0  0.007861  0.157057  0  4.015756  0
C  C143  1  0.07766885  0.14724643  0.57905653  1  0.005995  0  0.007747  0.156833  0  4.015787  0
C  C144  1  0.07766621  0.85275579  0.07905517  1  0.006032  0  0.007745  0.156667  0  4.015793  0
C  C145  1  0.92232025  0.85275710  0.42094063  1  0.005783  0  0.007824  0.156938  0  4.015817  0
C  C146  1  0.93150784  0.07455544  0.93330972  1  -0.04481  0  -0.085  -0.184751  0  3.91627  0
C  C147  1  0.06848358  0.07455305  0.56668875  1  -0.044613  0  -0.084838  -0.184542  0  3.916198  0
C  C148  1  0.06848904  0.92544914  0.06668609  1  -0.044606  0  -0.084864  -0.184384  0  3.916152  0
C  C149  1  0.93150639  0.92544889  0.43330938  1  -0.044831  0  -0.08494  -0.184581  0  3.916074  0
C  C150  1  0.85074475  0.04181903  0.96567132  1  0.441831  0  0.046343  0.095764  0  3.963659  0
C  C151  1  0.14924823  0.04182045  0.53432541  1  0.442125  0  0.046281  0.095606  0  3.963671  0
C  C152  1  0.14926163  0.95818134  0.03432599  1  0.441028  0  0.0463  0.095535  0  3.963988  0
C  C153  1  0.85074346  0.95818413  0.46567145  1  0.441815  0  0.046345  0.095742  0  3.963575  0
C  C154  1  0.00550889  0.18008434  0.88526792  1  -0.023473  0  -0.087535  -0.142132  0  3.960096  0
C  C155  1  0.99448128  0.18008194  0.61473143  1  -0.023511  0  -0.087561  -0.142093  0  3.960126  0
C  C156  1  0.99447329  0.81991865  0.11472790  1  -0.02398  0  -0.087604  -0.142119  0  3.96013  0
C  C157  1  0.00551042  0.81992001  0.38526863  1  -0.023731  0  -0.087547  -0.142078  0  3.960141  0
C  C158  1  0.00347876  0.24781589  0.86627218  1  -0.097259  0  -0.073374  -0.096777  0  3.954005  0
C  C159  1  0.99651085  0.24781350  0.63372534  1  -0.096819  0  -0.073322  -0.096776  0  3.953979  0
C  C160  1  0.99649821  0.75218763  0.13371922  1  -0.096827  0  -0.0733  -0.096796  0  3.953912  0
C  C161  1  0.00348432  0.75218739  0.36627675  1  -0.096704  0  -0.073366  -0.096775  0  3.95383  0
C  C162  1  0.08435530  0.28028764  0.82864777  1  0.050156  0  -0.006714  0.111316  0  4.038824  0
C  C163  1  0.91563186  0.28028987  0.67134733  1  0.049864  0  -0.006685  0.111284  0  4.038895  0
C  C164  1  0.91562081  0.71971273  0.17134266  1  0.050097  0  -0.006745  0.111269  0  4.038854  0
C  C165  1  0.08436937  0.71971208  0.32865514  1  0.049709  0  -0.006736  0.111195  0  4.038843  0
C  C166  1  0.08642607  0.35425908  0.82372933  1  -0.052318  0  -0.079951  -0.116681  0  3.936645  0
C  C167  1  0.91356748  0.35426025  0.67626802  1  -0.052136  0  -0.079923  -0.116689  0  3.936707  0
C  C168  1  0.91355610  0.64574392  0.17626421  1  -0.05273  0  -0.079973  -0.11682  0  3.936637  0
C  C169  1  0.08643287  0.64574327  0.32373485  1  -0.052623  0  -0.07996  -0.116695  0  3.936618  0
C  C170  1  0.16103987  0.38722963  0.78746177  1  -0.061113  0  -0.09513  -0.086122  0  4.063607  0
C  C171  1  0.83894864  0.38722912  0.71253300  1  -0.06112  0  -0.095062  -0.08603  0  4.06365  0
C  C172  1  0.83893884  0.61277285  0.21253019  1  -0.060391  0  -0.094959  -0.085823  0  4.063449  0
C  C173  1  0.16105778  0.61277336  0.28747253  1  -0.060499  0  -0.094932  -0.085938  0  4.063409  0
C  C174  1  0.23391046  0.34727950  0.75505388  1  -0.038299  0  -0.08693  -0.13039  0  3.961597  0
C  C175  1  0.76608133  0.34727942  0.74494245  1  -0.038463  0  -0.087127  -0.130661  0  3.961601  0
C  C176  1  0.76607518  0.65272350  0.24494307  1  -0.039064  0  -0.087141  -0.130705  0  3.961591  0
C  C177  1  0.23392595  0.65272253  0.25506268  1  -0.038884  0  -0.087162  -0.130591  0  3.961584  0
C  C178  1  0.23358770  0.27315705  0.75882589  1  -0.062793  0  -0.014618  0.099698  0  4.066275  0
C  C179  1  0.76640635  0.27315644  0.74117100  1  -0.062006  0  -0.014496  0.099971  0  4.065831  0
C  C180  1  0.76639794  0.72684700  0.24116877  1  -0.025779  0  -0.014471  0.099981  0  4.065851  0
C  C181  1  0.23360007  0.72684656  0.25883544  1  -0.008755  0  -0.014496  0.09987  0  4.066042  0
C  C182  1  0.15904093  0.24087790  0.79627735  1  -0.009181  0  -0.078114  -0.155519  0  3.864129  0
C  C183  1  0.84095556  0.24087791  0.70371967  1  -0.009105  0  -0.078138  -0.155591  0  3.864204  0
C  C184  1  0.84094729  0.75912405  0.20371701  1  -0.045921  0  -0.078114  -0.155539  0  3.864131  0
C  C185  1  0.15905172  0.75912351  0.29628454  1  -0.063033  0  -0.078065  -0.155387  0  3.863995  0
C  C186  1  0.30921911  0.23290175  0.72334218  1  -0.096369  0  -0.079103  -0.10941  0  3.978258  0
C  C187  1  0.69077735  0.23290366  0.77665758  1  -0.097289  0  -0.079099  -0.109512  0  3.978282  0
C  C188  1  0.69077519  0.76710019  0.27665758  1  -0.096929  0  -0.079186  -0.109634  0  3.978307  0
C  C189  1  0.30922474  0.76709934  0.22334723  1  -0.096817  0  -0.07906  -0.109461  0  3.978323  0
C  C190  1  0.30680940  0.16238990  0.71502109  1  0.016435  0  -0.089355  -0.139898  0  3.987863  0
C  C191  1  0.69318933  0.16239129  0.78497696  1  0.016617  0  -0.089383  -0.139905  0  3.98782  0
C  C192  1  0.69319008  0.83761310  0.28497717  1  0.016123  0  -0.089299  -0.139745  0  3.987562  0
C  C193  1  0.30681104  0.83761119  0.21502683  1  0.016349  0  -0.089332  -0.139862  0  3.987702  0
C  C194  1  0.38289888  0.12216406  0.68018234  1  -0.055632  0  0.007356  0.149669  0  4.03404  0
C  C195  1  0.61710139  0.12216376  0.81981624  1  -0.056492  0  0.007402  0.149733  0  4.034063  0
C  C196  1  0.61709887  0.87783946  0.31981764  1  -0.056523  0  0.007356  0.149678  0  4.034097  0
C  C197  1  0.38290068  0.87783713  0.18018263  1  -0.055656  0  0.007342  0.149684  0  4.034201  0
C  C198  1  0.35972745  0.05045725  0.66858123  1  -0.008201  0  -0.081098  -0.176551  0  3.919863  0
C  C199  1  0.64028288  0.05045910  0.83142205  1  -0.007873  0  -0.081122  -0.176553  0  3.919814  0
C  C200  1  0.64027895  0.94954575  0.33141882  1  -0.00761  0  -0.081061  -0.176522  0  3.919694  0
C  C201  1  0.35972266  0.94954179  0.16858114  1  -0.008231  0  -0.081167  -0.176643  0  3.919784  0
C  C202  1  0.43040704  0.01154947  0.63442437  1  0.483228  0  0.048796  0.103182  0  3.970521  0
C  C203  1  0.56960571  0.01154964  0.86558041  1  0.483544  0  0.048741  0.103145  0  3.970401  0
C  C204  1  0.56959676  0.98845353  0.36557552  1  0.482992  0  0.048804  0.103206  0  3.970352  0
C  C205  1  0.43040156  0.98845020  0.13442197  1  0.483325  0  0.048785  0.103261  0  3.970466  0
C  C206  1  0.54794582  0.10763446  0.62399361  1  0.428998  0  0.044112  0.096678  0  3.963299  0
C  C207  1  0.45206218  0.10763286  0.87601000  1  0.428823  0  0.044108  0.096766  0  3.963388  0
C  C208  1  0.45205538  0.89237275  0.37600429  1  0.429208  0  0.044242  0.09691  0  3.963193  0
C  C209  1  0.54794163  0.89236909  0.12399309  1  0.429267  0  0.044162  0.096779  0  3.963253  0
C  C210  1  0.48109881  0.15027964  0.65701652  1  0.010317  0  -0.084433  -0.177689  0  3.936053  0
C  C211  1  0.51890506  0.15027814  0.84298457  1  0.010208  0  -0.084468  -0.177615  0  3.936102  0
C  C212  1  0.51889979  0.84972599  0.34297894  1  0.010474  0  -0.084517  -0.177779  0  3.936336  0
C  C213  1  0.48109962  0.84972486  0.15701903  1  0.010463  0  -0.084509  -0.177788  0  3.936384  0
C  C214  1  0.11686131  0.63613448  0.93844121  1  0.463418  0  0.043084  0.092018  0  3.977528  0
C  C215  1  0.88314220  0.63613766  0.56156189  1  0.463811  0  0.043031  0.091919  0  3.977373  0
C  C216  1  0.88313212  0.36386062  0.06155804  1  0.463399  0  0.042964  0.091842  0  3.977452  0
C  C217  1  0.11686333  0.36386481  0.43843856  1  0.463484  0  0.043159  0.092115  0  3.977175  0
C  C218  1  0.18569622  0.67521073  0.90349858  1  -0.079175  0  -0.084063  -0.181932  0  3.922466  0
C  C219  1  0.81430488  0.67521381  0.59650394  1  -0.079579  0  -0.084097  -0.181948  0  3.922409  0
C  C220  1  0.81429722  0.32478595  0.09650296  1  -0.079191  0  -0.083996  -0.18175  0  3.922267  0
C  C221  1  0.18570151  0.32479076  0.40349565  1  -0.079107  0  -0.084119  -0.18208  0  3.922408  0
C  C222  1  0.26266681  0.64049393  0.86834456  1  -0.005258  0  0.009853  0.161503  0  4.029494  0
C  C223  1  0.73733846  0.64049742  0.63166003  1  -0.005167  0  0.009886  0.161578  0  4.029683  0
C  C224  1  0.73733355  0.35950644  0.13165832  1  -0.005209  0  0.009893  0.161471  0  4.029563  0
C  C225  1  0.26266967  0.35950716  0.36834013  1  -0.005192  0  0.009908  0.161598  0  4.029539  0
C  C226  1  0.26573844  0.56643041  0.87246880  1  -0.03066  0  -0.087132  -0.188434  0  3.947867  0
C  C227  1  0.73426910  0.56643495  0.62753772  1  -0.031127  0  -0.087194  -0.188591  0  3.94801  0
C  C228  1  0.73426192  0.43356785  0.12753270  1  -0.031165  0  -0.087252  -0.188542  0  3.948085  0
C  C229  1  0.26573990  0.43356910  0.37246432  1  -0.031224  0  -0.087235  -0.188513  0  3.947883  0
C  C230  1  0.19491852  0.53133939  0.90914188  1  0.509617  0  0.040337  0.086838  0  3.989286  0
C  C231  1  0.80508452  0.53134192  0.59086023  1  0.509785  0  0.040357  0.086939  0  3.989169  0
C  C232  1  0.80508270  0.46865677  0.09085922  1  0.509784  0  0.040277  0.086753  0  3.989342  0
C  C233  1  0.19491928  0.46866107  0.40913692  1  0.509642  0  0.040427  0.086951  0  3.989291  0
C  C234  1  0.33756206  0.67596432  0.82966394  1  -0.037594  0  -0.095855  -0.157953  0  3.991699  0
C  C235  1  0.66244771  0.67596666  0.67034459  1  -0.037757  0  -0.095786  -0.157883  0  3.991803  0
C  C236  1  0.66243052  0.32403447  0.17033892  1  -0.037688  0  -0.09584  -0.157918  0  3.991875  0
C  C237  1  0.33756735  0.32403318  0.32965964  1  -0.037876  0  -0.09582  -0.157978  0  3.991952  0
C  C238  1  0.34347429  0.74620941  0.82005401  1  -0.069341  0  -0.067323  -0.085159  0  3.93852  0
C  C239  1  0.65652801  0.74621121  0.67995043  1  -0.069545  0  -0.067333  -0.085244  0  3.938739  0
C  C240  1  0.65652001  0.25379096  0.17994484  1  -0.069725  0  -0.067372  -0.085257  0  3.938666  0
C  C241  1  0.34347494  0.25379021  0.32005214  1  -0.0695  0  -0.067366  -0.085194  0  3.938671  0
C  C242  1  0.50000157  0.74546236  0.75000019  1  0.065209  0  -0.076724  -0.153736  0  3.879052  0
C  C243  1  0.50000051  0.25453538  0.25000050  1  0.06501  0  -0.076771  -0.153748  0  3.879098  0
C  C244  1  0.42278338  0.78159930  0.78334422  1  0.025303  0  -0.01118  0.099765  0  4.04427  0
C  C245  1  0.57721648  0.78159941  0.71665826  1  0.024991  0  -0.011149  0.099934  0  4.044447  0
C  C246  1  0.57721610  0.21839685  0.21665541  1  0.025461  0  -0.011257  0.099801  0  4.044308  0
C  C247  1  0.42278041  0.21839780  0.28334166  1  0.025336  0  -0.01126  0.099755  0  4.044424  0
C  C248  1  0.42332816  0.85591223  0.78274168  1  -0.125121  0  -0.080942  -0.112837  0  3.904155  0
C  C249  1  0.57666425  0.85591129  0.71725673  1  -0.125075  0  -0.081013  -0.112998  0  3.904342  0
C  C250  1  0.57666006  0.14408235  0.21724995  1  -0.125586  0  -0.080898  -0.112825  0  3.904143  0
C  C251  1  0.42332572  0.14408540  0.28274094  1  -0.125099  0  -0.080891  -0.112877  0  3.904053  0
C  C252  1  0.49999499  0.89222713  0.74999891  1  -0.036098  0  -0.097425  -0.08763  0  4.054706  0
C  C253  1  0.49998718  0.10776850  0.24999418  1  -0.035707  0  -0.097424  -0.087643  0  4.05454  0
C  C254  1  0.21097733  0.39817229  0.03513097  1  1.587281  0  0.20168  0.571423  0  4.227047  0
C  C255  1  0.78901744  0.39818077  0.46487155  1  1.58726  0  0.201718  0.571453  0  4.22681  0
C  C256  1  0.78902992  0.60181965  0.96486594  1  1.58754  0  0.201691  0.571489  0  4.226934  0
C  C257  1  0.21097775  0.60182538  0.53513558  1  1.587298  0  0.201683  0.57149  0  4.226739  0
C  C258  1  0.26744666  0.32760840  0.03192115  1  -0.095803  0  -0.020273  -0.029645  0  3.972809  0
C  C259  1  0.73255556  0.32761520  0.46808178  1  -0.096093  0  -0.020307  -0.02953  0  3.972763  0
C  C260  1  0.73256665  0.67238460  0.96807841  1  -0.096  0  -0.020345  -0.029578  0  3.972563  0
C  C261  1  0.26744481  0.67238990  0.53192429  1  -0.095741  0  -0.020234  -0.029704  0  3.972898  0
C  C262  1  0.20879209  0.27353488  0.99765355  1  0.003151  0  -0.092631  -0.100108  0  3.994636  0
C  C263  1  0.79120890  0.27354103  0.50235107  1  0.003547  0  -0.092765  -0.100351  0  3.994354  0
C  C264  1  0.79122123  0.72645601  0.00234830  1  0.00331  0  -0.092684  -0.100095  0  3.994265  0
C  C265  1  0.20878974  0.72646039  0.49765398  1  0.002812  0  -0.092767  -0.100223  0  3.994481  0
C  C266  1  0.25744240  0.20692622  0.99626936  1  -0.094544  0  -0.092654  -0.105125  0  3.988237  0
C  C267  1  0.74255484  0.20693229  0.50373592  1  -0.093807  0  -0.092537  -0.104879  0  3.987841  0
C  C268  1  0.74257008  0.79306678  0.00373746  1  -0.094339  0  -0.0926  -0.105222  0  3.987905  0
C  C269  1  0.25744121  0.79307071  0.49626943  1  -0.094038  0  -0.092551  -0.105025  0  3.98811  0
C  C270  1  0.36745389  0.19454050  0.02762689  1  0.0331  0  -0.022027  -0.032807  0  3.984893  0
C  C271  1  0.63254601  0.19454556  0.47238133  1  0.032573  0  -0.021938  -0.032719  0  3.984789  0
C  C272  1  0.63256377  0.80545303  0.97237978  1  0.033053  0  -0.021852  -0.032544  0  3.984802  0
C  C273  1  0.36745177  0.80545638  0.52762596  1  0.032708  0  -0.022073  -0.032925  0  3.984878  0
C  C274  1  0.42742042  0.24895364  0.06066282  1  -0.054132  0  -0.09135  -0.097253  0  3.981376  0
C  C275  1  0.57258145  0.24895806  0.43934372  1  -0.054222  0  -0.091273  -0.097075  0  3.981559  0
C  C276  1  0.57259377  0.75104252  0.93934182  1  -0.054515  0  -0.091384  -0.097363  0  3.981653  0
C  C277  1  0.42742151  0.75104441  0.56066068  1  -0.054061  0  -0.091282  -0.097102  0  3.981351  0
C  C278  1  0.37696121  0.31491563  0.06373165  1  -0.0437  0  -0.088405  -0.097063  0  3.985511  0
C  C279  1  0.62303491  0.31492014  0.43627411  1  -0.043943  0  -0.088376  -0.097234  0  3.985787  0
C  C280  1  0.62304262  0.68507947  0.93627555  1  -0.043488  0  -0.088333  -0.097147  0  3.985775  0
C  C281  1  0.37696201  0.68508339  0.56373312  1  -0.043773  0  -0.088428  -0.09712  0  3.985619  0
C  C282  1  0.42094465  0.12321628  0.02579888  1  1.542906  0  0.203988  0.570774  0  4.245215  0
C  C283  1  0.57905924  0.12322178  0.47420864  1  1.543012  0  0.203917  0.570698  0  4.245553  0
C  C284  1  0.57907732  0.87677935  0.97420532  1  1.542651  0  0.203913  0.57081  0  4.245051  0
C  C285  1  0.42094026  0.87678332  0.52579601  1  1.543129  0  0.203975  0.570801  0  4.245188  0
C  C286  1  0.82149908  0.03030615  0.14611261  1  1.540381  0  0.183849  0.545386  0  4.251722  0
C  C287  1  0.17849744  0.03030251  0.35388529  1  1.540734  0  0.183723  0.545442  0  4.251622  0
C  C288  1  0.17850732  0.96969580  0.85388653  1  1.540817  0  0.18383  0.54532  0  4.251795  0
C  C289  1  0.82150895  0.96969260  0.64611202  1  1.540227  0  0.183715  0.545335  0  4.251728  0
C  C290  1  0.91396415  0.03194264  0.19963467  1  -0.060821  0  -0.019682  -0.023963  0  3.982589  0
C  C291  1  0.08603668  0.03194250  0.30036212  1  -0.060878  0  -0.019778  -0.024096  0  3.982823  0
C  C292  1  0.08604482  0.96805510  0.80036143  1  -0.05977  0  -0.019728  -0.023929  0  3.982645  0
C  C293  1  0.91396970  0.96805418  0.69963473  1  -0.060676  0  -0.019696  -0.023937  0  3.982469  0
C  C294  1  0.95797046  0.96834403  0.22480845  1  -0.016246  0  -0.094264  -0.108882  0  4.013471  0
C  C295  1  0.04203035  0.96834538  0.27518737  1  -0.0743  0  -0.094292  -0.108977  0  4.013632  0
C  C296  1  0.04203678  0.03165266  0.77518709  1  -0.017484  0  -0.09431  -0.109017  0  4.013625  0
C  C297  1  0.95797690  0.03165183  0.72480954  1  -0.073872  0  -0.094334  -0.108896  0  4.013636  0
C  C298  1  0.95659612  0.09575109  0.22524757  1  0.013033  0  -0.084476  -0.095737  0  3.976009  0
C  C299  1  0.04340761  0.09574877  0.27474943  1  -0.049124  0  -0.084513  -0.095954  0  3.976196  0
C  C300  1  0.04341373  0.90424822  0.77475178  1  0.012884  0  -0.084596  -0.096106  0  3.97606  0
C  C301  1  0.95660395  0.90424581  0.72524500  1  -0.049273  0  -0.084459  -0.095817  0  3.975922  0
N  N302  1  0.76340704  0.07702727  0.98681896  1  -1.252949  0  -0.331652  -0.238924  0  3.506041  0
N  N303  1  0.23658525  0.07703040  0.51318094  1  -1.253975  0  -0.331675  -0.238981  0  3.506117  0
N  N304  1  0.23659589  0.92296889  0.01318042  1  -1.252907  0  -0.331677  -0.238966  0  3.506177  0
N  N305  1  0.76340818  0.92297365  0.48681832  1  -1.252877  0  -0.331656  -0.238929  0  3.505964  0
N  N306  1  0.52311664  0.03929830  0.61213914  1  -1.242978  0  -0.330844  -0.253854  0  3.503436  0
N  N307  1  0.47690058  0.03929938  0.88786912  1  -1.242922  0  -0.330749  -0.253908  0  3.50351  0
N  N308  1  0.47688630  0.96070733  0.38786070  1  -1.243038  0  -0.331016  -0.254153  0  3.503517  0
N  N309  1  0.52310843  0.96070414  0.11213428  1  -1.243159  0  -0.330809  -0.253913  0  3.503472  0
N  N310  1  0.12043383  0.56521906  0.94141232  1  -1.203934  0  -0.335455  -0.258007  0  3.503533  0
N  N311  1  0.87956676  0.56522170  0.55858875  1  -1.203868  0  -0.335423  -0.257998  0  3.503673  0
N  N312  1  0.87955958  0.43477605  0.05858328  1  -1.203842  0  -0.335337  -0.257893  0  3.503733  0
N  N313  1  0.12043618  0.43478130  0.44141063  1  -1.203777  0  -0.335499  -0.258127  0  3.503651  0
O  O314  1  0.11559345  0.54061134  0.09491070  1  -1.202641  0  -0.596548  -0.763954  0  1.990146  0
O  O315  1  0.88439935  0.54061731  0.40508673  1  -1.202966  0  -0.596464  -0.763885  0  1.990085  0
O  O316  1  0.88438872  0.45937272  0.90508284  1  -1.202998  0  -0.596475  -0.763834  0  1.990254  0
O  O317  1  0.11561049  0.45937411  0.59490988  1  -1.203341  0  -0.596485  -0.76387  0  1.990171  0
O  O318  1  0.25740248  0.44309379  0.07312299  1  -1.187612  0  -0.336475  -0.561815  0  2.147915  0
O  O319  1  0.74259076  0.44309954  0.42687899  1  -1.187702  0  -0.336486  -0.561803  0  2.147702  0
O  O320  1  0.74260474  0.55690552  0.92686798  1  -1.187924  0  -0.336505  -0.561879  0  2.147864  0
O  O321  1  0.25739926  0.55690608  0.57313056  1  -1.187822  0  -0.336434  -0.561795  0  2.147813  0
O  O322  1  0.11754605  0.40662857  0.99845099  1  -1.181017  0  -0.343273  -0.579794  0  2.300417  0
O  O323  1  0.88245468  0.40663961  0.50154911  1  -1.180943  0  -0.34328  -0.579869  0  2.300446  0
O  O324  1  0.88246034  0.59335549  0.00154586  1  -1.180842  0  -0.343187  -0.579736  0  2.300526  0
O  O325  1  0.11754483  0.59336550  0.49845645  1  -1.180856  0  -0.343305  -0.579854  0  2.300382  0
O  O326  1  0.35379919  0.07170656  0.01090748  1  -1.191235  0  -0.336956  -0.585881  0  2.358403  0
O  O327  1  0.64620446  0.07171165  0.48909681  1  -1.191287  0  -0.336907  -0.585802  0  2.358561  0
O  O328  1  0.64622538  0.92828697  0.98909734  1  -1.191326  0  -0.336933  -0.585915  0  2.358381  0
O  O329  1  0.35379331  0.92829029  0.51090545  1  -1.191301  0  -0.336877  -0.585787  0  2.358435  0
O  O330  1  0.53011323  0.11989465  0.04008035  1  -1.165209  0  -0.327  -0.551478  0  2.324151  0
O  O331  1  0.46988719  0.11989943  0.45992650  1  -1.165274  0  -0.327027  -0.551567  0  2.324227  0
O  O332  1  0.46990441  0.88010046  0.95992176  1  -1.164845  0  -0.327057  -0.551572  0  2.32388  0
O  O333  1  0.53010800  0.88010620  0.54007925  1  -1.165203  0  -0.327127  -0.551632  0  2.324189  0
O  O334  1  0.80329524  0.97210338  0.11712357  1  -1.171535  0  -0.342566  -0.573722  0  2.17526  0
O  O335  1  0.19669869  0.97209978  0.38287503  1  -1.171984  0  -0.342509  -0.573725  0  2.175067  0
O  O336  1  0.19671287  0.02789962  0.88287202  1  -1.171951  0  -0.342506  -0.573659  0  2.175275  0
O  O337  1  0.80331114  0.02789427  0.61712021  1  -1.17147  0  -0.34237  -0.573561  0  2.17527  0
O  O338  1  0.76399977  0.08623350  0.13213629  1  -1.169244  0  -0.333482  -0.56009  0  2.200192  0
O  O339  1  0.23599785  0.08622839  0.36785896  1  -1.16908  0  -0.333349  -0.560043  0  2.200305  0
O  O340  1  0.23600662  0.91376897  0.86786148  1  -1.169313  0  -0.333494  -0.560065  0  2.200175  0
O  O341  1  0.76400421  0.91376462  0.63213854  1  -1.169143  0  -0.333483  -0.560134  0  2.200165  0
