# generated using pymatgen
data_CoH32C29(N2O3)2
_symmetry_space_group_name_H-M   'P 1'
_cell_length_a   8.13079534
_cell_length_b   12.47536558
_cell_length_c   14.06834138
_cell_angle_alpha   97.74613218
_cell_angle_beta   99.20156296
_cell_angle_gamma   95.88133527
_symmetry_Int_Tables_number   1
_chemical_formula_structural   CoH32C29(N2O3)2
_chemical_formula_sum   'Co2 H64 C58 N8 O12'
_cell_volume   1384.53460282
_cell_formula_units_Z   2
loop_
 _symmetry_equiv_pos_site_id
 _symmetry_equiv_pos_as_xyz
  1  'x, y, z'
loop_
 _atom_site_type_symbol
 _atom_site_label
 _atom_site_symmetry_multiplicity
 _atom_site_fract_x
 _atom_site_fract_y
 _atom_site_fract_z
 _atom_site_occupancy
 _atom_site_hle17_ddec_charge
 _atom_site_hle17_ddec_spin_density
 _atom_site_hle17_ddec_sum_bond_order
 _atom_site_hle17_magmom
 _atom_site_hse06_10hf_ddec_charge
 _atom_site_hse06_10hf_ddec_spin_density
 _atom_site_hse06_10hf_ddec_sum_bond_order
 _atom_site_hse06_10hf_magmom
 _atom_site_hse06_ddec_charge
 _atom_site_hse06_ddec_spin_density
 _atom_site_hse06_ddec_sum_bond_order
 _atom_site_hse06_magmom
 _atom_site_pbe_cm5_charge
 _atom_site_pbe_ddec_charge
 _atom_site_pbe_ddec_spin_density
 _atom_site_pbe_ddec_sum_bond_order
 _atom_site_pbe_magmom
Co  Co0  1  0.59524175  0.39912044  0.27617368  1  0.955809  2.818182  2.0142  2.532  0.899031  2.823231  2.465843  2.588  0.991846  2.869103  2.377554  2.678  0.670293  0.826159  2.779112  2.532064  2.505
Co  Co1  1  0.40475891  0.60087829  0.72382527  1  0.955781  2.81817  2.014237  2.532  0.899039  2.823229  2.46588  2.588  0.991827  2.869087  2.377573  2.678  0.670283  0.826144  2.779096  2.532107  2.505
H  H2  1  0.48286857  0.01634846  0.60806217  1  0.073927  2.7e-05  0.959014  0.0  0.090583  1.4e-05  1.023031  0.0  0.091483  9e-06  1.023549  0.0  0.092753  0.089776  1.8e-05  1.022859  0.0
H  H3  1  0.51713728  0.98365756  0.39194247  1  0.073906  2.6e-05  0.959056  0.0  0.090571  1.4e-05  1.023078  0.0  0.09147  9e-06  1.023594  0.0  0.092771  0.089768  1.9e-05  1.0229  0.0
H  H4  1  0.62995087  0.09463825  0.55660654  1  0.062606  1e-05  0.962048  0.0  0.080927  4e-06  1.025546  0.0  0.081158  3e-06  1.026702  0.0  0.088157  0.08067  6e-06  1.024826  0.0
H  H5  1  0.37004891  0.90536863  0.44339481  1  0.062647  1e-05  0.961955  0.0  0.080978  4e-06  1.025459  0.0  0.081208  3e-06  1.026612  0.0  0.088161  0.080719  6e-06  1.024745  0.0
H  H6  1  0.87201204  0.58311040  0.99618443  1  0.077187  2.6e-05  0.931388  0.0  0.098695  2.8e-05  0.984473  0.0  0.098665  1.4e-05  0.986185  0.0  0.096807  0.09869  4.5e-05  0.983318  0.0
H  H7  1  0.12798408  0.41688424  0.00381570  1  0.077159  2.6e-05  0.931358  0.0  0.098656  2.8e-05  0.984449  0.0  0.098629  1.5e-05  0.986162  0.0  0.096771  0.098653  4.5e-05  0.983289  0.0
H  H8  1  0.87202923  0.47565265  0.06657917  1  0.076632  -0.000102  0.938167  0.0  0.094675  -0.000115  1.000005  0.0  0.095211  -0.000113  1.000882  0.0  0.09481  0.094164  -0.000114  0.999518  0.0
H  H9  1  0.12797642  0.52434606  0.93342166  1  0.076601  -0.000101  0.93813  0.0  0.094647  -0.000115  0.999952  0.0  0.095184  -0.000113  1.000833  0.0  0.094789  0.094134  -0.000113  0.999466  0.0
H  H10  1  0.15437222  0.66598384  0.09118201  1  0.069563  -5.6e-05  0.967479  0.0  0.083302  -1.8e-05  1.036881  0.0  0.082266  -1.6e-05  1.040362  0.0  0.105915  0.083955  -2e-05  1.034564  0.0
H  H11  1  0.84562411  0.33401820  0.90881413  1  0.069476  -5.6e-05  0.967391  0.0  0.083199  -1.8e-05  1.036852  0.0  0.082165  -1.6e-05  1.040332  0.0  0.105875  0.083848  -2.1e-05  1.034543  0.0
H  H12  1  0.99683592  0.65274956  0.16498911  1  0.086169  0.000126  0.919277  0.0  0.101908  0.000154  0.978698  0.0  0.103301  9.7e-05  0.977285  0.0  0.111395  0.100729  0.000221  0.979893  0.0
H  H13  1  0.00316225  0.34724920  0.83500819  1  0.086109  0.000126  0.919268  0.0  0.101835  0.000154  0.978725  0.0  0.103228  9.7e-05  0.977312  0.0  0.111366  0.100654  0.000221  0.97992  0.0
H  H14  1  0.99464365  0.27182284  0.14265404  1  0.093361  0.000127  0.961554  0.0  0.101548  4.7e-05  1.027667  0.0  0.104433  -8e-06  1.026142  0.0  0.100686  0.09944  0.000104  1.028805  0.0
H  H15  1  0.00534986  0.72817755  0.85734305  1  0.09334  0.000127  0.961527  0.0  0.101513  4.7e-05  1.027695  0.0  0.1044  -8e-06  1.026159  0.0  0.100695  0.099408  0.000105  1.028834  0.0
H  H16  1  0.16688721  0.18292180  0.03340694  1  0.120458  -2.9e-05  0.963332  0.0  0.13109  -2.9e-05  1.023964  0.0  0.134775  -3.1e-05  1.021991  0.0  0.10751  0.128462  -2.4e-05  1.025486  0.0
H  H17  1  0.83310582  0.81707613  0.96659120  1  0.120377  -2.7e-05  0.96338  0.0  0.131041  -2.9e-05  1.02399  0.0  0.134727  -3.1e-05  1.022017  0.0  0.107509  0.128427  -2.3e-05  1.025494  0.0
H  H18  1  0.54421265  0.14151530  0.94030959  1  0.087593  -2.5e-05  0.98408  0.0  0.096631  -1.7e-05  1.050969  0.0  0.099591  -2e-05  1.048576  0.0  0.099617  0.094445  -1.3e-05  1.052781  0.0
H  H19  1  0.45577837  0.85848508  0.05968798  1  0.087693  -2.6e-05  0.98411  0.0  0.096722  -1.7e-05  1.050986  0.0  0.099682  -2e-05  1.048595  0.0  0.099657  0.094537  -1.3e-05  1.052797  0.0
H  H20  1  0.71557505  0.05182512  0.82616640  1  0.102265  3.9e-05  0.964581  0.0  0.112404  2e-05  1.027699  0.0  0.115764  8e-06  1.026333  0.0  0.099488  0.110073  3.4e-05  1.028758  0.0
H  H21  1  0.28441597  0.94817526  0.17383188  1  0.102223  4e-05  0.964551  0.0  0.112352  2e-05  1.027685  0.0  0.115713  8e-06  1.026318  0.0  0.099472  0.110022  3.4e-05  1.028744  0.0
H  H22  1  0.24951864  0.02021437  0.92672894  1  0.059652  -2.1e-05  0.930043  0.0  0.074138  -7e-06  0.994168  0.0  0.07308  -5e-06  0.996393  0.0  0.101195  0.074845  -1e-05  0.992661  0.0
H  H23  1  0.75047455  0.97978432  0.07327287  1  0.059671  -2.2e-05  0.930069  0.0  0.07416  -7e-06  0.994178  0.0  0.073102  -5e-06  0.996402  0.0  0.101207  0.074869  -1.2e-05  0.992671  0.0
H  H24  1  0.26875851  0.15832595  0.90489885  1  0.062907  -1.2e-05  0.927532  0.0  0.078159  -8e-06  0.988815  0.0  0.078836  -1.2e-05  0.987232  0.0  0.106991  0.077567  -2e-06  0.990077  0.0
H  H25  1  0.73123452  0.84167195  0.09510143  1  0.06289  -1.2e-05  0.927541  0.0  0.078123  -8e-06  0.988835  0.0  0.0788  -1.2e-05  0.987253  0.0  0.106958  0.077526  -2e-06  0.990104  0.0
H  H26  1  0.40834760  0.05125968  0.78864001  1  0.080366  0.0  0.938001  0.0  0.100566  -7e-06  0.995091  0.0  0.10028  -5e-06  0.996639  0.0  0.098413  0.10078  -1e-05  0.99403  0.0
H  H27  1  0.59165307  0.94873899  0.21136320  1  0.08036  0.0  0.937965  0.0  0.100543  -7e-06  0.995076  0.0  0.100256  -5e-06  0.996626  0.0  0.098396  0.100755  -9e-06  0.994012  0.0
H  H28  1  0.22966586  0.09922828  0.72758108  1  0.089478  -7e-06  0.934064  0.0  0.105088  -1e-06  0.99573  0.0  0.106205  -2e-06  0.995332  0.0  0.101048  0.104199  1e-06  0.996166  0.0
H  H29  1  0.77033151  0.90076637  0.27241846  1  0.089447  -6e-06  0.934059  0.0  0.105056  -1e-06  0.995722  0.0  0.106174  -2e-06  0.99532  0.0  0.101043  0.104166  -0.0  0.99616  0.0
H  H30  1  0.27858323  0.86567777  0.74908733  1  0.058904  -0.000288  0.942036  0.0  0.071678  -0.000242  1.007487  0.0  0.071048  -0.000229  1.008619  0.0  0.10096  0.072089  -0.000251  1.006764  0.0
H  H31  1  0.72141927  0.13431760  0.25091846  1  0.058877  -0.000287  0.941977  0.0  0.071639  -0.000242  1.007448  0.0  0.071008  -0.000229  1.00858  0.0  0.10094  0.072051  -0.000249  1.006725  0.0
H  H32  1  0.07226226  0.90438477  0.74392007  1  0.053083  1.2e-05  0.94217  0.0  0.063158  5e-06  1.013511  0.0  0.063524  3e-06  1.012967  0.0  0.10094  0.062855  7e-06  1.013968  0.0
H  H33  1  0.92773684  0.09561228  0.25608278  1  0.053105  1.2e-05  0.94214  0.0  0.063205  5e-06  1.013456  0.0  0.063572  3e-06  1.012912  0.0  0.100977  0.062901  8e-06  1.013914  0.0
H  H34  1  0.93307767  0.77593606  0.31947038  1  0.095319  1.1e-05  0.957114  0.0  0.103934  3.3e-05  1.020814  0.0  0.108115  9e-06  1.016645  0.0  0.101236  0.100909  6.2e-05  1.023801  0.0
H  H35  1  0.06693340  0.22405856  0.68053112  1  0.095318  1e-05  0.957298  0.0  0.103955  3.3e-05  1.020962  0.0  0.108134  9e-06  1.016799  0.0  0.101293  0.100929  6.4e-05  1.023948  0.0
H  H36  1  0.91388118  0.57733885  0.54440556  1  0.100877  0.000153  0.948078  0.0  0.111939  9.1e-05  1.008615  0.0  0.115106  2e-05  1.006306  0.0  0.107133  0.109581  0.00017  1.010341  0.0
H  H37  1  0.08612789  0.42265823  0.45559537  1  0.100867  0.000153  0.948174  0.0  0.111997  9.1e-05  1.008641  0.0  0.115166  2e-05  1.00633  0.0  0.107149  0.109643  0.000169  1.010361  0.0
H  H38  1  0.08104714  0.72659474  0.66720488  1  0.116106  -8.1e-05  0.969609  0.0  0.123941  1.4e-05  1.037124  0.0  0.127399  -4.9e-05  1.036  0.0  0.106886  0.121393  9.8e-05  1.038165  0.0
H  H39  1  0.91896068  0.27340237  0.33279380  1  0.116077  -8e-05  0.96973  0.0  0.123913  1.4e-05  1.037217  0.0  0.12737  -4.9e-05  1.036088  0.0  0.106877  0.121366  9.7e-05  1.03826  0.0
H  H40  1  0.36390674  0.18264394  0.19852141  1  0.117983  0.000167  0.973039  0.001  0.126518  0.000254  1.033311  0.001  0.12917  0.00018  1.032023  0.001  0.118402  0.124557  0.000326  1.03442  0.001
H  H41  1  0.63609268  0.81735468  0.80148594  1  0.117814  0.000167  0.972774  0.001  0.12634  0.000254  1.033093  0.001  0.128989  0.00018  1.031811  0.001  0.118349  0.124388  0.000326  1.034203  0.001
H  H42  1  0.24531459  0.08090307  0.50844781  1  0.071931  0.000132  0.952803  0.0  0.083174  0.000124  1.024385  0.0  0.084013  8.7e-05  1.024199  0.0  0.106813  0.082401  0.000163  1.024726  0.0
H  H43  1  0.75468157  0.91909803  0.49155672  1  0.071936  0.00013  0.952806  0.0  0.083181  0.000124  1.024393  0.0  0.08402  8.7e-05  1.024207  0.0  0.106816  0.082407  0.000163  1.024734  0.0
H  H44  1  0.38279593  0.19073232  0.57977551  1  0.077954  -7.6e-05  0.918218  0.0  0.097224  -3.2e-05  0.973546  0.0  0.097364  -2.7e-05  0.974327  0.0  0.114191  0.096938  -3.7e-05  0.973181  0.0
H  H45  1  0.61720305  0.80927044  0.42022736  1  0.078006  -7.7e-05  0.918214  0.0  0.097253  -3.2e-05  0.973568  0.0  0.097393  -2.8e-05  0.97435  0.0  0.114213  0.096967  -3.6e-05  0.973203  0.0
H  H46  1  0.09403309  0.93007847  0.44221973  1  0.103251  3.5e-05  0.9623  0.0  0.113622  3.7e-05  1.025039  0.0  0.117402  2.3e-05  1.022626  0.0  0.101087  0.110968  5.3e-05  1.026882  0.0
H  H47  1  0.90597223  0.06991862  0.55778014  1  0.103207  3.5e-05  0.962301  0.0  0.113614  3.7e-05  1.024997  0.0  0.117394  2.3e-05  1.022585  0.0  0.101095  0.11096  5.2e-05  1.02684  0.0
H  H48  1  0.24850147  0.37753953  0.33542894  1  0.097109  3e-06  0.990987  0.0  0.106092  0.000212  1.052225  0.0  0.107438  0.000143  1.053288  0.0  0.11403  0.105114  0.000278  1.051636  0.001
H  H49  1  0.75150764  0.62246412  0.66457000  1  0.097064  2e-06  0.991165  0.0  0.106021  0.000212  1.052421  0.0  0.107367  0.000143  1.053488  0.0  0.113947  0.105068  0.000278  1.0518  0.001
H  H50  1  0.68211603  0.29201480  0.55968254  1  0.125053  -0.000447  0.952534  0.0  0.143914  -9.8e-05  1.014963  0.0  0.145804  -6.2e-05  1.015557  0.0  0.094474  0.142431  -0.000151  1.014721  0.0
H  H51  1  0.31788267  0.70799285  0.44032166  1  0.125062  -0.000446  0.952525  0.0  0.143915  -9.8e-05  1.014966  0.0  0.145804  -6.2e-05  1.01556  0.0  0.094471  0.142429  -0.000152  1.014726  0.0
H  H52  1  0.50982348  0.36901652  0.56204805  1  0.13405  -0.000642  0.936382  0.0  0.153006  -0.00031  0.996936  0.0  0.155398  -0.000271  0.9962  0.0  0.098866  0.151131  -0.000352  0.9976  0.0
H  H53  1  0.49017132  0.63099033  0.43795497  1  0.133981  -0.000641  0.936331  0.0  0.152951  -0.00031  0.996883  0.0  0.155341  -0.000271  0.996148  0.0  0.098856  0.151076  -0.000352  0.997547  0.0
H  H54  1  0.66761310  0.40265446  0.49275892  1  0.154428  -0.000404  0.969943  0.0  0.173106  -0.000277  1.029393  0.0  0.176223  -0.000293  1.027926  0.0  0.105529  0.170656  -0.000232  1.030582  0.0
H  H55  1  0.33238122  0.59734999  0.50724019  1  0.154467  -0.000404  0.969889  0.0  0.173141  -0.000277  1.029344  0.0  0.176258  -0.000293  1.027877  0.0  0.105536  0.170687  -0.000232  1.030539  0.0
H  H56  1  0.98393214  0.47983251  0.25331707  1  0.129889  -0.000101  0.980455  0.0  0.138652  -0.00014  1.041202  0.0  0.141746  -0.000194  1.039358  0.0  0.124926  0.136196  -7e-05  1.042918  0.0
H  H57  1  0.01606933  0.52017032  0.74668178  1  0.129928  -0.000101  0.980686  0.0  0.138646  -0.000141  1.041463  0.0  0.141759  -0.000194  1.039593  0.0  0.124929  0.136193  -7e-05  1.043172  0.0
H  H58  1  0.22683248  0.05303127  0.32164464  1  0.114647  0.000227  0.952009  0.0  0.125918  0.000265  1.010926  0.0  0.129223  0.000191  1.008352  0.0  0.122638  0.123426  0.000343  1.013043  0.0
H  H59  1  0.77317353  0.94697557  0.67835941  1  0.114593  0.000227  0.951724  0.0  0.125907  0.000265  1.010637  0.0  0.129213  0.000191  1.008063  0.0  0.122645  0.123417  0.000344  1.012752  0.0
H  H60  1  0.55892132  0.54004102  0.11758590  1  0.147446  -0.000171  0.94287  0.0  0.166812  7.6e-05  1.001029  0.0  0.169167  3.6e-05  0.999339  0.0  0.107763  0.164942  0.000123  1.002504  0.0
H  H61  1  0.44108108  0.45996023  0.88240856  1  0.147467  -0.000172  0.942887  0.0  0.166821  7.6e-05  1.001068  0.0  0.169176  3.6e-05  0.999377  0.0  0.107772  0.16495  0.000123  1.002542  0.0
H  H62  1  0.49008722  0.66796510  0.14646868  1  0.129675  -5.7e-05  0.924699  0.0  0.152042  0.000106  0.980149  0.0  0.154588  8.2e-05  0.978692  0.0  0.098731  0.150155  0.000137  0.981282  0.0
H  H63  1  0.50991799  0.33203779  0.85352554  1  0.12972  -5.8e-05  0.924608  0.0  0.152072  0.000106  0.980081  0.0  0.154609  8.2e-05  0.978633  0.0  0.098719  0.150185  0.000137  0.981215  0.0
H  H64  1  0.38100013  0.57688941  0.04256932  1  0.123667  -0.00023  0.958073  0.0  0.142793  -4.5e-05  1.02114  0.0  0.144443  -3.3e-05  1.021251  0.0  0.098275  0.141579  -5.5e-05  1.021111  0.0
H  H65  1  0.61900275  0.42311429  0.95742550  1  0.123578  -0.000233  0.958041  0.0  0.142706  -4.5e-05  1.02112  0.0  0.144355  -3.3e-05  1.021232  0.0  0.098251  0.141492  -5.5e-05  1.021089  0.0
C  C66  1  0.50405308  0.04750068  0.54106152  1  -0.130729  -0.000216  3.679827  0.0  -0.173808  -3.4e-05  3.940743  0.0  -0.174889  -2.9e-05  3.953524  0.0  -0.168241  -0.172839  -4.3e-05  3.93189  0.0
C  C67  1  0.49594903  0.95250535  0.45894136  1  -0.130722  -0.000214  3.679686  0.0  -0.17386  -3.4e-05  3.940675  0.0  -0.17493  -2.9e-05  3.953442  0.0  -0.168248  -0.172892  -4.5e-05  3.931818  0.0
C  C68  1  0.95365520  0.53204486  0.03513147  1  -0.126952  9.6e-05  3.674126  0.0  -0.168712  0.000159  3.936804  0.0  -0.170132  9.9e-05  3.950764  0.0  -0.163275  -0.167578  0.000232  3.927196  0.0
C  C69  1  0.04634471  0.46795629  0.96486986  1  -0.126921  9.7e-05  3.673997  0.0  -0.168625  0.000159  3.936653  0.0  -0.170052  9.9e-05  3.950611  0.0  -0.163203  -0.16749  0.000231  3.927039  0.0
C  C70  1  0.07097204  0.60737859  0.11861170  1  -0.000449  0.000673  3.630743  0.001  -0.062131  0.000587  3.887268  0.001  -0.057892  0.000413  3.898881  0.0  -0.05501  -0.064837  0.000771  3.879385  0.001
C  C71  1  0.92902818  0.39262423  0.88138703  1  -0.000202  0.000673  3.630528  0.001  -0.06188  0.000587  3.887048  0.001  -0.057639  0.000412  3.898666  0.0  -0.054937  -0.064579  0.000772  3.879155  0.001
C  C72  1  0.65034454  0.26989904  0.11011726  1  0.618553  -0.006308  3.953089  -0.005  0.577366  0.000726  4.251965  0.0  0.613934  0.000561  4.246469  0.001  0.19295  0.551257  0.000769  4.254941  0.0
C  C73  1  0.34965380  0.73010051  0.88988158  1  0.618482  -0.006302  3.953241  -0.005  0.57728  0.000727  4.252111  0.0  0.613849  0.000562  4.246619  0.001  0.192934  0.551169  0.000768  4.255085  0.0
C  C74  1  0.75777684  0.21331500  0.04775739  1  -0.112448  0.003118  3.801121  0.005  -0.09147  0.001214  4.035711  0.002  -0.101683  0.000681  4.057816  0.001  -0.038707  -0.085199  0.00174  4.021741  0.003
C  C75  1  0.24221526  0.78668455  0.95224159  1  -0.112463  0.003112  3.80105  0.005  -0.091383  0.001214  4.035502  0.002  -0.101604  0.000679  4.057624  0.001  -0.038651  -0.085095  0.001742  4.021516  0.003
C  C76  1  0.93310379  0.22288214  0.07360658  1  -0.031116  -0.001772  3.73333  -0.001  -0.052317  0.000104  3.980554  0.0  -0.047297  8.9e-05  3.997352  0.0  -0.081217  -0.055571  4.2e-05  3.969468  0.0
C  C77  1  0.06688723  0.77711826  0.92639028  1  -0.031057  -0.001761  3.7331  -0.001  -0.052317  0.000105  3.980357  0.0  -0.047292  9e-05  3.997158  0.0  -0.081275  -0.055581  4.1e-05  3.969276  0.0
C  C78  1  0.03068204  0.17292358  0.01172609  1  -0.213443  0.000471  3.729377  0.001  -0.23316  -1.5e-05  3.980992  0.0  -0.240909  -3.4e-05  4.000121  0.0  -0.10898  -0.228026  -3e-06  3.96821  0.0
C  C79  1  0.96930990  0.82707516  0.98827207  1  -0.21336  0.000465  3.729187  0.001  -0.233131  -1.5e-05  3.980834  0.0  -0.240879  -3.5e-05  3.999957  0.0  -0.108985  -0.228007  -1e-06  3.968048  0.0
C  C80  1  0.68056136  0.14957933  0.95876755  1  -0.06369  -0.001389  3.808568  -0.001  -0.086053  0.00017  4.057143  0.0  -0.082734  0.000158  4.075671  0.0  -0.09138  -0.088035  9.4e-05  4.044692  0.0
C  C81  1  0.31943199  0.85042023  0.04123084  1  -0.06379  -0.001375  3.808717  -0.001  -0.086166  0.00017  4.057265  0.0  -0.082848  0.000161  4.075798  0.0  -0.091403  -0.088155  9.3e-05  4.04481  0.0
C  C82  1  0.77503925  0.10014343  0.89590852  1  -0.202561  0.000814  3.774293  0.001  -0.223006  0.000233  4.030166  0.0  -0.229814  0.000132  4.048357  0.0  -0.111785  -0.218498  0.000358  4.017899  0.001
C  C83  1  0.22495394  0.89985531  0.10408975  1  -0.202385  0.000805  3.774281  0.001  -0.22284  0.000232  4.030127  0.0  -0.229647  0.000131  4.048317  0.0  -0.111702  -0.218335  0.000358  4.017862  0.001
C  C84  1  0.95127995  0.11335273  0.92122953  1  0.286655  -0.001728  3.816426  -0.001  0.275189  -0.000128  4.079395  0.0  0.288914  -1.1e-05  4.094811  0.0  0.086581  0.265756  -0.000401  4.068892  0.0
C  C85  1  0.04871573  0.88664601  0.07876897  1  0.28648  -0.001715  3.816557  -0.001  0.275083  -0.000128  4.079451  0.0  0.288808  -1e-05  4.094867  0.0  0.086526  0.265652  -0.000402  4.068948  0.0
C  C86  1  0.21374070  0.07429155  0.87312985  1  0.096079  -1e-06  3.604575  0.0  0.034593  1e-06  3.87854  0.0  0.042657  -2e-06  3.884798  0.0  -0.064359  0.029188  6e-06  3.874107  0.0
C  C87  1  0.78625325  0.92570475  0.12686817  1  0.096092  -1e-06  3.604507  0.0  0.034627  1e-06  3.878446  0.0  0.042692  -2e-06  3.884704  0.0  -0.064289  0.029219  6e-06  3.874012  0.0
C  C88  1  0.27039422  0.04185187  0.77675746  1  -0.167928  1.1e-05  3.683644  0.0  -0.213461  7e-06  3.948187  0.0  -0.214916  5e-06  3.959092  0.0  -0.165834  -0.21236  1e-05  3.940602  0.0
C  C89  1  0.72960331  0.95814357  0.22324291  1  -0.167941  9e-06  3.683548  0.0  -0.213468  7e-06  3.948111  0.0  -0.214924  5e-06  3.959017  0.0  -0.165886  -0.212356  9e-06  3.940515  0.0
C  C90  1  0.19782557  0.92681794  0.72718455  1  0.100388  -6.8e-05  3.580712  0.0  0.040981  -6.9e-05  3.848932  0.0  0.04984  -6.7e-05  3.853865  0.0  -0.067796  0.035037  -6e-05  3.845324  0.0
C  C91  1  0.80217786  0.07317584  0.27281898  1  0.100392  -7.1e-05  3.580669  0.0  0.040993  -6.9e-05  3.84886  0.0  0.049851  -6.6e-05  3.853797  0.0  -0.067833  0.035053  -6.3e-05  3.845253  0.0
C  C92  1  0.49820455  0.26187933  0.42801425  1  0.379563  -0.010862  3.656319  -0.007  0.362182  0.000484  3.921362  0.002  0.380717  0.000606  3.934934  0.001  0.221782  0.349107  6e-05  3.912209  0.002
C  C93  1  0.50179318  0.73812343  0.57198922  1  0.379723  -0.010868  3.655999  -0.007  0.362352  0.000483  3.921025  0.002  0.38089  0.000606  3.934589  0.001  0.221814  0.349276  5.2e-05  3.911879  0.002
C  C94  1  0.80220302  0.58162022  0.35208575  1  0.608603  -0.00684  3.965644  -0.006  0.565593  0.000846  4.2652  0.0  0.601706  0.000231  4.261431  0.0  0.192012  0.540009  0.001576  4.266426  0.0
C  C95  1  0.19779981  0.41837685  0.64791531  1  0.608492  -0.006837  3.965814  -0.006  0.565506  0.000846  4.265337  0.0  0.601617  0.00023  4.261572  0.0  0.191945  0.539918  0.001576  4.266564  0.0
C  C96  1  0.96579619  0.76690074  0.39595171  1  -0.057204  -0.000726  3.790804  0.0  -0.082195  0.000473  4.044373  0.001  -0.078739  0.000343  4.061958  0.001  -0.088936  -0.084173  0.000597  4.032311  0.001
C  C97  1  0.03421163  0.23309633  0.60404981  1  -0.057218  -0.000712  3.790782  0.0  -0.08222  0.000473  4.044361  0.001  -0.078764  0.000344  4.061942  0.001  -0.088984  -0.084202  0.000596  4.032297  0.001
C  C98  1  0.90970148  0.66834128  0.42505056  1  -0.103284  0.002815  3.807379  0.004  -0.082502  0.001207  4.042954  0.002  -0.093008  0.000651  4.06622  0.001  -0.035335  -0.075955  0.001778  4.027889  0.002
C  C99  1  0.09030525  0.33165660  0.57495097  1  -0.103155  0.002807  3.80728  0.004  -0.082374  0.001207  4.042862  0.002  -0.092878  0.00065  4.066125  0.001  -0.035263  -0.075815  0.001775  4.027778  0.002
C  C100  1  0.95321167  0.65525631  0.52284064  1  -0.023766  -0.000749  3.721544  0.0  -0.046831  0.00043  3.967813  0.001  -0.041794  0.000279  3.984683  0.0  -0.078509  -0.050037  0.000589  3.956506  0.001
C  C101  1  0.04679349  0.34473995  0.47715982  1  -0.023791  -0.000734  3.721684  0.0  -0.046936  0.00043  3.967975  0.001  -0.041902  0.000279  3.984849  0.0  -0.078514  -0.050146  0.000589  3.956662  0.001
C  C102  1  0.04622056  0.73928634  0.59186784  1  -0.206271  0.000168  3.735149  0.0  -0.226767  -0.000167  3.992939  0.0  -0.23532  -0.000233  4.013953  0.0  -0.107263  -0.220981  -6.6e-05  3.978741  0.0
C  C103  1  0.95378493  0.26071161  0.40812861  1  -0.206248  0.000162  3.735368  0.0  -0.226758  -0.000168  3.993213  0.0  -0.2353  -0.000232  4.014224  0.0  -0.107293  -0.220975  -6.3e-05  3.979016  0.0
C  C104  1  0.09615773  0.83874172  0.56223841  1  0.279782  -0.000826  3.810758  -0.001  0.267946  0.000169  4.072646  0.0  0.281161  0.000139  4.088453  0.0  0.08525  0.259069  0.000182  4.061522  0.0
C  C105  1  0.90384668  0.16125698  0.43776302  1  0.279768  -0.000817  3.810718  -0.001  0.267944  0.000169  4.072589  0.0  0.281149  0.000139  4.088411  0.0  0.085235  0.259071  0.000182  4.061465  0.0
C  C106  1  0.38583756  0.18894183  0.27731274  1  -0.012762  -0.006598  3.768855  -0.004  -0.04656  -0.00071  4.0462  0.0  -0.043609  -0.000934  4.066138  0.0  -0.010745  -0.04903  -0.000499  4.033139  0.0
C  C107  1  0.61416797  0.81106275  0.72267746  1  -0.012475  -0.006582  3.769632  -0.004  -0.046248  -0.000707  4.047017  0.0  -0.043296  -0.000931  4.066958  0.0  -0.010625  -0.048731  -0.000491  4.033968  0.0
C  C108  1  0.37273037  0.12402530  0.51892179  1  0.012941  0.000603  3.631494  0.001  -0.049223  0.000492  3.891193  0.001  -0.044908  0.00037  3.902542  0.001  -0.051439  -0.051944  0.000609  3.883597  0.001
C  C109  1  0.62726579  0.87597582  0.48108204  1  0.012872  0.000607  3.631419  0.001  -0.049282  0.000492  3.891156  0.001  -0.04497  0.000371  3.902504  0.001  -0.051491  -0.052002  0.000607  3.883561  0.001
C  C110  1  0.05685065  0.85176036  0.46368070  1  -0.208018  0.000628  3.786439  0.001  -0.229815  0.000211  4.049941  0.0  -0.236288  9.1e-05  4.067526  0.0  -0.112652  -0.225423  0.000366  4.03786  0.001
C  C111  1  0.94315327  0.14823595  0.53631681  1  -0.207961  0.000623  3.78625  0.001  -0.229792  0.000211  4.049753  0.0  -0.236262  9.1e-05  4.067339  0.0  -0.112641  -0.2254  0.000366  4.037673  0.001
C  C112  1  0.33869820  0.53084342  0.17918630  1  0.375649  -0.00147  3.667615  0.0  0.358149  0.003369  3.932378  0.005  0.375901  0.002593  3.947297  0.004  0.222962  0.34591  0.004206  3.921849  0.006
C  C113  1  0.66130062  0.46915866  0.82080723  1  0.375767  -0.001467  3.667712  0.0  0.358171  0.003369  3.932594  0.005  0.375923  0.002593  3.94751  0.004  0.222936  0.345929  0.004208  3.922063  0.006
C  C114  1  0.24458788  0.43307362  0.28261261  1  -0.014159  -0.001605  3.785803  0.0  -0.042961  0.001984  4.055893  0.003  -0.040913  0.001585  4.078422  0.002  -0.013177  -0.044665  0.00239  4.040697  0.003
C  C115  1  0.75541705  0.56693420  0.71738009  1  -0.014189  -0.001601  3.785408  0.0  -0.04296  0.001984  4.055486  0.003  -0.040916  0.001586  4.078016  0.002  -0.013086  -0.044685  0.002393  4.040281  0.003
C  C116  1  0.59448323  0.33507083  0.51550302  1  -0.404162  -0.000313  3.703025  0.001  -0.484458  -0.000183  3.93763  0.0  -0.490144  -0.000201  3.943165  0.0  -0.235141  -0.480137  -0.000147  3.934224  0.0
C  C117  1  0.40551250  0.66493439  0.48449987  1  -0.404159  -0.000317  3.702786  0.001  -0.484455  -0.000183  3.937384  0.0  -0.490138  -0.000202  3.94292  0.0  -0.235152  -0.480133  -0.000145  3.933983  0.0
C  C118  1  0.11399787  0.48388526  0.24439869  1  -0.053846  0.001879  3.671875  0.002  -0.096254  0.000395  3.928795  0.001  -0.093764  -0.000361  3.945899  0.0  -0.001149  -0.098054  0.001028  3.917955  0.001
C  C119  1  0.88602152  0.51611997  0.75560354  1  -0.05384  0.001881  3.671795  0.002  -0.096215  0.000395  3.928687  0.001  -0.093738  -0.000361  3.945773  0.0  -0.001179  -0.098016  0.001029  3.917857  0.001
C  C120  1  0.31849174  0.12532890  0.33713898  1  -0.075667  0.004246  3.721229  0.006  -0.11889  0.001903  3.990498  0.003  -0.116907  0.001461  4.007824  0.002  -0.007745  -0.120308  0.002389  3.979482  0.003
C  C121  1  0.68149497  0.87465581  0.66286895  1  -0.075554  0.004239  3.721939  0.006  -0.118841  0.001902  3.991238  0.003  -0.116859  0.001459  4.008568  0.002  -0.007777  -0.120258  0.002386  3.980221  0.003
C  C122  1  0.44686632  0.58154992  0.11761356  1  -0.385178  -0.000193  3.712327  0.0  -0.467635  0.00018  3.950802  0.0  -0.471289  9.5e-05  3.955441  0.0  -0.230341  -0.464845  0.000266  3.94776  0.001
C  C123  1  0.55313640  0.41845297  0.88238043  1  -0.385181  -0.000189  3.712322  0.0  -0.467598  0.00018  3.950859  0.0  -0.471244  9.6e-05  3.955509  0.0  -0.23034  -0.464807  0.000267  3.947816  0.001
N  N124  1  0.38379640  0.46242522  0.24188368  1  -0.444475  0.040458  3.315661  0.059  -0.40484  0.029633  3.630713  0.034  -0.4375  0.022953  3.644452  0.025  -0.370292  -0.380424  0.035618  3.620807  0.042
N  N125  1  0.61620945  0.53758088  0.75811457  1  -0.444487  0.040457  3.315578  0.059  -0.404806  0.029633  3.630622  0.034  -0.437455  0.022953  3.644351  0.025  -0.370274  -0.380383  0.035616  3.620715  0.042
N  N126  1  0.39001487  0.17186879  0.43153768  1  -0.117954  0.000344  3.528653  0.002  -0.026518  0.000945  3.740928  0.002  -0.042183  0.000738  3.766077  0.001  -0.247338  -0.016377  0.001058  3.724301  0.002
N  N127  1  0.60998459  0.82813640  0.56846768  1  -0.11814  0.000344  3.528705  0.002  -0.02667  0.000945  3.740975  0.002  -0.042337  0.000738  3.766123  0.001  -0.247339  -0.016529  0.001061  3.72435  0.002
N  N128  1  0.17503224  0.54577288  0.18021387  1  -0.109369  0.002826  3.515886  0.005  -0.016565  0.002974  3.726248  0.005  -0.031921  0.002233  3.75024  0.004  -0.242033  -0.006449  0.003713  3.710135  0.006
N  N129  1  0.82496783  0.45422915  0.81978332  1  -0.109441  0.002826  3.516016  0.005  -0.016612  0.002975  3.726425  0.005  -0.031971  0.002233  3.750425  0.004  -0.24197  -0.006498  0.00371  3.710309  0.006
N  N130  1  0.49750838  0.27352150  0.33449351  1  -0.437373  0.040496  3.285173  0.066  -0.394339  0.030255  3.59174  0.041  -0.42447  0.024448  3.602982  0.033  -0.365569  -0.372399  0.03531  3.584443  0.047
N  N131  1  0.50249152  0.72647961  0.66551136  1  -0.437542  0.040497  3.285266  0.066  -0.394526  0.030257  3.591858  0.041  -0.424649  0.02445  3.603083  0.033  -0.365588  -0.372571  0.035312  3.584534  0.047
O  O132  1  0.73142509  0.33488808  0.18761599  1  -0.642071  0.054745  2.097898  0.09  -0.608246  0.039881  2.397606  0.059  -0.65136  0.029226  2.384271  0.042  -0.335768  -0.574107  0.050342  2.405066  0.074
O  O133  1  0.26857341  0.66511231  0.81238156  1  -0.642057  0.054744  2.097845  0.09  -0.608237  0.03988  2.397548  0.059  -0.651344  0.029226  2.384212  0.042  -0.335774  -0.574094  0.05034  2.405003  0.074
O  O134  1  0.03301992  0.06736478  0.85188757  1  -0.300391  -0.000246  2.315263  0.0  -0.227119  2.4e-05  2.551802  0.0  -0.246451  2.2e-05  2.554368  0.0  -0.185121  -0.213451  -1e-06  2.54952  0.0
O  O135  1  0.96697403  0.93263149  0.14811187  1  -0.300371  -0.000246  2.315305  0.0  -0.227122  2.4e-05  2.551817  0.0  -0.246458  2.2e-05  2.554387  0.0  -0.185154  -0.213455  -3e-06  2.549535  0.0
O  O136  1  0.74623305  0.49426610  0.38439806  1  -0.630608  0.057547  2.079827  0.097  -0.590957  0.041714  2.361039  0.064  -0.635036  0.030776  2.351185  0.048  -0.330661  -0.55606  0.052279  2.365645  0.08
O  O137  1  0.25376669  0.50573427  0.61560101  1  -0.630613  0.05755  2.079726  0.097  -0.591001  0.041717  2.360971  0.064  -0.635074  0.030779  2.351112  0.048  -0.330662  -0.556098  0.052287  2.365576  0.08
O  O138  1  0.76749866  0.59333380  0.26411205  1  -0.616357  0.010043  1.920709  0.018  -0.579137  0.011476  2.152845  0.019  -0.60668  0.008198  2.145114  0.014  -0.318842  -0.558309  0.015269  2.157114  0.025
O  O139  1  0.23251431  0.40666412  0.73588721  1  -0.616274  0.010042  1.920901  0.018  -0.57904  0.011475  2.152995  0.019  -0.606584  0.008198  2.14527  0.014  -0.318788  -0.558212  0.015267  2.157262  0.025
O  O140  1  0.18277735  0.92770780  0.62355159  1  -0.296657  -1.8e-05  2.313275  0.0  -0.221171  0.0001  2.549282  0.0  -0.240882  5.4e-05  2.552977  0.0  -0.18179  -0.207145  0.000164  2.546072  0.0
O  O141  1  0.81722640  0.07228765  0.37644863  1  -0.296657  -1.6e-05  2.313411  0.0  -0.221177  0.0001  2.549398  0.0  -0.240887  5.4e-05  2.553102  0.0  -0.18176  -0.207162  0.000162  2.546199  0.0
O  O142  1  0.49333619  0.25485072  0.08671745  1  -0.618684  0.0034  1.88573  0.006  -0.581174  0.005592  2.105428  0.009  -0.605475  0.00401  2.09701  0.007  -0.333094  -0.563402  0.007459  2.110684  0.012
O  O143  1  0.50665840  0.74514879  0.91328460  1  -0.618607  0.003396  1.885946  0.006  -0.581121  0.00559  2.105669  0.009  -0.605419  0.004008  2.097251  0.007  -0.333082  -0.563354  0.007458  2.110932  0.012
