# generated using pymatgen
data_KH6C9Cl4O3
_symmetry_space_group_name_H-M   'P 1'
_cell_length_a   7.48006496
_cell_length_b   10.44359880
_cell_length_c   16.86471677
_cell_angle_alpha   89.99997901
_cell_angle_beta   89.99995031
_cell_angle_gamma   103.66775128
_symmetry_Int_Tables_number   1
_chemical_formula_structural   KH6C9Cl4O3
_chemical_formula_sum   'K4 H24 C36 Cl16 O12'
_cell_volume   1280.14415875
_cell_formula_units_Z   4
loop_
 _symmetry_equiv_pos_site_id
 _symmetry_equiv_pos_as_xyz
  1  'x, y, z'
loop_
 _atom_site_type_symbol
 _atom_site_label
 _atom_site_symmetry_multiplicity
 _atom_site_fract_x
 _atom_site_fract_y
 _atom_site_fract_z
 _atom_site_occupancy
 _atom_site_hle17_bader_spin_density
 _atom_site_hle17_ddec_charge
 _atom_site_hle17_ddec_spin_density
 _atom_site_hle17_ddec_sum_bond_order
 _atom_site_hle17_magmom
 _atom_site_hse06_10hf_bader_spin_density
 _atom_site_hse06_10hf_ddec_charge
 _atom_site_hse06_10hf_ddec_spin_density
 _atom_site_hse06_10hf_ddec_sum_bond_order
 _atom_site_hse06_10hf_magmom
 _atom_site_hse06_bader_spin_density
 _atom_site_hse06_ddec_charge
 _atom_site_hse06_ddec_spin_density
 _atom_site_hse06_ddec_sum_bond_order
 _atom_site_hse06_magmom
 _atom_site_pbe_bader_spin_density
 _atom_site_pbe_cm5_charge
 _atom_site_pbe_ddec_charge
 _atom_site_pbe_ddec_spin_density
 _atom_site_pbe_ddec_sum_bond_order
 _atom_site_pbe_magmom
K  K0  1  0.56579800  0.19108375  0.76528459  1  0  0.928406  0  0.502421  0  0  0.868451  0  0.713131  0  0  0.884152  0  0.689199  0  0  0.735601  0.856791  0  0.730193  0
K  K1  1  0.93420899  0.80891781  0.26528140  1  0  0.928424  0  0.502409  0  0  0.868446  0  0.713135  0  0  0.884155  0  0.689197  0  0  0.73562  0.856809  0  0.730199  0
K  K2  1  0.43420945  0.80891495  0.23472006  1  0  0.928397  0  0.502439  0  0  0.868452  0  0.713103  0  0  0.884158  0  0.689168  0  0  0.735613  0.856811  0  0.730168  0
K  K3  1  0.06579832  0.19108876  0.73471672  1  0  0.9284  0  0.502439  0  0  0.868452  0  0.713133  0  0  0.884159  0  0.689198  0  0  0.735611  0.856796  0  0.730194  0
H  H4  1  0.79071155  0.65368434  0.68367566  1  0  0.135021  0  0.944977  0  0  0.152814  0  1.0093  0  0  0.153824  0  1.009983  0  0  0.092374  0.152118  0  1.008836  0
H  H5  1  0.70928461  0.34631627  0.18367561  1  0  0.135008  0  0.945025  0  0  0.152801  0  1.00935  0  0  0.15381  0  1.010032  0  0  0.092372  0.152105  0  1.008885  0
H  H6  1  0.20928110  0.34631823  0.31632839  1  0  0.135067  0  0.944931  0  0  0.152848  0  1.009267  0  0  0.153857  0  1.009952  0  0  0.092392  0.152152  0  1.008801  0
H  H7  1  0.29071449  0.65368140  0.81632785  1  0  0.135006  0  0.944999  0  0  0.152826  0  1.009298  0  0  0.153834  0  1.009981  0  0  0.09238  0.152128  0  1.008838  0
H  H8  1  0.76780553  0.58255827  0.58907818  1  0  0.127308  0  0.95996  0  0  0.142455  0  1.029158  0  0  0.144043  0  1.029142  0  0  0.086037  0.141297  0  1.029249  0
H  H9  1  0.73218952  0.41744245  0.08907870  1  0  0.127313  0  0.959929  0  0  0.142456  0  1.029143  0  0  0.144043  0  1.029128  0  0  0.086038  0.1413  0  1.029231  0
H  H10  1  0.23218783  0.41744234  0.41092410  1  0  0.127286  0  0.959959  0  0  0.142407  0  1.029205  0  0  0.143994  0  1.029191  0  0  0.085995  0.141257  0  1.029292  0
H  H11  1  0.26781296  0.58255328  0.91092239  1  0  0.127286  0  0.960052  0  0  0.142408  0  1.029285  0  0  0.143996  0  1.029269  0  0  0.085998  0.141252  0  1.029372  0
H  H12  1  0.62513940  0.50121629  0.66905406  1  0  0.143084  0  0.947115  0  0  0.160851  0  1.007393  0  0  0.163675  0  1.005954  0  0  0.102306  0.158805  0  1.008533  0
H  H13  1  0.87485915  0.49878337  0.16905451  1  0  0.143091  0  0.947113  0  0  0.160858  0  1.00739  0  0  0.163682  0  1.00595  0  0  0.102312  0.15881  0  1.008537  0
H  H14  1  0.37485396  0.49878432  0.33094822  1  0  0.143075  0  0.947062  0  0  0.160863  0  1.007325  0  0  0.163699  0  1.005871  0  0  0.102287  0.158818  0  1.008472  0
H  H15  1  0.12514263  0.50121432  0.83094777  1  0  0.143096  0  0.947123  0  0  0.160868  0  1.007397  0  0  0.163692  0  1.005956  0  0  0.102295  0.158819  0  1.008542  0
H  H16  1  0.14725964  0.63984838  0.64967699  1  0  0.129691  0  0.978579  0  0  0.142137  0  1.05281  0  0  0.143483  0  1.053432  0  0  0.086375  0.141141  0  1.052413  0
H  H17  1  0.35273974  0.36014948  0.14968044  1  0  0.129629  0  0.978593  0  0  0.142059  0  1.052849  0  0  0.143405  0  1.05347  0  0  0.086349  0.141069  0  1.052439  0
H  H18  1  0.85273545  0.36014928  0.35032410  1  0  0.129646  0  0.978569  0  0  0.142074  0  1.052815  0  0  0.143421  0  1.053437  0  0  0.086353  0.141086  0  1.052407  0
H  H19  1  0.64726070  0.63984821  0.85032006  1  0  0.129637  0  0.978616  0  0  0.14208  0  1.052847  0  0  0.143425  0  1.053469  0  0  0.086344  0.141085  0  1.052443  0
H  H20  1  0.08288166  0.52585903  0.57323992  1  0  0.127653  0  0.960163  0  0  0.143801  0  1.027326  0  0  0.145111  0  1.027452  0  0  0.089299  0.143019  0  1.026819  0
H  H21  1  0.41711255  0.47413888  0.07324214  1  0  0.127632  0  0.960108  0  0  0.143753  0  1.027298  0  0  0.145063  0  1.027424  0  0  0.089261  0.142969  0  1.026791  0
H  H22  1  0.91710673  0.47413860  0.42676118  1  0  0.127615  0  0.960169  0  0  0.143765  0  1.027326  0  0  0.145074  0  1.027452  0  0  0.089252  0.14298  0  1.026818  0
H  H23  1  0.58288955  0.52585979  0.92675777  1  0  0.127683  0  0.960143  0  0  0.143803  0  1.027325  0  0  0.145113  0  1.027451  0  0  0.08928  0.143015  0  1.026823  0
H  H24  1  0.19167526  0.47887226  0.66012959  1  0  0.13943  0  0.948389  0  0  0.157533  0  1.007469  0  0  0.160582  0  1.005645  0  0  0.101205  0.155222  0  1.009062  0
H  H25  1  0.30832039  0.52112656  0.16013303  1  0  0.139427  0  0.948318  0  0  0.157492  0  1.007447  0  0  0.16054  0  1.005623  0  0  0.101186  0.155179  0  1.009045  0
H  H26  1  0.80831549  0.52112440  0.33987091  1  0  0.139401  0  0.948339  0  0  0.157495  0  1.007437  0  0  0.16054  0  1.005616  0  0  0.101183  0.155187  0  1.00903  0
H  H27  1  0.69168202  0.47887311  0.83986688  1  0  0.139384  0  0.948355  0  0  0.157455  0  1.007488  0  0  0.160503  0  1.005665  0  0  0.101158  0.155143  0  1.009083  0
C  C28  1  0.78177824  0.96787033  0.08578359  1  0  0.306669  0  3.933903  0  0  0.285523  0  4.213257  0  0  0.301636  0  4.226607  0  0  0.091606  0.274568  0  4.204695  0
C  C29  1  0.71821957  0.03212646  0.58578498  1  0  0.306707  0  3.933748  0  0  0.285526  0  4.213143  0  0  0.30166  0  4.22646  0  0  0.091655  0.274581  0  4.204545  0
C  C30  1  0.21822686  0.03212935  0.91421454  1  0  0.306669  0  3.934239  0  0  0.285505  0  4.213572  0  0  0.301583  0  4.226969  0  0  0.091593  0.274553  0  4.204949  0
C  C31  1  0.28176914  0.96787215  0.41421434  1  0  0.306553  0  3.934438  0  0  0.2854  0  4.213756  0  0  0.30153  0  4.227077  0  0  0.091596  0.27445  0  4.205152  0
C  C32  1  0.68368282  0.90855085  0.01490131  1  0  -0.022269  0  3.751305  0  0  -0.026766  0  4.034573  0  0  -0.027099  0  4.05468  0  0  -0.007691  -0.026345  0  4.021115  0
C  C33  1  0.81632076  0.09145096  0.51490324  1  0  -0.022355  0  3.751515  0  0  -0.026809  0  4.034744  0  0  -0.027149  0  4.054849  0  0  -0.007721  -0.026401  0  4.021284  0
C  C34  1  0.31631076  0.09143795  0.98509623  1  0  -0.022303  0  3.751222  0  0  -0.026762  0  4.034465  0  0  -0.027086  0  4.054572  0  0  -0.007677  -0.026337  0  4.020976  0
C  C35  1  0.18369074  0.90856448  0.48509904  1  0  -0.022244  0  3.751273  0  0  -0.026679  0  4.034449  0  0  -0.027007  0  4.054507  0  0  -0.007667  -0.026271  0  4.020999  0
C  C36  1  0.70713987  0.96987385  0.94229428  1  0  -0.024846  0  3.764725  0  0  -0.027707  0  4.047428  0  0  -0.027921  0  4.06746  0  0  -0.008644  -0.027892  0  4.033886  0
C  C37  1  0.79286032  0.03012848  0.44229664  1  0  -0.024831  0  3.764681  0  0  -0.02764  0  4.047324  0  0  -0.027856  0  4.067366  0  0  -0.008647  -0.027815  0  4.033759  0
C  C38  1  0.29285078  0.03011001  0.05769970  1  0  -0.024736  0  3.764484  0  0  -0.027667  0  4.047251  0  0  -0.02789  0  4.067282  0  0  -0.008676  -0.027849  0  4.03368  0
C  C39  1  0.20715347  0.96988993  0.55770149  1  0  -0.024702  0  3.764414  0  0  -0.027623  0  4.047212  0  0  -0.027837  0  4.067257  0  0  -0.008684  -0.027807  0  4.033661  0
C  C40  1  0.83102560  0.09959147  0.93068016  1  0  0.301461  0  3.942113  0  0  0.27939  0  4.22149  0  0  0.295432  0  4.23472  0  0  0.090443  0.269309  0  4.211569  0
C  C41  1  0.66898163  0.90041189  0.43067823  1  0  0.301499  0  3.942088  0  0  0.279343  0  4.221584  0  0  0.295376  0  4.234827  0  0  0.090416  0.269272  0  4.21163  0
C  C42  1  0.16897822  0.90040426  0.06932034  1  0  0.301368  0  3.942616  0  0  0.279295  0  4.222  0  0  0.295342  0  4.235205  0  0  0.0904  0.269222  0  4.212031  0
C  C43  1  0.33102765  0.09959666  0.56932168  1  0  0.301339  0  3.942409  0  0  0.279168  0  4.221964  0  0  0.295188  0  4.23522  0  0  0.090424  0.269094  0  4.212  0
C  C44  1  0.91936976  0.16235594  0.00224830  1  0  -0.031765  0  3.775934  0  0  -0.036283  0  4.062462  0  0  -0.038255  0  4.08571  0  0  -0.011487  -0.035296  0  4.047623  0
C  C45  1  0.58063392  0.83764195  0.50224661  1  0  -0.031843  0  3.77597  0  0  -0.03631  0  4.062528  0  0  -0.038277  0  4.085773  0  0  -0.011499  -0.035328  0  4.047682  0
C  C46  1  0.08063406  0.83763979  0.99774983  1  0  -0.031597  0  3.775688  0  0  -0.036159  0  4.062341  0  0  -0.038126  0  4.085568  0  0  -0.011441  -0.035179  0  4.047476  0
C  C47  1  0.41936772  0.16236361  0.49775034  1  0  -0.03164  0  3.775585  0  0  -0.036183  0  4.062282  0  0  -0.038149  0  4.085529  0  0  -0.011453  -0.035196  0  4.047422  0
C  C48  1  0.89688248  0.10008536  0.07502332  1  0  -0.029913  0  3.764536  0  0  -0.035433  0  4.051184  0  0  -0.037806  0  4.074905  0  0  -0.01152  -0.03475  0  4.03635  0
C  C49  1  0.60311708  0.89990849  0.57502102  1  0  -0.029807  0  3.764485  0  0  -0.035387  0  4.051249  0  0  -0.037764  0  4.074961  0  0  -0.011477  -0.034694  0  4.036396  0
C  C50  1  0.10311331  0.89991033  0.92497540  1  0  -0.029949  0  3.764483  0  0  -0.035527  0  4.051235  0  0  -0.037895  0  4.074962  0  0  -0.011532  -0.034827  0  4.03636  0
C  C51  1  0.39687966  0.10009016  0.42497415  1  0  -0.029927  0  3.764373  0  0  -0.035505  0  4.051106  0  0  -0.037889  0  4.074821  0  0  -0.011551  -0.034818  0  4.036255  0
C  C52  1  0.90729635  0.48683583  0.67489698  1  0  0.618754  0  3.614582  0  0  0.616371  0  3.877107  0  0  0.636368  0  3.88091  0  0  0.174163  0.602536  0  3.874435  0
C  C53  1  0.59269983  0.51316480  0.17489872  1  0  0.618678  0  3.614578  0  0  0.616295  0  3.877108  0  0  0.636287  0  3.880916  0  0  0.174154  0.602476  0  3.87443  0
C  C54  1  0.09269535  0.51316379  0.32510530  1  0  0.618893  0  3.614244  0  0  0.616482  0  3.876808  0  0  0.636488  0  3.880587  0  0  0.17411  0.602664  0  3.874142  0
C  C55  1  0.40730258  0.48683486  0.82510297  1  0  0.618748  0  3.614478  0  0  0.616381  0  3.876997  0  0  0.636379  0  3.88079  0  0  0.174168  0.602541  0  3.874329  0
C  C56  1  0.76242036  0.55823764  0.65250943  1  0  -0.450866  0  3.669441  0  0  -0.527645  0  3.8996  0  0  -0.533733  0  3.906234  0  0  -0.249792  -0.523089  0  3.894909  0
C  C57  1  0.73757753  0.44176400  0.15251053  1  0  -0.450831  0  3.669454  0  0  -0.527605  0  3.899601  0  0  -0.533692  0  3.906241  0  0  -0.249799  -0.523054  0  3.894905  0
C  C58  1  0.23757433  0.44176297  0.34749285  1  0  -0.450944  0  3.669294  0  0  -0.527708  0  3.899452  0  0  -0.533814  0  3.906087  0  0  -0.249763  -0.523168  0  3.894762  0
C  C59  1  0.26242221  0.55823564  0.84749234  1  0  -0.450857  0  3.669523  0  0  -0.527627  0  3.899644  0  0  -0.533718  0  3.906288  0  0  -0.249768  -0.523074  0  3.894953  0
C  C60  1  0.09417121  0.53399589  0.63813991  1  0  -0.459883  0  3.68195  0  0  -0.53534  0  3.91318  0  0  -0.541425  0  3.919319  0  0  -0.252511  -0.530685  0  3.908832  0
C  C61  1  0.40582583  0.46600295  0.13814273  1  0  -0.459758  0  3.681832  0  0  -0.535129  0  3.913046  0  0  -0.541208  0  3.919186  0  0  -0.252399  -0.530476  0  3.90869  0
C  C62  1  0.90582119  0.46600176  0.36186237  1  0  -0.45975  0  3.68176  0  0  -0.535156  0  3.913003  0  0  -0.541237  0  3.919143  0  0  -0.252353  -0.530512  0  3.908648  0
C  C63  1  0.59417824  0.53399770  0.86185777  1  0  -0.459809  0  3.68191  0  0  -0.535194  0  3.913132  0  0  -0.541275  0  3.919271  0  0  -0.25239  -0.530532  0  3.908785  0
Cl  Cl64  1  0.52817504  0.76040417  0.02841655  1  0  -0.038982  0  1.495617  0  0  -0.020257  0  1.753274  0  0  -0.022254  0  1.75  0  0  0.037877  -0.018609  0  1.755449  0
Cl  Cl65  1  0.97182660  0.23959171  0.52841484  1  0  -0.038964  0  1.495703  0  0  -0.020258  0  1.753373  0  0  -0.022252  0  1.750102  0  0  0.037865  -0.018607  0  1.755548  0
Cl  Cl66  1  0.47183382  0.23959060  0.97158158  1  0  -0.039036  0  1.495444  0  0  -0.020314  0  1.753065  0  0  -0.02231  0  1.749786  0  0  0.037849  -0.01867  0  1.75523  0
Cl  Cl67  1  0.02816975  0.76040989  0.47158270  1  0  -0.039092  0  1.495413  0  0  -0.020377  0  1.753027  0  0  -0.022378  0  1.749748  0  0  0.037817  -0.018724  0  1.755208  0
Cl  Cl68  1  0.58473770  0.90229392  0.86033859  1  0  -0.053115  0  1.536055  0  0  -0.039627  0  1.800461  0  0  -0.040545  0  1.795076  0  0  0.031858  -0.038714  0  1.804399  0
Cl  Cl69  1  0.91525536  0.09770650  0.36033792  1  0  -0.053144  0  1.535984  0  0  -0.039655  0  1.800358  0  0  -0.040573  0  1.794974  0  0  0.031877  -0.038747  0  1.804296  0
Cl  Cl70  1  0.41526313  0.09770081  0.13966250  1  0  -0.053182  0  1.535663  0  0  -0.039656  0  1.80006  0  0  -0.040574  0  1.794678  0  0  0.031856  -0.038748  0  1.803997  0
Cl  Cl71  1  0.08474430  0.90229709  0.63966495  1  0  -0.05325  0  1.53562  0  0  -0.03973  0  1.800029  0  0  -0.040653  0  1.794647  0  0  0.03182  -0.038815  0  1.80397  0
Cl  Cl72  1  0.03803587  0.32362978  0.99229946  1  0  -0.035534  0  1.458828  0  0  -0.018318  0  1.702871  0  0  -0.019259  0  1.698449  0  0  0.023673  -0.017936  0  1.70824  0
Cl  Cl73  1  0.46196332  0.67636969  0.49229984  1  0  -0.035529  0  1.458849  0  0  -0.018311  0  1.702882  0  0  -0.019254  0  1.698457  0  0  0.023679  -0.01793  0  1.708256  0
Cl  Cl74  1  0.96196267  0.67636200  0.00769748  1  0  -0.035643  0  1.458683  0  0  -0.018412  0  1.702752  0  0  -0.019356  0  1.698324  0  0  0.023628  -0.018034  0  1.708122  0
Cl  Cl75  1  0.53803486  0.32364176  0.50769947  1  0  -0.035603  0  1.458708  0  0  -0.01837  0  1.702777  0  0  -0.019312  0  1.69835  0  0  0.023637  -0.017994  0  1.708143  0
Cl  Cl76  1  0.98960534  0.17936446  0.16006238  1  0  -0.040926  0  1.479098  0  0  -0.023961  0  1.731418  0  0  -0.024781  0  1.726322  0  0  0.025593  -0.023289  0  1.735328  0
Cl  Cl77  1  0.51040063  0.82063328  0.66006190  1  0  -0.04088  0  1.479056  0  0  -0.023903  0  1.731423  0  0  -0.024719  0  1.726317  0  0  0.025622  -0.023233  0  1.735327  0
Cl  Cl78  1  0.01039312  0.82063125  0.83993338  1  0  -0.040849  0  1.479035  0  0  -0.023857  0  1.731349  0  0  -0.024678  0  1.726258  0  0  0.025626  -0.023192  0  1.735245  0
Cl  Cl79  1  0.48960266  0.17937327  0.33993445  1  0  -0.040856  0  1.479016  0  0  -0.023869  0  1.731338  0  0  -0.024692  0  1.72625  0  0  0.025625  -0.023201  0  1.735245  0
O  O80  1  0.75841253  0.91138437  0.15235276  1  0  -0.605396  0  2.051514  0  0  -0.573159  0  2.303607  0  0  -0.592448  0  2.30117  0  0  -0.439222  -0.559942  0  2.305266  0
O  O81  1  0.74158907  0.08861631  0.65235235  1  0  -0.605454  0  2.051485  0  0  -0.573207  0  2.3036  0  0  -0.5925  0  2.301149  0  0  -0.439254  -0.559978  0  2.305232  0
O  O82  1  0.24157830  0.08860835  0.84764774  1  0  -0.605292  0  2.051763  0  0  -0.573107  0  2.303878  0  0  -0.592388  0  2.301448  0  0  -0.439142  -0.559878  0  2.305495  0
O  O83  1  0.25841747  0.91139616  0.34764875  1  0  -0.605177  0  2.051891  0  0  -0.572995  0  2.304003  0  0  -0.592297  0  2.301549  0  0  -0.439118  -0.559782  0  2.305639  0
O  O84  1  0.85016440  0.15633654  0.86413412  1  0  -0.598741  0  2.035634  0  0  -0.563169  0  2.280495  0  0  -0.582135  0  2.277559  0  0  -0.433958  -0.549544  0  2.281772  0
O  O85  1  0.64983739  0.84366195  0.36413695  1  0  -0.598734  0  2.035767  0  0  -0.563083  0  2.280602  0  0  -0.582047  0  2.277671  0  0  -0.433886  -0.549466  0  2.281873  0
O  O86  1  0.14983509  0.84365819  0.13585868  1  0  -0.598597  0  2.035966  0  0  -0.563023  0  2.28078  0  0  -0.582  0  2.277834  0  0  -0.433832  -0.549406  0  2.282041  0
O  O87  1  0.35017165  0.15634168  0.63586236  1  0  -0.598564  0  2.035955  0  0  -0.562969  0  2.280822  0  0  -0.58194  0  2.277895  0  0  -0.433876  -0.549348  0  2.282074  0
O  O88  1  0.87496165  0.39461862  0.72286637  1  0  -0.565325  0  1.92398  0  0  -0.521702  0  2.139905  0  0  -0.540674  0  2.134672  0  0  -0.353651  -0.508771  0  2.143661  0
O  O89  1  0.62504008  0.60538297  0.22286808  1  0  -0.565323  0  1.923918  0  0  -0.521712  0  2.139864  0  0  -0.540685  0  2.134633  0  0  -0.353669  -0.508793  0  2.143626  0
O  O90  1  0.12503699  0.60538595  0.27713769  1  0  -0.565481  0  1.92387  0  0  -0.521802  0  2.139736  0  0  -0.540781  0  2.134495  0  0  -0.353671  -0.508883  0  2.143496  0
O  O91  1  0.37496201  0.39461571  0.77713420  1  0  -0.565339  0  1.923911  0  0  -0.521731  0  2.139835  0  0  -0.540704  0  2.134596  0  0  -0.353687  -0.508803  0  2.143591  0
