# generated using pymatgen
data_Zn2Te2H10C3N2
_symmetry_space_group_name_H-M   'P 1'
_cell_length_a   6.83915870
_cell_length_b   6.98512803
_cell_length_c   10.68934443
_cell_angle_alpha   109.06842695
_cell_angle_beta   89.99969106
_cell_angle_gamma   90.00006770
_symmetry_Int_Tables_number   1
_chemical_formula_structural   Zn2Te2H10C3N2
_chemical_formula_sum   'Zn4 Te4 H20 C6 N4'
_cell_volume   482.63548608
_cell_formula_units_Z   2
loop_
 _symmetry_equiv_pos_site_id
 _symmetry_equiv_pos_as_xyz
  1  'x, y, z'
loop_
 _atom_site_type_symbol
 _atom_site_label
 _atom_site_symmetry_multiplicity
 _atom_site_fract_x
 _atom_site_fract_y
 _atom_site_fract_z
 _atom_site_occupancy
 _atom_site_hle17_bader_spin_density
 _atom_site_hle17_ddec_charge
 _atom_site_hle17_ddec_spin_density
 _atom_site_hle17_ddec_sum_bond_order
 _atom_site_hle17_magmom
 _atom_site_hse06_10hf_bader_spin_density
 _atom_site_hse06_10hf_ddec_charge
 _atom_site_hse06_10hf_ddec_spin_density
 _atom_site_hse06_10hf_ddec_sum_bond_order
 _atom_site_hse06_10hf_magmom
 _atom_site_hse06_bader_spin_density
 _atom_site_hse06_ddec_charge
 _atom_site_hse06_ddec_spin_density
 _atom_site_hse06_ddec_sum_bond_order
 _atom_site_hse06_magmom
 _atom_site_pbe_bader_spin_density
 _atom_site_pbe_cm5_charge
 _atom_site_pbe_ddec_charge
 _atom_site_pbe_ddec_spin_density
 _atom_site_pbe_ddec_sum_bond_order
 _atom_site_pbe_magmom
Zn  Zn0  1  0.63060261  0.63667983  0.58852674  1  0  0.57669  0  2.259651  0  0  0.452274  0  2.692218  0  0  0.49037  0  2.665074  0  0  0.309071  0.426382  0  2.71018  0
Zn  Zn1  1  0.13060328  0.36332109  0.41147260  1  0  0.576674  0  2.259651  0  0  0.452288  0  2.692158  0  0  0.490382  0  2.665018  0  0  0.30908  0.426397  0  2.710118  0
Zn  Zn2  1  0.63034729  0.04833476  0.41140831  1  0  0.576156  0  2.259725  0  0  0.452005  0  2.692202  0  0  0.490095  0  2.66495  0  0  0.309007  0.426137  0  2.709207  0
Zn  Zn3  1  0.13034684  0.95166313  0.58858944  1  0  0.576144  0  2.259744  0  0  0.451979  0  2.692219  0  0  0.490077  0  2.664967  0  0  0.309012  0.426113  0  2.709223  0
Te  Te4  1  0.50876555  0.37930452  0.36471726  1  0  -0.703239  0  2.291132  0  0  -0.607406  0  2.777404  0  0  -0.644395  0  2.751131  0  0  -0.28636  -0.581337  0  2.795126  0
Te  Te5  1  0.00876271  0.62069644  0.63528146  1  0  -0.703223  0  2.291167  0  0  -0.607378  0  2.777436  0  0  -0.644372  0  2.751165  0  0  -0.28636  -0.58131  0  2.795158  0
Te  Te6  1  0.50867759  0.01448898  0.63533235  1  0  -0.703815  0  2.287939  0  0  -0.608637  0  2.774618  0  0  -0.64557  0  2.7482  0  0  -0.286639  -0.582022  0  2.790906  0
Te  Te7  1  0.00867521  0.98551044  0.36466884  1  0  -0.703767  0  2.287939  0  0  -0.608591  0  2.774608  0  0  -0.645525  0  2.748193  0  0  -0.286628  -0.581977  0  2.790896  0
H  H8  1  0.35139491  0.58636550  0.73935547  1  0  0.267296  0  0.950279  0  0  0.2586  0  1.010565  0  0  0.265383  0  1.005955  0  0  0.255138  0.253698  0  1.013991  0
H  H9  1  0.85139746  0.41363535  0.26064610  1  0  0.267354  0  0.9502  0  0  0.258601  0  1.010563  0  0  0.265381  0  1.005954  0  0  0.255122  0.253698  0  1.013993  0
H  H10  1  0.35118710  0.84703091  0.26054198  1  0  0.266245  0  0.952399  0  0  0.25795  0  1.012257  0  0  0.264702  0  1.00766  0  0  0.254695  0.253049  0  1.015557  0
H  H11  1  0.85119148  0.15296841  0.73946113  1  0  0.266285  0  0.952366  0  0  0.257991  0  1.012209  0  0  0.264744  0  1.007611  0  0  0.254714  0.253089  0  1.015511  0
H  H12  1  0.52370401  0.42012394  0.73826741  1  0  0.267056  0  0.94814  0  0  0.257274  0  1.011137  0  0  0.264154  0  1.006136  0  0  0.256381  0.252257  0  1.014864  0
H  H13  1  0.02370804  0.57987549  0.26173187  1  0  0.267028  0  0.948159  0  0  0.257262  0  1.011138  0  0  0.264138  0  1.006139  0  0  0.256384  0.252244  0  1.014866  0
H  H14  1  0.52351958  0.68201419  0.26175611  1  0  0.267384  0  0.94594  0  0  0.257456  0  1.009447  0  0  0.264326  0  1.004507  0  0  0.25633  0.252346  0  1.013322  0
H  H15  1  0.02352108  0.31798372  0.73824472  1  0  0.267432  0  0.945879  0  0  0.257447  0  1.009459  0  0  0.264318  0  1.004519  0  0  0.256339  0.252338  0  1.013335  0
H  H16  1  0.54771967  0.86187134  0.87805867  1  0  0.05089  0  0.936701  0  0  0.069285  0  0.999208  0  0  0.070018  0  0.999069  0  0  0.089615  0.068594  0  0.999681  0
H  H17  1  0.04772314  0.13812959  0.12194275  1  0  0.050862  0  0.93677  0  0  0.069258  0  0.999264  0  0  0.06999  0  0.999128  0  0  0.089604  0.068566  0  0.999737  0
H  H18  1  0.54766385  0.98379100  0.12180218  1  0  0.050915  0  0.936863  0  0  0.069189  0  0.99931  0  0  0.070035  0  0.999013  0  0  0.089857  0.068696  0  0.99939  0
H  H19  1  0.04766930  0.01620539  0.87819733  1  0  0.050852  0  0.936785  0  0  0.069176  0  0.99923  0  0  0.070027  0  0.998935  0  0  0.08986  0.068683  0  0.999309  0
H  H20  1  0.73018058  0.68470145  0.87964993  1  0  0.04804  0  0.940729  0  0  0.06489  0  1.006705  0  0  0.065649  0  1.006474  0  0  0.088497  0.063819  0  1.007751  0
H  H21  1  0.23018285  0.31529641  0.12035037  1  0  0.048099  0  0.940703  0  0  0.064941  0  1.00668  0  0  0.065703  0  1.006445  0  0  0.088506  0.06387  0  1.007726  0
H  H22  1  0.73000635  0.80497381  0.12033140  1  0  0.047575  0  0.939906  0  0  0.064094  0  1.006518  0  0  0.064943  0  1.006128  0  0  0.088139  0.063469  0  1.006753  0
H  H23  1  0.23001347  0.19502255  0.87966483  1  0  0.047667  0  0.93978  0  0  0.06417  0  1.006443  0  0  0.065022  0  1.006057  0  0  0.088184  0.063542  0  1.006678  0
H  H24  1  0.31786462  0.70414119  0.99987793  1  0  0.070616  0  0.930551  0  0  0.088769  0  0.990893  0  0  0.089996  0  0.990701  0  0  0.087178  0.087407  0  0.991579  0
H  H25  1  0.81787126  0.29585815  0.00012340  1  0  0.070618  0  0.930472  0  0  0.08878  0  0.990802  0  0  0.090011  0  0.990607  0  0  0.087195  0.087418  0  0.991487  0
H  H26  1  0.49815275  0.52111073  0.99991276  1  0  0.068034  0  0.936815  0  0  0.084908  0  1.000982  0  0  0.086215  0  1.000566  0  0  0.085719  0.083498  0  1.001787  0
H  H27  1  0.99816110  0.47888858  0.00008718  1  0  0.068017  0  0.936842  0  0  0.084891  0  1.001  0  0  0.086199  0  1.000583  0  0  0.085721  0.083483  0  1.001802  0
C  C28  1  0.57064344  0.70530521  0.87726796  1  0  0.081589  0  3.663495  0  0  0.028409  0  3.922965  0  0  0.032219  0  3.936786  0  0  -0.081491  0.025362  0  3.914  0
C  C29  1  0.07065004  0.29469267  0.12273555  1  0  0.081503  0  3.663485  0  0  0.028343  0  3.922911  0  0  0.032148  0  3.93674  0  0  -0.081497  0.025302  0  3.913947  0
C  C30  1  0.57044725  0.82801603  0.12267956  1  0  0.080482  0  3.662153  0  0  0.027536  0  3.921382  0  0  0.0314  0  3.935033  0  0  -0.081925  0.025146  0  3.911432  0
C  C31  1  0.07045291  0.17198944  0.87732278  1  0  0.080495  0  3.66215  0  0  0.027435  0  3.921535  0  0  0.03128  0  3.935213  0  0  -0.081984  0.025048  0  3.911578  0
C  C32  1  0.47690170  0.67765010  0.99995023  1  0  -0.172692  0  3.694201  0  0  -0.21138  0  3.955093  0  0  -0.214038  0  3.969954  0  0  -0.171526  -0.209249  0  3.944766  0
C  C33  1  0.97690985  0.32234770  0.00004756  1  0  -0.172679  0  3.694185  0  0  -0.211338  0  3.955075  0  0  -0.213996  0  3.969953  0  0  -0.171566  -0.209209  0  3.944745  0
N  N34  1  0.50020409  0.57045112  0.74885877  1  0  -0.570562  0  3.184423  0  0  -0.503255  0  3.413681  0  0  -0.523392  0  3.413832  0  0  -0.631451  -0.48927  0  3.414132  0
N  N35  1  0.00020949  0.42955134  0.25114309  1  0  -0.570521  0  3.184423  0  0  -0.503205  0  3.413729  0  0  -0.52333  0  3.413881  0  0  -0.6314  -0.489223  0  3.414185  0
N  N36  1  0.49999052  0.82170092  0.25110592  1  0  -0.568694  0  3.184007  0  0  -0.501996  0  3.413342  0  0  -0.522143  0  3.413516  0  0  -0.63024  -0.488013  0  3.413051  0
N  N37  1  0.99999191  0.17829989  0.74889621  1  0  -0.568804  0  3.183972  0  0  -0.502017  0  3.413334  0  0  -0.522163  0  3.413518  0  0  -0.630281  -0.488039  0  3.413041  0
