# generated using pymatgen
data_NiH8C4(NO3)2
_symmetry_space_group_name_H-M   'P 1'
_cell_length_a   7.36711674
_cell_length_b   7.93846995
_cell_length_c   8.23216614
_cell_angle_alpha   90.00077538
_cell_angle_beta   116.22893735
_cell_angle_gamma   89.99880866
_symmetry_Int_Tables_number   1
_chemical_formula_structural   NiH8C4(NO3)2
_chemical_formula_sum   'Ni2 H16 C8 N4 O12'
_cell_volume   431.87493924
_cell_formula_units_Z   2
loop_
 _symmetry_equiv_pos_site_id
 _symmetry_equiv_pos_as_xyz
  1  'x, y, z'
loop_
 _atom_site_type_symbol
 _atom_site_label
 _atom_site_symmetry_multiplicity
 _atom_site_fract_x
 _atom_site_fract_y
 _atom_site_fract_z
 _atom_site_occupancy
 _atom_site_hle17_ddec_charge
 _atom_site_hle17_ddec_spin_density
 _atom_site_hle17_ddec_sum_bond_order
 _atom_site_hle17_magmom
 _atom_site_hse06_10hf_ddec_charge
 _atom_site_hse06_10hf_ddec_spin_density
 _atom_site_hse06_10hf_ddec_sum_bond_order
 _atom_site_hse06_10hf_magmom
 _atom_site_hse06_ddec_charge
 _atom_site_hse06_ddec_spin_density
 _atom_site_hse06_ddec_sum_bond_order
 _atom_site_hse06_magmom
 _atom_site_pbe_cm5_charge
 _atom_site_pbe_ddec_charge
 _atom_site_pbe_ddec_spin_density
 _atom_site_pbe_ddec_sum_bond_order
 _atom_site_pbe_magmom
Ni  Ni0  1  0.99999955  0.49999937  0.99999948  1  0.935731  -1.793648  1.95258  -1.523  0.95429  -1.849422  2.337808  -1.652  1.036508  -1.909266  2.277035  -1.736  0.614745  0.879529  -1.781478  2.400678  -1.568
Ni  Ni1  1  0.50000023  0.00000119  0.50000089  1  0.935906  1.793661  1.95229  1.523  0.954547  1.849431  2.337466  1.652  1.036669  1.909274  2.276749  1.736  0.614718  0.879668  1.781485  2.400379  1.568
H  H2  1  0.52866900  0.44930911  0.85706645  1  0.338272  4.5e-05  0.906771  0.0  0.318262  2.6e-05  0.971318  0.0  0.327018  6.1e-05  0.964508  0.0  0.302987  0.311976  -2e-05  0.976331  0.0
H  H3  1  0.97132983  0.94931283  0.64292407  1  0.338339  -3.9e-05  0.906768  0.0  0.318296  -2.6e-05  0.971355  0.0  0.327053  -6.1e-05  0.964544  0.0  0.303022  0.312008  2e-05  0.976371  0.0
H  H4  1  0.47133057  0.55068949  0.14293308  1  0.338269  4.4e-05  0.906763  0.0  0.318258  2.6e-05  0.971315  0.0  0.327014  6.1e-05  0.964506  0.0  0.302992  0.311972  -2e-05  0.976328  0.0
H  H5  1  0.02866521  0.05068955  0.35707488  1  0.338261  -4.3e-05  0.906877  0.0  0.318244  -2.6e-05  0.971417  0.0  0.326997  -6.1e-05  0.964613  0.0  0.303  0.311956  2e-05  0.976432  0.0
H  H6  1  0.38337854  0.36464529  0.63506101  1  0.347466  -0.00013  0.914317  -0.001  0.324585  -0.000149  0.981757  -0.001  0.334782  -0.00015  0.973061  0.0  0.298838  0.317214  -0.000138  0.988117  -0.001
H  H7  1  0.11662091  0.86465007  0.86492820  1  0.347439  0.000131  0.914463  0.001  0.324562  0.000149  0.981887  0.001  0.334752  0.00015  0.973204  0.0  0.298789  0.317191  0.000138  0.988247  0.001
H  H8  1  0.61662255  0.63535457  0.36494032  1  0.347434  -0.000131  0.914353  -0.001  0.324545  -0.000149  0.981802  -0.001  0.334742  -0.00015  0.973107  0.0  0.298816  0.317174  -0.000138  0.988161  -0.001
H  H9  1  0.88337716  0.13534727  0.13507437  1  0.347445  0.000129  0.914487  0.001  0.324555  0.000149  0.981929  0.001  0.334753  0.00015  0.973232  0.0  0.298799  0.317185  0.000138  0.988288  0.001
H  H10  1  0.27909465  0.22853756  0.17832611  1  0.020546  -0.000421  0.949595  -0.001  0.022397  -0.000224  1.028898  0.0  0.022919  -0.000146  1.023315  0.0  0.112307  0.022156  -0.0003  1.03258  0.0
H  H11  1  0.22089603  0.72854352  0.32166640  1  0.020572  0.00041  0.949599  0.001  0.022452  0.000223  1.02888  0.0  0.022977  0.000145  1.02329  0.0  0.112329  0.022207  0.000299  1.032568  0.0
H  H12  1  0.72090492  0.77145600  0.82167463  1  0.020508  -0.000413  0.949654  -0.001  0.02236  -0.000224  1.028952  0.0  0.022886  -0.000146  1.023357  0.0  0.112312  0.022116  -0.0003  1.032639  0.0
H  H13  1  0.77910203  0.27145760  0.67833131  1  0.020548  0.000416  0.949602  0.001  0.022424  0.000223  1.02889  0.0  0.022949  0.000146  1.023303  0.0  0.112323  0.022181  0.000299  1.032582  0.0
H  H14  1  0.08659125  0.37663436  0.67551806  1  0.03893  -0.000629  0.898763  -0.001  0.050541  -0.000356  0.960075  -0.001  0.051566  -0.000172  0.955364  0.0  0.128947  0.049632  -0.00057  0.963649  -0.001
H  H15  1  0.41340947  0.87664171  0.82447304  1  0.038948  0.000631  0.898658  0.001  0.050556  0.000355  0.959983  0.001  0.051582  0.000172  0.955267  0.0  0.128952  0.049642  0.000569  0.963556  0.001
H  H16  1  0.91340983  0.62336425  0.32448206  1  0.038948  -0.000628  0.898802  -0.001  0.050559  -0.000355  0.960111  -0.001  0.051585  -0.000172  0.9554  0.0  0.128959  0.049651  -0.00057  0.963683  -0.001
H  H17  1  0.58658859  0.12335816  0.17552711  1  0.038943  0.000636  0.898696  0.001  0.050569  0.000355  0.959999  0.001  0.051595  0.000172  0.955283  0.0  0.128965  0.049656  0.000569  0.963571  0.001
C  C18  1  0.23143932  0.41520289  0.78786111  1  0.544023  0.002162  3.801187  0.004  0.479112  8.4e-05  4.095824  0.001  0.510273  5.5e-05  4.093876  0.001  0.186081  0.457309  0.000239  4.095895  0.002
C  C19  1  0.26855158  0.91520894  0.71213634  1  0.544128  -0.002156  3.801367  -0.004  0.479226  -8.4e-05  4.095979  -0.001  0.510392  -5.5e-05  4.094023  -0.001  0.186113  0.45743  -0.000239  4.09604  -0.002
C  C20  1  0.76856177  0.58479571  0.21213901  1  0.544028  0.002174  3.801317  0.004  0.47912  8.4e-05  4.095942  0.001  0.510281  5.6e-05  4.093994  0.001  0.186099  0.457317  0.000239  4.096013  0.002
C  C21  1  0.73144647  0.08479344  0.28786258  1  0.544169  -0.002193  3.801413  -0.004  0.479247  -8.4e-05  4.096048  -0.001  0.510413  -5.3e-05  4.094089  -0.001  0.186093  0.45745  -0.000239  4.096108  -0.002
C  C22  1  0.28698400  0.30350236  0.29436739  1  0.574934  0.001784  3.852046  0.003  0.51083  0.001016  4.170627  0.002  0.549306  0.000802  4.160877  0.001  0.141759  0.483213  0.001237  4.175053  0.002
C  C23  1  0.21301576  0.80349427  0.20562362  1  0.575186  -0.001737  3.852153  -0.003  0.511079  -0.001015  4.170682  -0.002  0.549557  -0.000801  4.160931  -0.001  0.141861  0.483463  -0.001237  4.175112  -0.002
C  C24  1  0.71301860  0.69649499  0.70563333  1  0.575103  0.001752  3.851967  0.003  0.511007  0.001016  4.170536  0.002  0.549483  0.000803  4.160785  0.001  0.141808  0.483393  0.001237  4.174962  0.002
C  C25  1  0.78698380  0.19650559  0.79437347  1  0.57524  -0.001742  3.852127  -0.003  0.511132  -0.001015  4.170662  -0.002  0.549609  -0.000801  4.160906  -0.001  0.141881  0.483511  -0.001237  4.175097  -0.002
N  N26  1  0.39153098  0.41246131  0.75535048  1  -0.615418  -0.000836  3.129542  -0.001  -0.57069  -0.000758  3.361204  -0.001  -0.593858  -0.000413  3.354741  -0.001  -0.553295  -0.555295  -0.001076  3.366467  -0.002
N  N27  1  0.10846601  0.91246458  0.74463839  1  -0.615452  0.000812  3.13005  0.001  -0.570694  0.000757  3.361735  0.001  -0.593852  0.000413  3.355273  0.001  -0.553247  -0.555298  0.001074  3.366996  0.002
N  N28  1  0.60846859  0.58753729  0.24464904  1  -0.615399  -0.000838  3.129637  -0.001  -0.570664  -0.000758  3.361302  -0.001  -0.593833  -0.000413  3.354845  -0.001  -0.553296  -0.555269  -0.001076  3.366566  -0.002
N  N29  1  0.89153054  0.08753654  0.25536115  1  -0.615436  0.000846  3.130162  0.001  -0.570677  0.000757  3.361855  0.001  -0.593843  0.000412  3.355391  0.001  -0.553274  -0.555285  0.001074  3.36712  0.002
O  O30  1  0.18383563  0.43758690  0.26333865  1  -0.567758  -0.045842  2.111401  -0.073  -0.541608  -0.030001  2.39071  -0.049  -0.578417  -0.02376  2.380599  -0.04  -0.317438  -0.512207  -0.034703  2.396764  -0.055
O  O31  1  0.31617204  0.93757475  0.23665238  1  -0.568018  0.045827  2.111316  0.073  -0.541912  0.029999  2.390662  0.049  -0.5787  0.023757  2.380521  0.04  -0.31755  -0.512488  0.034702  2.396708  0.055
O  O32  1  0.81616242  0.56240918  0.73665906  1  -0.567805  -0.045843  2.111349  -0.073  -0.541652  -0.030002  2.390646  -0.049  -0.578461  -0.02376  2.380536  -0.04  -0.31745  -0.512251  -0.034703  2.3967  -0.055
O  O33  1  0.68383206  0.06242386  0.76334650  1  -0.568033  0.045833  2.111424  0.073  -0.541906  0.03  2.390745  0.049  -0.578701  0.023758  2.380617  0.04  -0.317549  -0.512481  0.034703  2.396793  0.055
O  O34  1  0.39725837  0.24822474  0.45326356  1  -0.580427  0.039528  2.14964  0.064  -0.541601  0.027273  2.415699  0.045  -0.578477  0.02162  2.406793  0.036  -0.307465  -0.512259  0.031839  2.420978  0.051
O  O35  1  0.10274553  0.74822161  0.04673442  1  -0.580437  -0.039544  2.149754  -0.064  -0.541643  -0.027273  2.415859  -0.045  -0.578523  -0.021621  2.406933  -0.036  -0.307467  -0.512322  -0.031838  2.421152  -0.051
O  O36  1  0.60274574  0.75177512  0.54673897  1  -0.580512  0.039544  2.149592  0.064  -0.541691  0.027272  2.41566  0.045  -0.578568  0.021619  2.406747  0.036  -0.307496  -0.51235  0.031837  2.42094  0.051
O  O37  1  0.89725252  0.25177951  0.95326329  1  -0.580481  -0.039556  2.149729  -0.064  -0.541684  -0.027275  2.415831  -0.045  -0.57857  -0.021622  2.406913  -0.036  -0.307487  -0.512364  -0.03184  2.421129  -0.051
O  O38  1  0.23907383  0.46017726  0.93813305  1  -0.568457  -0.039446  2.174567  -0.063  -0.528994  -0.027991  2.445478  -0.045  -0.563379  -0.022055  2.438411  -0.036  -0.300099  -0.501503  -0.033225  2.449209  -0.052
O  O39  1  0.26092674  0.96018642  0.56185787  1  -0.568579  0.039452  2.174542  0.063  -0.529141  0.027992  2.445482  0.045  -0.563517  0.022055  2.438403  0.036  -0.30014  -0.501628  0.033226  2.449201  0.052
O  O40  1  0.76092573  0.53982260  0.06186526  1  -0.568489  -0.039456  2.174597  -0.063  -0.529033  -0.027992  2.445515  -0.045  -0.563419  -0.022056  2.438447  -0.036  -0.300123  -0.501543  -0.033226  2.449249  -0.052
O  O41  1  0.73907132  0.03981722  0.43813984  1  -0.568616  0.039455  2.174549  0.063  -0.529168  0.027992  2.445498  0.045  -0.563544  0.022055  2.438417  0.036  -0.30012  -0.501655  0.033226  2.449219  0.052
