# generated using pymatgen
data_AgH3C4O3
_symmetry_space_group_name_H-M   'P 1'
_cell_length_a   6.70848918
_cell_length_b   8.50453928
_cell_length_c   9.77457710
_cell_angle_alpha   98.10745228
_cell_angle_beta   104.22243287
_cell_angle_gamma   113.77265085
_symmetry_Int_Tables_number   1
_chemical_formula_structural   AgH3C4O3
_chemical_formula_sum   'Ag4 H12 C16 O12'
_cell_volume   476.24641592
_cell_formula_units_Z   4
loop_
 _symmetry_equiv_pos_site_id
 _symmetry_equiv_pos_as_xyz
  1  'x, y, z'
loop_
 _atom_site_type_symbol
 _atom_site_label
 _atom_site_symmetry_multiplicity
 _atom_site_fract_x
 _atom_site_fract_y
 _atom_site_fract_z
 _atom_site_occupancy
 _atom_site_hle17_bader_spin_density
 _atom_site_hle17_ddec_charge
 _atom_site_hle17_ddec_spin_density
 _atom_site_hle17_ddec_sum_bond_order
 _atom_site_hle17_magmom
 _atom_site_hse06_10hf_bader_spin_density
 _atom_site_hse06_10hf_ddec_charge
 _atom_site_hse06_10hf_ddec_spin_density
 _atom_site_hse06_10hf_ddec_sum_bond_order
 _atom_site_hse06_10hf_magmom
 _atom_site_hse06_bader_spin_density
 _atom_site_hse06_ddec_charge
 _atom_site_hse06_ddec_spin_density
 _atom_site_hse06_ddec_sum_bond_order
 _atom_site_hse06_magmom
 _atom_site_pbe_bader_spin_density
 _atom_site_pbe_cm5_charge
 _atom_site_pbe_ddec_charge
 _atom_site_pbe_ddec_spin_density
 _atom_site_pbe_ddec_sum_bond_order
 _atom_site_pbe_magmom
Ag  Ag0  1  0.39280319  0.35154568  0.05052002  1  0  0.553208  0  1.541426  0  0  0.455854  0  2.013029  0  0  0.487251  0  1.946088  0  0  0.402777  0.43411  0  2.059403  0
Ag  Ag1  1  0.60719190  0.64845154  0.94948233  1  0  0.553207  0  1.541399  0  0  0.455863  0  2.013001  0  0  0.48726  0  1.946059  0  0  0.402762  0.434119  0  2.059361  0
Ag  Ag2  1  0.22235069  0.62218261  0.09166984  1  0  0.54386  0  1.510617  0  0  0.415134  0  2.005472  0  0  0.45513  0  1.932538  0  0  0.398759  0.387039  0  2.056327  0
Ag  Ag3  1  0.77766382  0.37782417  0.90833535  1  0  0.543865  0  1.510638  0  0  0.415119  0  2.005511  0  0  0.455112  0  1.932581  0  0  0.398761  0.387022  0  2.056379  0
H  H4  1  0.46636506  0.75206699  0.43459024  1  0  0.410723  0  0.784921  0  0  0.396991  0  0.831712  0  0  0.404612  0  0.824624  0  0  0.347737  0.391589  0  0.836755  0
H  H5  1  0.53364156  0.24792788  0.56540383  1  0  0.410674  0  0.784874  0  0  0.396922  0  0.831671  0  0  0.404544  0  0.824584  0  0  0.347749  0.391522  0  0.836705  0
H  H6  1  0.23935954  0.96946365  0.04472707  1  0  0.410331  0  0.893122  0  0  0.383153  0  0.954228  0  0  0.392551  0  0.940414  0  0  0.284374  0.376449  0  0.96412  0
H  H7  1  0.76063314  0.03053485  0.95527598  1  0  0.410307  0  0.893148  0  0  0.383122  0  0.954275  0  0  0.392521  0  0.940461  0  0  0.284355  0.376418  0  0.964166  0
H  H8  1  0.09648950  0.99505651  0.13863845  1  0  0.416849  0  0.862569  0  0  0.391801  0  0.93133  0  0  0.401017  0  0.917715  0  0  0.292159  0.385281  0  0.940967  0
H  H9  1  0.90350122  0.00494869  0.86135886  1  0  0.41691  0  0.862524  0  0  0.391847  0  0.931286  0  0  0.401063  0  0.91767  0  0  0.292197  0.385318  0  0.940941  0
H  H10  1  0.77784210  0.99211122  0.63001674  1  0  0.118661  0  0.955453  0  0  0.12877  0  1.019487  0  0  0.132157  0  1.016977  0  0  0.108374  0.126265  0  1.021465  0
H  H11  1  0.22216673  0.00787968  0.36997935  1  0  0.118712  0  0.955405  0  0  0.128818  0  1.019416  0  0  0.132201  0  1.016915  0  0  0.108363  0.12628  0  1.021428  0
H  H12  1  0.59899137  0.98515213  0.17400280  1  0  0.117293  0  0.953057  0  0  0.127714  0  1.018344  0  0  0.131175  0  1.014836  0  0  0.106631  0.125013  0  1.021514  0
H  H13  1  0.40100619  0.01485180  0.82599774  1  0  0.117313  0  0.953021  0  0  0.127731  0  1.018317  0  0  0.131192  0  1.014811  0  0  0.106635  0.12503  0  1.02149  0
H  H14  1  0.18809085  0.43928758  0.49450971  1  0  0.115767  0  0.945164  0  0  0.123682  0  1.009391  0  0  0.128378  0  1.004932  0  0  0.10541  0.120262  0  1.012526  0
H  H15  1  0.81190656  0.56071896  0.50549315  1  0  0.115801  0  0.945155  0  0  0.123716  0  1.00938  0  0  0.128401  0  1.004933  0  0  0.105424  0.120298  0  1.012515  0
C  C16  1  0.16293632  0.31961486  0.73197029  1  0  0.640288  0  3.895625  0  0  0.584897  0  4.185637  0  0  0.621096  0  4.181563  0  0  0.204705  0.560536  0  4.187406  0
C  C17  1  0.83705722  0.68038234  0.26803175  1  0  0.639971  0  3.896038  0  0  0.584621  0  4.185995  0  0  0.62082  0  4.181927  0  0  0.204626  0.56026  0  4.187756  0
C  C18  1  0.99869045  0.22653219  0.57813711  1  0  -0.042176  0  3.762817  0  0  -0.015755  0  4.000763  0  0  -0.024179  0  4.023711  0  0  -0.019401  -0.01037  0  3.985366  0
C  C19  1  0.00131185  0.77346917  0.42186302  1  0  -0.041988  0  3.762704  0  0  -0.01559  0  4.000623  0  0  -0.024014  0  4.023569  0  0  -0.019357  -0.010199  0  3.985214  0
C  C20  1  0.81167378  0.05675802  0.54379311  1  0  -0.190571  0  3.717429  0  0  -0.226076  0  3.97234  0  0  -0.226828  0  3.991308  0  0  -0.096041  -0.22587  0  3.960178  0
C  C21  1  0.18832862  0.94323805  0.45620540  1  0  -0.190763  0  3.717625  0  0  -0.226229  0  3.972486  0  0  -0.226983  0  3.991451  0  0  -0.096081  -0.225987  0  3.96033  0
C  C22  1  0.67189056  0.97070304  0.39780427  1  0  0.309259  0  3.833791  0  0  0.302699  0  4.098013  0  0  0.309646  0  4.116781  0  0  0.073758  0.297762  0  4.085605  0
C  C23  1  0.32811513  0.02929577  0.60219213  1  0  0.309379  0  3.83387  0  0  0.302782  0  4.098054  0  0  0.309735  0  4.116819  0  0  0.073816  0.297832  0  4.085662  0
C  C24  1  0.71175023  0.05305874  0.28698709  1  0  -0.146099  0  3.677752  0  0  -0.180647  0  3.926972  0  0  -0.18053  0  3.944379  0  0  -0.089248  -0.181123  0  3.916067  0
C  C25  1  0.28824843  0.94693864  0.71300879  1  0  -0.14622  0  3.67787  0  0  -0.180736  0  3.927141  0  0  -0.180624  0  3.944551  0  0  -0.089248  -0.18121  0  3.916252  0
C  C26  1  0.89714605  0.22192428  0.32147053  1  0  -0.044882  0  3.770758  0  0  -0.017011  0  4.00281  0  0  -0.025778  0  4.026005  0  0  -0.017491  -0.011249  0  3.986811  0
C  C27  1  0.10285033  0.77807706  0.67852435  1  0  -0.044836  0  3.770873  0  0  -0.017098  0  4.003076  0  0  -0.025862  0  4.026267  0  0  -0.017594  -0.011331  0  3.987077  0
C  C28  1  0.04180905  0.30839495  0.46703972  1  0  -0.077843  0  3.684093  0  0  -0.12118  0  3.939668  0  0  -0.118313  0  3.956657  0  0  -0.085427  -0.122317  0  3.927625  0
C  C29  1  0.95819214  0.69160499  0.53296515  1  0  -0.077946  0  3.684062  0  0  -0.121244  0  3.939669  0  0  -0.118369  0  3.956663  0  0  -0.085438  -0.12239  0  3.927637  0
C  C30  1  0.93915698  0.31046746  0.20302762  1  0  0.656656  0  3.873587  0  0  0.60226  0  4.152759  0  0  0.638524  0  4.149005  0  0  0.210945  0.577894  0  4.15408  0
C  C31  1  0.06084354  0.68953647  0.79697554  1  0  0.656732  0  3.873728  0  0  0.602401  0  4.152852  0  0  0.638665  0  4.149095  0  0  0.21104  0.578035  0  4.154171  0
O  O32  1  0.13357136  0.23432966  0.82961315  1  0  -0.643826  0  2.143587  0  0  -0.565507  0  2.420075  0  0  -0.598482  0  2.408373  0  0  -0.323897  -0.542761  0  2.427749  0
O  O33  1  0.86642209  0.76567018  0.17039021  1  0  -0.643728  0  2.14364  0  0  -0.565443  0  2.420129  0  0  -0.598414  0  2.408422  0  0  -0.323896  -0.542693  0  2.427785  0
O  O34  1  0.32123819  0.47533348  0.75149665  1  0  -0.587428  0  2.128478  0  0  -0.514744  0  2.394549  0  0  -0.547139  0  2.384817  0  0  -0.317832  -0.492193  0  2.400232  0
O  O35  1  0.67875650  0.52466781  0.24849995  1  0  -0.587289  0  2.128777  0  0  -0.514609  0  2.394809  0  0  -0.547003  0  2.38508  0  0  -0.317781  -0.492059  0  2.400489  0
O  O36  1  0.49288728  0.80136396  0.35291645  1  0  -0.518053  0  2.219782  0  0  -0.452286  0  2.451163  0  0  -0.47358  0  2.442715  0  0  -0.347212  -0.437234  0  2.456861  0
O  O37  1  0.50712177  0.19862699  0.64707660  1  0  -0.518071  0  2.219696  0  0  -0.452226  0  2.451044  0  0  -0.473515  0  2.442581  0  0  -0.347259  -0.437173  0  2.456742  0
O  O38  1  0.78863540  0.23034581  0.07331935  1  0  -0.648955  0  2.147628  0  0  -0.558536  0  2.411387  0  0  -0.592468  0  2.398891  0  0  -0.326667  -0.534719  0  2.419139  0
O  O39  1  0.21136371  0.76965814  0.92668149  1  0  -0.648973  0  2.147664  0  0  -0.558556  0  2.411361  0  0  -0.592497  0  2.398888  0  0  -0.326653  -0.534738  0  2.419104  0
O  O40  1  0.11970980  0.45804790  0.23911654  1  0  -0.58878  0  2.118649  0  0  -0.512872  0  2.386064  0  0  -0.545447  0  2.376047  0  0  -0.31489  -0.490711  0  2.39259  0
O  O41  1  0.88029761  0.54195744  0.76088914  1  0  -0.588775  0  2.118878  0  0  -0.512887  0  2.386288  0  0  -0.545461  0  2.376267  0  0  -0.314912  -0.490723  0  2.392813  0
O  O42  1  0.23867145  0.06165492  0.11802087  1  0  -0.804257  0  1.830375  0  0  -0.748306  0  2.01805  0  0  -0.768756  0  1.986662  0  0  -0.597504  -0.733619  0  2.040117  0
O  O43  1  0.76132595  0.93834366  0.88198208  1  0  -0.804309  0  1.830353  0  0  -0.748357  0  2.018013  0  0  -0.768809  0  1.986624  0  0  -0.597525  -0.733663  0  2.040089  0
