# generated using pymatgen
data_ErCuH16C24(NO2)4
_symmetry_space_group_name_H-M   'P 1'
_cell_length_a   12.20813296
_cell_length_b   12.66102142
_cell_length_c   14.02147649
_cell_angle_alpha   77.88876961
_cell_angle_beta   64.20183842
_cell_angle_gamma   61.17721171
_symmetry_Int_Tables_number   1
_chemical_formula_structural   ErCuH16C24(NO2)4
_chemical_formula_sum   'Er2 Cu2 H32 C48 N8 O16'
_cell_volume   1709.52674883
_cell_formula_units_Z   2
loop_
 _symmetry_equiv_pos_site_id
 _symmetry_equiv_pos_as_xyz
  1  'x, y, z'
loop_
 _atom_site_type_symbol
 _atom_site_label
 _atom_site_symmetry_multiplicity
 _atom_site_fract_x
 _atom_site_fract_y
 _atom_site_fract_z
 _atom_site_occupancy
 _atom_site_hle17_bader_spin_density
 _atom_site_hle17_ddec_charge
 _atom_site_hle17_ddec_spin_density
 _atom_site_hle17_ddec_sum_bond_order
 _atom_site_hle17_magmom
 _atom_site_hse06_10hf_bader_spin_density
 _atom_site_hse06_10hf_ddec_charge
 _atom_site_hse06_10hf_ddec_spin_density
 _atom_site_hse06_10hf_ddec_sum_bond_order
 _atom_site_hse06_10hf_magmom
 _atom_site_hse06_bader_spin_density
 _atom_site_hse06_ddec_charge
 _atom_site_hse06_ddec_spin_density
 _atom_site_hse06_ddec_sum_bond_order
 _atom_site_hse06_magmom
 _atom_site_pbe_bader_spin_density
 _atom_site_pbe_cm5_charge
 _atom_site_pbe_ddec_charge
 _atom_site_pbe_ddec_spin_density
 _atom_site_pbe_ddec_sum_bond_order
 _atom_site_pbe_magmom
Er  Er0  1  0.04450442  0.50007241  0.49996742  1  0  2.121458  0  1.691014  0  0  1.977341  0  2.184182  0  0  2.029443  0  2.140395  0  0  1.528132  1.93704  0  2.220438  0
Er  Er1  1  0.29456776  0.99993133  0.99997971  1  0  2.121529  0  1.69094  0  0  1.977474  0  2.184009  0  0  2.029553  0  2.140255  0  0  1.528049  1.93718  0  2.220265  0
Cu  Cu2  1  0.78909337  0.99999226  0.99996944  1  0  0.394886  0  2.019714  0  0  0.261597  0  2.50638  0  0  0.242687  0  2.478168  0  0  0.594197  0.281098  0  2.520055  0
Cu  Cu3  1  0.53908648  0.50001135  0.49996924  1  0  0.394968  0  2.019611  0  0  0.261715  0  2.506285  0  0  0.242797  0  2.478075  0  0  0.594245  0.281269  0  2.519956  0
H  H4  1  0.02384848  0.80307165  0.88126580  1  0  0.078623  0  0.942494  0  0  0.085617  0  1.006987  0  0  0.089038  0  1.003878  0  0  0.114993  0.083155  0  1.009225  0
H  H5  1  0.70806888  0.19682332  0.11918580  1  0  0.078064  0  0.942313  0  0  0.084822  0  1.007224  0  0  0.088211  0  1.004117  0  0  0.114202  0.082329  0  1.00953  0
H  H6  1  0.57691203  0.69692400  0.38126944  1  0  0.078655  0  0.942277  0  0  0.085649  0  1.006773  0  0  0.089074  0  1.003657  0  0  0.115006  0.083181  0  1.009014  0
H  H7  1  0.65488467  0.30318402  0.61918718  1  0  0.078097  0  0.942354  0  0  0.084832  0  1.007273  0  0  0.088219  0  1.004171  0  0  0.114247  0.082332  0  1.009582  0
H  H8  1  0.66205352  0.20171966  0.88921343  1  0  0.074994  0  0.9424  0  0  0.081545  0  1.010189  0  0  0.084993  0  1.006778  0  0  0.113224  0.079002  0  1.012699  0
H  H9  1  0.75249817  0.79879760  0.11102102  1  0  0.075769  0  0.940834  0  0  0.082317  0  1.00893  0  0  0.085801  0  1.005505  0  0  0.113338  0.079734  0  1.011482  0
H  H10  1  0.61376397  0.29828777  0.38921601  1  0  0.075158  0  0.942295  0  0  0.081691  0  1.010096  0  0  0.085137  0  1.006688  0  0  0.113279  0.079143  0  1.012611  0
H  H11  1  0.30129429  0.70119877  0.61102326  1  0  0.075842  0  0.940771  0  0  0.0824  0  1.008832  0  0  0.085881  0  1.005414  0  0  0.11337  0.079814  0  1.011389  0
H  H12  1  0.72167595  0.34447663  0.74480801  1  0  0.11047  0  0.951278  0  0  0.11943  0  1.012171  0  0  0.122749  0  1.0111  0  0  0.109514  0.11705  0  1.01303  0
H  H13  1  0.81070171  0.65577942  0.25527075  1  0  0.111667  0  0.94955  0  0  0.120812  0  1.010022  0  0  0.124131  0  1.008943  0  0  0.110333  0.118435  0  1.010883  0
H  H14  1  0.81614459  0.15552777  0.24481472  1  0  0.110474  0  0.951302  0  0  0.119424  0  1.012207  0  0  0.122743  0  1.011137  0  0  0.109515  0.117044  0  1.013068  0
H  H15  1  0.21648147  0.84420871  0.75528127  1  0  0.111681  0  0.949592  0  0  0.120802  0  1.010093  0  0  0.124122  0  1.009014  0  0  0.110345  0.118425  0  1.010953  0
H  H16  1  0.11032739  0.67677480  0.72477970  1  0  0.106706  0  0.962553  0  0  0.115197  0  1.026647  0  0  0.118236  0  1.025779  0  0  0.109112  0.11297  0  1.027486  0
H  H17  1  0.51161827  0.32304158  0.27563258  1  0  0.104465  0  0.961412  0  0  0.113136  0  1.025631  0  0  0.11612  0  1.024824  0  0  0.108299  0.110931  0  1.026462  0
H  H18  1  0.53709724  0.82321198  0.22478416  1  0  0.106801  0  0.962436  0  0  0.11526  0  1.026562  0  0  0.118297  0  1.025696  0  0  0.109164  0.113031  0  1.0274  0
H  H19  1  0.58464426  0.17696169  0.77562812  1  0  0.104326  0  0.961679  0  0  0.113007  0  1.025898  0  0  0.115993  0  1.025086  0  0  0.108239  0.1108  0  1.02673  0
H  H20  1  0.02161451  0.07843992  0.92975235  1  0  0.097477  0  0.950196  0  0  0.103216  0  1.018186  0  0  0.106688  0  1.014283  0  0  0.122597  0.100603  0  1.021229  0
H  H21  1  0.03020133  0.92123936  0.06991654  1  0  0.096989  0  0.951877  0  0  0.103361  0  1.019019  0  0  0.106801  0  1.015171  0  0  0.123013  0.100768  0  1.022006  0
H  H22  1  0.85004741  0.42156957  0.42975883  1  0  0.097416  0  0.950219  0  0  0.103198  0  1.018148  0  0  0.10668  0  1.014217  0  0  0.122567  0.100563  0  1.02121  0
H  H23  1  0.70143763  0.57877140  0.56991503  1  0  0.096865  0  0.951878  0  0  0.103272  0  1.018991  0  0  0.106708  0  1.015141  0  0  0.122966  0.100677  0  1.021977  0
H  H24  1  0.09099850  0.21914339  0.79362727  1  0  0.130496  0  0.945944  0  0  0.13725  0  1.008733  0  0  0.141413  0  1.005958  0  0  0.116117  0.134272  0  1.010796  0
H  H25  1  0.10436825  0.78025509  0.20589613  1  0  0.129208  0  0.946719  0  0  0.136094  0  1.00936  0  0  0.140217  0  1.006617  0  0  0.115791  0.133156  0  1.011394  0
H  H26  1  0.06013055  0.28085826  0.29363726  1  0  0.130458  0  0.946072  0  0  0.137272  0  1.008786  0  0  0.141434  0  1.006013  0  0  0.116116  0.134294  0  1.010851  0
H  H27  1  0.63461151  0.71974133  0.70591171  1  0  0.129246  0  0.946706  0  0  0.136186  0  1.009279  0  0  0.140311  0  1.006531  0  0  0.115819  0.133246  0  1.011314  0
H  H28  1  0.70413708  0.85731944  0.73063441  1  0  0.129537  0  0.937965  0  0  0.137739  0  0.997766  0  0  0.141831  0  0.995132  0  0  0.117384  0.1348  0  0.999787  0
H  H29  1  0.29209812  0.14248972  0.26925857  1  0  0.127692  0  0.937535  0  0  0.135732  0  0.997715  0  0  0.139922  0  0.994969  0  0  0.11632  0.132711  0  0.999811  0
H  H30  1  0.31145318  0.64266826  0.23063636  1  0  0.129398  0  0.938033  0  0  0.137616  0  0.997817  0  0  0.141705  0  0.995188  0  0  0.117373  0.134679  0  0.999838  0
H  H31  1  0.18458507  0.35750571  0.76925181  1  0  0.127674  0  0.937492  0  0  0.135618  0  0.997785  0  0  0.139815  0  0.995034  0  0  0.11631  0.132599  0  0.999879  0
H  H32  1  0.63480536  0.97900338  0.88277189  1  0  0.097278  0  0.957382  0  0  0.103008  0  1.025785  0  0  0.106855  0  1.021556  0  0  0.120823  0.100159  0  1.028975  0
H  H33  1  0.49674112  0.02086388  0.11719684  1  0  0.099136  0  0.956481  0  0  0.104647  0  1.024795  0  0  0.10857  0  1.020469  0  0  0.12171  0.101678  0  1.028109  0
H  H34  1  0.36378591  0.52099431  0.38278042  1  0  0.097243  0  0.957352  0  0  0.102981  0  1.025747  0  0  0.106836  0  1.021513  0  0  0.120757  0.100129  0  1.02894  0
H  H35  1  0.26759149  0.47915392  0.61720262  1  0  0.099233  0  0.956589  0  0  0.104664  0  1.024956  0  0  0.108582  0  1.020642  0  0  0.121711  0.101692  0  1.028274  0
C  C36  1  0.95731378  0.81339368  0.84391785  1  0  0.09987  0  3.726432  0  0  0.072402  0  3.977959  0  0  0.077442  0  3.993031  0  0  0.033117  0.06905  0  3.968077  0
C  C37  1  0.61454732  0.18645978  0.15643664  1  0  0.09859  0  3.72824  0  0  0.0709  0  3.980366  0  0  0.075982  0  3.995394  0  0  0.032505  0.067517  0  3.970632  0
C  C38  1  0.52070013  0.68660178  0.34391949  1  0  0.099997  0  3.725855  0  0  0.072599  0  3.97729  0  0  0.077632  0  3.992363  0  0  0.033157  0.069246  0  3.96741  0
C  C39  1  0.55100051  0.31354437  0.65643518  1  0  0.098698  0  3.72826  0  0  0.071032  0  3.980388  0  0  0.076108  0  3.995421  0  0  0.032568  0.067651  0  3.97065  0
C  C40  1  0.75724552  0.20741707  0.86374612  1  0  0.098778  0  3.728091  0  0  0.071583  0  3.981609  0  0  0.076076  0  3.997892  0  0  0.03345  0.068592  0  3.971  0
C  C41  1  0.82820608  0.79280974  0.13630958  1  0  0.097868  0  3.723873  0  0  0.070626  0  3.977211  0  0  0.075062  0  3.993544  0  0  0.033088  0.067706  0  3.966467  0
C  C42  1  0.71465545  0.29259010  0.36374763  1  0  0.098555  0  3.728176  0  0  0.071362  0  3.981741  0  0  0.075855  0  3.998019  0  0  0.033343  0.068362  0  3.971134  0
C  C43  1  0.37101293  0.70718746  0.63631466  1  0  0.0978  0  3.723815  0  0  0.070564  0  3.97717  0  0  0.075001  0  3.993502  0  0  0.033097  0.067636  0  3.96643  0
C  C44  1  0.78983889  0.28639935  0.78457371  1  0  -0.120809  0  3.727014  0  0  -0.139211  0  3.964784  0  0  -0.144869  0  3.987507  0  0  -0.077913  -0.13563  0  3.949746  0
C  C45  1  0.86073054  0.71370278  0.21539074  1  0  -0.120341  0  3.726692  0  0  -0.138706  0  3.964117  0  0  -0.144329  0  3.986845  0  0  -0.077692  -0.135082  0  3.948971  0
C  C46  1  0.82623293  0.21360273  0.28458225  1  0  -0.120685  0  3.727249  0  0  -0.139092  0  3.96497  0  0  -0.144748  0  3.987694  0  0  -0.077883  -0.135506  0  3.949931  0
C  C47  1  0.32443294  0.78628995  0.71539909  1  0  -0.120131  0  3.726954  0  0  -0.138597  0  3.964292  0  0  -0.144225  0  3.987023  0  0  -0.077681  -0.134962  0  3.94915  0
C  C48  1  0.00489482  0.74398003  0.75753724  1  0  -0.123458  0  3.732466  0  0  -0.142139  0  3.970342  0  0  -0.147671  0  3.992739  0  0  -0.079807  -0.138664  0  3.95555  0
C  C49  1  0.50627054  0.25582176  0.24279799  1  0  -0.118401  0  3.728816  0  0  -0.137396  0  3.966603  0  0  -0.142876  0  3.989071  0  0  -0.078226  -0.13408  0  3.951893  0
C  C50  1  0.49886651  0.75601212  0.25753809  1  0  -0.123541  0  3.732404  0  0  -0.142232  0  3.970307  0  0  -0.147765  0  3.992701  0  0  -0.079852  -0.138759  0  3.955516  0
C  C51  1  0.51207749  0.24418393  0.74279679  1  0  -0.11834  0  3.729119  0  0  -0.137366  0  3.966929  0  0  -0.142844  0  3.989398  0  0  -0.078219  -0.134042  0  3.952209  0
C  C52  1  0.95421246  0.37089449  0.66809571  1  0  0.631725  0  3.934395  0  0  0.592059  0  4.218756  0  0  0.62661  0  4.208616  0  0  0.193138  0.568683  0  4.224543  0
C  C53  1  0.99331347  0.62906985  0.33173912  1  0  0.631347  0  3.932303  0  0  0.591187  0  4.217472  0  0  0.625736  0  4.207341  0  0  0.19227  0.567847  0  4.223193  0
C  C54  1  0.07510294  0.12910128  0.16810572  1  0  0.63167  0  3.934764  0  0  0.591914  0  4.219207  0  0  0.626474  0  4.209062  0  0  0.193074  0.568545  0  4.224992  0
C  C55  1  0.37237361  0.87092257  0.83175495  1  0  0.631506  0  3.932285  0  0  0.591234  0  4.217459  0  0  0.625776  0  4.207331  0  0  0.192231  0.56789  0  4.223191  0
C  C56  1  0.96243807  0.68012062  0.62485237  1  0  0.631096  0  3.93779  0  0  0.589853  0  4.224305  0  0  0.624347  0  4.213864  0  0  0.191693  0.566519  0  4.230317  0
C  C57  1  0.26717806  0.31987829  0.37509518  1  0  0.630035  0  3.933888  0  0  0.588869  0  4.219863  0  0  0.623354  0  4.209458  0  0  0.191592  0.565545  0  4.225861  0
C  C58  1  0.39256551  0.81986621  0.12484670  1  0  0.631256  0  3.937696  0  0  0.590076  0  4.224094  0  0  0.62457  0  4.213647  0  0  0.191778  0.566744  0  4.230112  0
C  C59  1  0.33703937  0.18013060  0.87510103  1  0  0.630027  0  3.93362  0  0  0.588864  0  4.219583  0  0  0.623351  0  4.209173  0  0  0.191669  0.565533  0  4.225598  0
C  C60  1  0.91268830  0.29068162  0.75609558  1  0  -0.000832  0  3.721901  0  0  0.019264  0  3.945955  0  0  0.016372  0  3.966905  0  0  0.003002  0.020992  0  3.932024  0
C  C61  1  0.95966317  0.70916390  0.24367074  1  0  -0.004126  0  3.729258  0  0  0.015704  0  3.954006  0  0  0.012733  0  3.975067  0  0  0.002595  0.017507  0  3.93993  0
C  C62  1  0.95336461  0.20931887  0.25610128  1  0  -0.000843  0  3.722165  0  0  0.019343  0  3.946136  0  0  0.016446  0  3.967091  0  0  0.002984  0.021059  0  3.932211  0
C  C63  1  0.41882032  0.79083197  0.74368653  1  0  -0.004452  0  3.72978  0  0  0.015708  0  3.954114  0  0  0.012748  0  3.97517  0  0  0.002582  0.017486  0  3.940087  0
C  C64  1  0.95718754  0.13856155  0.88765961  1  0  0.120346  0  3.666407  0  0  0.092258  0  3.920199  0  0  0.097376  0  3.934738  0  0  0.048168  0.088852  0  3.910761  0
C  C65  1  0.98369999  0.86120530  0.11207072  1  0  0.120345  0  3.664437  0  0  0.091904  0  3.918354  0  0  0.097028  0  3.932859  0  0  0.048172  0.088543  0  3.908879  0
C  C66  1  0.84574673  0.36144551  0.38766263  1  0  0.120407  0  3.666256  0  0  0.092298  0  3.920034  0  0  0.097418  0  3.934576  0  0  0.048221  0.088905  0  3.910595  0
C  C67  1  0.59490273  0.63879974  0.61207541  1  0  0.120618  0  3.66425  0  0  0.092148  0  3.918196  0  0  0.097281  0  3.932693  0  0  0.048197  0.088788  0  3.908712  0
C  C68  1  0.99622007  0.21693718  0.81050105  1  0  -0.101452  0  3.661465  0  0  -0.122737  0  3.901673  0  0  -0.127297  0  3.92177  0  0  -0.067832  -0.119712  0  3.888239  0
C  C69  1  0.02408839  0.78268469  0.18911451  1  0  -0.099785  0  3.662424  0  0  -0.121094  0  3.902878  0  0  -0.125578  0  3.92299  0  0  -0.068149  -0.118162  0  3.88944  0
C  C70  1  0.96315143  0.28306223  0.31051035  1  0  -0.101468  0  3.661601  0  0  -0.122829  0  3.901802  0  0  -0.127392  0  3.9219  0  0  -0.067861  -0.119805  0  3.888367  0
C  C71  1  0.55676201  0.71731630  0.68912619  1  0  -0.099913  0  3.662353  0  0  -0.121369  0  3.902727  0  0  -0.125858  0  3.922831  0  0  -0.068286  -0.118432  0  3.889295  0
C  C72  1  0.91454584  0.75901491  0.71408014  1  0  -0.000439  0  3.729203  0  0  0.019406  0  3.954321  0  0  0.016946  0  3.974764  0  0  0.003593  0.020814  0  3.940726  0
C  C73  1  0.38752802  0.24078547  0.28607684  1  0  -0.001316  0  3.730734  0  0  0.019211  0  3.954721  0  0  0.016685  0  3.975296  0  0  0.003997  0.020668  0  3.941025  0
C  C74  1  0.42355936  0.74097476  0.21407757  1  0  -0.000571  0  3.729256  0  0  0.01929  0  3.954319  0  0  0.016838  0  3.974746  0  0  0.003525  0.020696  0  3.940727  0
C  C75  1  0.37830270  0.25921026  0.78607494  1  0  -0.00118  0  3.730915  0  0  0.019398  0  3.954821  0  0  0.016872  0  3.975398  0  0  0.004104  0.020846  0  3.941132  0
C  C76  1  0.77929325  0.84440797  0.75961411  1  0  -0.102002  0  3.666742  0  0  -0.124212  0  3.90927  0  0  -0.128544  0  3.928849  0  0  -0.067771  -0.121418  0  3.89623  0
C  C77  1  0.38329418  0.15540098  0.24044337  1  0  -0.100768  0  3.666997  0  0  -0.123073  0  3.909105  0  0  -0.127485  0  3.928757  0  0  -0.068051  -0.120147  0  3.895963  0
C  C78  1  0.37369608  0.65558503  0.25961536  1  0  -0.101778  0  3.66666  0  0  -0.124015  0  3.90917  0  0  -0.128353  0  3.928754  0  0  -0.067732  -0.121228  0  3.896131  0
C  C79  1  0.28868951  0.34459865  0.74044442  1  0  -0.100728  0  3.667019  0  0  -0.122989  0  3.909138  0  0  -0.127408  0  3.928784  0  0  -0.068089  -0.120059  0  3.895993  0
C  C80  1  0.73974259  0.91189908  0.84545498  1  0  0.118192  0  3.660539  0  0  0.089199  0  3.915664  0  0  0.094246  0  3.930159  0  0  0.047339  0.085876  0  3.906205  0
C  C81  1  0.49717415  0.08792502  0.15465399  1  0  0.116232  0  3.659653  0  0  0.087347  0  3.914449  0  0  0.09231  0  3.928992  0  0  0.047123  0.0841  0  3.905001  0
C  C82  1  0.40162595  0.58809587  0.34545862  1  0  0.118276  0  3.660181  0  0  0.089322  0  3.915288  0  0  0.094359  0  3.929794  0  0  0.047453  0.085996  0  3.905833  0
C  C83  1  0.33508585  0.41208221  0.65465685  1  0  0.116032  0  3.65979  0  0  0.087234  0  3.914557  0  0  0.092195  0  3.929105  0  0  0.047052  0.083984  0  3.905111  0
N  N84  1  0.84042629  0.13194890  0.91352361  1  0  -0.289744  0  3.353539  0  0  -0.22379  0  3.653745  0  0  -0.229489  0  3.661168  0  0  -0.354896  -0.220847  0  3.648576  0
N  N85  1  0.88588519  0.86811519  0.08642783  1  0  -0.288868  0  3.351662  0  0  -0.22311  0  3.652065  0  0  -0.228804  0  3.659537  0  0  -0.355074  -0.220151  0  3.646739  0
N  N86  1  0.72237205  0.36805620  0.41352662  1  0  -0.289772  0  3.353543  0  0  -0.223821  0  3.65377  0  0  -0.229516  0  3.661193  0  0  -0.354943  -0.220879  0  3.648593  0
N  N87  1  0.50399926  0.63189039  0.58642897  1  0  -0.289017  0  3.351722  0  0  -0.223276  0  3.65216  0  0  -0.228965  0  3.659627  0  0  -0.355167  -0.220321  0  3.646835  0
N  N88  1  0.82681667  0.89711447  0.88779528  1  0  -0.285589  0  3.357857  0  0  -0.218183  0  3.660038  0  0  -0.223272  0  3.666814  0  0  -0.359328  -0.215636  0  3.655095  0
N  N89  1  0.61175340  0.10276024  0.11244414  1  0  -0.285159  0  3.359508  0  0  -0.217269  0  3.661012  0  0  -0.222372  0  3.667816  0  0  -0.358211  -0.214769  0  3.656137  0
N  N90  1  0.47391100  0.60288708  0.38779928  1  0  -0.285861  0  3.357492  0  0  -0.218564  0  3.659795  0  0  -0.223647  0  3.666565  0  0  -0.359428  -0.216022  0  3.65486  0
N  N91  1  0.46450008  0.39725057  0.61245161  1  0  -0.285251  0  3.359436  0  0  -0.217351  0  3.66089  0  0  -0.222448  0  3.667693  0  0  -0.358194  -0.214858  0  3.656019  0
O  O92  1  0.09006486  0.61625500  0.57561334  1  0  -0.689646  0  1.950629  0  0  -0.644344  0  2.184418  0  0  -0.668377  0  2.174275  0  0  -0.383396  -0.627205  0  2.190829  0
O  O93  1  0.28167583  0.38371493  0.42439792  1  0  -0.688893  0  1.947062  0  0  -0.643808  0  2.181055  0  0  -0.667804  0  2.170863  0  0  -0.384145  -0.626698  0  2.187497  0
O  O94  1  0.45632607  0.88373692  0.07561578  1  0  -0.689655  0  1.9507  0  0  -0.644386  0  2.184441  0  0  -0.668413  0  2.174288  0  0  -0.383365  -0.627249  0  2.190854  0
O  O95  1  0.41537656  0.11629732  0.92440231  1  0  -0.688959  0  1.946958  0  0  -0.64389  0  2.180945  0  0  -0.667887  0  2.170762  0  0  -0.384229  -0.626778  0  2.187397  0
O  O96  1  0.88929998  0.41984294  0.60701391  1  0  -0.692769  0  1.94789  0  0  -0.648904  0  2.183393  0  0  -0.673382  0  2.173568  0  0  -0.381117  -0.631459  0  2.189582  0
O  O97  1  0.91621617  0.58021560  0.39287841  1  0  -0.694382  0  1.946592  0  0  -0.650254  0  2.182358  0  0  -0.674753  0  2.17255  0  0  -0.382236  -0.632786  0  2.188525  0
O  O98  1  0.05914157  0.08014583  0.10702600  1  0  -0.69275  0  1.948016  0  0  -0.648873  0  2.183557  0  0  -0.67334  0  2.173723  0  0  -0.381076  -0.631435  0  2.189756  0
O  O99  1  0.24641993  0.91978019  0.89289250  1  0  -0.69447  0  1.946501  0  0  -0.65035  0  2.182298  0  0  -0.674832  0  2.172474  0  0  -0.382261  -0.632885  0  2.188471  0
O  O100  1  0.05552421  0.38740510  0.65450135  1  0  -0.691139  0  1.944446  0  0  -0.645301  0  2.171517  0  0  -0.670274  0  2.163329  0  0  -0.384268  -0.627542  0  2.17652  0
O  O101  1  0.09741369  0.61270788  0.34544480  1  0  -0.68774  0  1.94221  0  0  -0.641702  0  2.169437  0  0  -0.666627  0  2.161197  0  0  -0.382255  -0.623935  0  2.174416  0
O  O102  1  0.19292389  0.11259381  0.15451407  1  0  -0.691064  0  1.944494  0  0  -0.645234  0  2.171643  0  0  -0.670207  0  2.163455  0  0  -0.384224  -0.627474  0  2.176644  0
O  O103  1  0.46011154  0.88729409  0.84545770  1  0  -0.687706  0  1.941974  0  0  -0.641686  0  2.169256  0  0  -0.666606  0  2.16102  0  0  -0.382176  -0.623911  0  2.174231  0
O  O104  1  0.87489379  0.67386492  0.60216417  1  0  -0.686069  0  1.936276  0  0  -0.639891  0  2.162798  0  0  -0.664295  0  2.154154  0  0  -0.38214  -0.622568  0  2.168194  0
O  O105  1  0.15066901  0.32636642  0.39756596  1  0  -0.685571  0  1.936394  0  0  -0.639478  0  2.162715  0  0  -0.663894  0  2.154081  0  0  -0.381352  -0.622155  0  2.168131  0
O  O106  1  0.29876768  0.82612166  0.10215390  1  0  -0.686195  0  1.936182  0  0  -0.640037  0  2.162654  0  0  -0.664443  0  2.154009  0  0  -0.382154  -0.622719  0  2.168056  0
O  O107  1  0.22701177  0.17364421  0.89758101  1  0  -0.685615  0  1.936112  0  0  -0.63952  0  2.162414  0  0  -0.66394  0  2.153791  0  0  -0.381378  -0.622197  0  2.167843  0
