# generated using pymatgen
data_NdH12C11O8
_symmetry_space_group_name_H-M   'P 1'
_cell_length_a   6.30049271
_cell_length_b   8.87106532
_cell_length_c   12.39938236
_cell_angle_alpha   77.67224010
_cell_angle_beta   79.25008772
_cell_angle_gamma   70.66185712
_symmetry_Int_Tables_number   1
_chemical_formula_structural   NdH12C11O8
_chemical_formula_sum   'Nd2 H24 C22 O16'
_cell_volume   633.78641161
_cell_formula_units_Z   2
loop_
 _symmetry_equiv_pos_site_id
 _symmetry_equiv_pos_as_xyz
  1  'x, y, z'
loop_
 _atom_site_type_symbol
 _atom_site_label
 _atom_site_symmetry_multiplicity
 _atom_site_fract_x
 _atom_site_fract_y
 _atom_site_fract_z
 _atom_site_occupancy
 _atom_site_hle17_bader_spin_density
 _atom_site_hle17_ddec_charge
 _atom_site_hle17_ddec_spin_density
 _atom_site_hle17_ddec_sum_bond_order
 _atom_site_hle17_magmom
 _atom_site_hse06_10hf_bader_spin_density
 _atom_site_hse06_10hf_ddec_charge
 _atom_site_hse06_10hf_ddec_spin_density
 _atom_site_hse06_10hf_ddec_sum_bond_order
 _atom_site_hse06_10hf_magmom
 _atom_site_hse06_bader_spin_density
 _atom_site_hse06_ddec_charge
 _atom_site_hse06_ddec_spin_density
 _atom_site_hse06_ddec_sum_bond_order
 _atom_site_hse06_magmom
 _atom_site_pbe_bader_spin_density
 _atom_site_pbe_cm5_charge
 _atom_site_pbe_ddec_charge
 _atom_site_pbe_ddec_spin_density
 _atom_site_pbe_ddec_sum_bond_order
 _atom_site_pbe_magmom
Nd  Nd0  1  0.10518871  0.27100239  0.10189040  1  0  2.310107  0  1.612911  0  0  2.150431  0  2.07339  0  0  2.242214  0  1.9347  0  0  1.497267  2.118052  0  2.107305  0
Nd  Nd1  1  0.87818818  0.74029573  0.90793267  1  0  2.30587  0  1.576364  0  0  2.142507  0  2.03697  0  0  2.239609  0  1.89139  0  0  1.479942  2.111979  0  2.068834  0
H  H2  1  0.67466902  0.50355154  0.33268409  1  0  0.111431  0  0.951008  0  0  0.120605  0  1.014073  0  0  0.124003  0  1.012505  0  0  0.112065  0.117747  0  1.01612  0
H  H3  1  0.34189739  0.47955781  0.86730591  1  0  0.431143  0  0.868348  0  0  0.398107  0  0.935644  0  0  0.408886  0  0.920285  0  0  0.301886  0.390483  0  0.94671  0
H  H4  1  0.26296006  0.58129129  0.75308049  1  0  0.421681  0  0.830738  0  0  0.405487  0  0.885106  0  0  0.412799  0  0.877815  0  0  0.32227  0.400014  0  0.891511  0
H  H5  1  0.89032463  0.99333532  0.15160085  1  0  0.437212  0  0.856153  0  0  0.409433  0  0.914009  0  0  0.419979  0  0.898716  0  0  0.299802  0.401416  0  0.925779  0
H  H6  1  0.70307640  0.14463844  0.19671613  1  0  0.448539  0  0.846564  0  0  0.418588  0  0.907587  0  0  0.430269  0  0.890626  0  0  0.298939  0.410246  0  0.91975  0
H  H7  1  0.00819014  0.70670752  0.50010593  1  0  0.091208  0  0.9911  0  0  0.099447  0  1.057721  0  0  0.102547  0  1.056189  0  0  0.100216  0.096886  0  1.05939  0
H  H8  1  0.84461894  0.75385546  0.32186584  1  0  0.099642  0  0.937678  0  0  0.111322  0  0.995494  0  0  0.114365  0  0.994176  0  0  0.108661  0.10886  0  0.997024  0
H  H9  1  0.70583351  0.92135694  0.53074591  1  0  0.10053  0  0.930584  0  0  0.120003  0  0.984428  0  0  0.121412  0  0.984325  0  0  0.104237  0.119037  0  0.984545  0
H  H10  1  0.64439631  0.73757249  0.55540429  1  0  0.095677  0  0.934692  0  0  0.113223  0  0.995301  0  0  0.114335  0  0.995836  0  0  0.101174  0.112744  0  0.994467  0
H  H11  1  0.29693801  0.04038583  0.63610517  1  0  0.059091  0  0.95033  0  0  0.078041  0  1.012061  0  0  0.078704  0  1.012526  0  0  0.08715  0.077338  0  1.012058  0
H  H12  1  0.24837438  0.86077958  0.62775242  1  0  0.082785  0  0.937889  0  0  0.101302  0  0.995541  0  0  0.102879  0  0.995403  0  0  0.096221  0.099944  0  0.996003  0
H  H13  1  0.34823449  0.91713379  0.41635313  1  0  0.061997  0  0.942824  0  0  0.082466  0  1.000063  0  0  0.082803  0  1.001538  0  0  0.088405  0.08305  0  0.997318  0
H  H14  1  0.10210532  0.05558921  0.47179549  1  0  0.072832  0  0.940128  0  0  0.090289  0  1.000892  0  0  0.091531  0  1.001062  0  0  0.092237  0.089096  0  1.001329  0
H  H15  1  0.56568151  0.11603361  0.39799488  1  0  0.098575  0  0.934447  0  0  0.116569  0  0.988495  0  0  0.11903  0  0.986667  0  0  0.100349  0.114611  0  0.990128  0
H  H16  1  0.32277321  0.24761165  0.46678129  1  0  0.092729  0  0.945364  0  0  0.106931  0  1.011913  0  0  0.107795  0  1.013316  0  0  0.096567  0.107764  0  1.007774  0
H  H17  1  0.04542729  0.45792444  0.66460114  1  0  0.094885  0  0.959363  0  0  0.104815  0  1.023254  0  0  0.108152  0  1.021381  0  0  0.104999  0.10235  0  1.024562  0
H  H18  1  0.94200659  0.41683295  0.49019192  1  0  0.09525  0  0.972393  0  0  0.103785  0  1.03818  0  0  0.106479  0  1.037784  0  0  0.102205  0.101902  0  1.038283  0
H  H19  1  0.50012698  0.15228567  0.68686036  1  0  0.098846  0  0.966211  0  0  0.109076  0  1.028083  0  0  0.112058  0  1.027036  0  0  0.105647  0.107093  0  1.028433  0
H  H20  1  0.07668449  0.01701677  0.88928055  1  0  0.443409  0  0.854351  0  0  0.412133  0  0.917768  0  0  0.423036  0  0.90208  0  0  0.300699  0.404831  0  0.928269  0
H  H21  1  0.27969827  0.88010439  0.83035640  1  0  0.46033  0  0.829833  0  0  0.430771  0  0.88999  0  0  0.442053  0  0.873592  0  0  0.305585  0.422448  0  0.90217  0
H  H22  1  0.32304705  0.88543198  0.10609019  1  0  0.437288  0  0.843107  0  0  0.409886  0  0.909197  0  0  0.419015  0  0.895965  0  0  0.311847  0.403635  0  0.918256  0
H  H23  1  0.47150204  0.99339211  0.04653319  1  0  0.421235  0  0.89144  0  0  0.389662  0  0.956987  0  0  0.40113  0  0.940504  0  0  0.300853  0.380974  0  0.969813  0
H  H24  1  0.41915032  0.57670787  0.50607486  1  0  0.079022  0  0.968065  0  0  0.091608  0  1.027845  0  0  0.093949  0  1.027571  0  0  0.097106  0.089508  0  1.028102  0
H  H25  1  0.67291315  0.26351283  0.50170199  1  0  0.090467  0  0.965546  0  0  0.101008  0  1.029108  0  0  0.103749  0  1.02764  0  0  0.105588  0.098969  0  1.030174  0
C  C26  1  0.49245988  0.55948184  0.33163314  1  0  -0.08067  0  3.71535  0  0  -0.10326  0  3.964273  0  0  -0.104962  0  3.98405  0  0  -0.07901  -0.102427  0  3.949218  0
C  C27  1  0.06451518  0.68067650  0.12445844  1  0  0.686706  0  3.884109  0  0  0.63475  0  4.183338  0  0  0.668502  0  4.179007  0  0  0.223526  0.611264  0  4.19028  0
C  C28  1  0.16894091  0.65805292  0.22786580  1  0  -0.078128  0  3.728525  0  0  -0.061086  0  3.958262  0  0  -0.065662  0  3.97712  0  0  -0.004076  -0.058155  0  3.94525  0
C  C29  1  0.40394396  0.59125686  0.23063329  1  0  -0.050827  0  3.692854  0  0  -0.036826  0  3.920551  0  0  -0.039968  0  3.938133  0  0  0.002192  -0.034269  0  3.908028  0
C  C30  1  0.11674197  0.67264944  0.42450666  1  0  -0.072383  0  3.766537  0  0  -0.086637  0  4.019784  0  0  -0.088585  0  4.040111  0  0  -0.088802  -0.085576  0  4.004356  0
C  C31  1  0.02656888  0.70039167  0.32509354  1  0  -0.05986  0  3.714255  0  0  -0.083173  0  3.963538  0  0  -0.083364  0  3.982239  0  0  -0.074577  -0.082884  0  3.951417  0
C  C32  1  0.57226388  0.56546115  0.12812072  1  0  0.729926  0  3.855312  0  0  0.679175  0  4.152978  0  0  0.714527  0  4.143748  0  0  0.242681  0.655047  0  4.161112  0
C  C33  1  0.69460136  0.80906010  0.69806055  1  0  0.695879  0  3.865653  0  0  0.649372  0  4.172649  0  0  0.680938  0  4.171669  0  0  0.200543  0.628802  0  4.172579  0
C  C34  1  0.60195061  0.85213920  0.58763120  1  0  -0.258018  0  3.677114  0  0  -0.294849  0  3.925018  0  0  -0.299755  0  3.933655  0  0  -0.162781  -0.291174  0  3.917574  0
C  C35  1  0.34946410  0.94177013  0.58671070  1  0  -0.088416  0  3.679049  0  0  -0.128864  0  3.938447  0  0  -0.129206  0  3.951278  0  0  -0.167989  -0.128478  0  3.929895  0
C  C36  1  0.28739791  0.01225174  0.46898810  1  0  -0.081919  0  3.669523  0  0  -0.120533  0  3.927395  0  0  -0.121322  0  3.94158  0  0  -0.161494  -0.120607  0  3.9175  0
C  C37  1  0.37965645  0.15403700  0.41299717  1  0  -0.261767  0  3.66774  0  0  -0.299977  0  3.916511  0  0  -0.305308  0  3.924956  0  0  -0.163752  -0.296176  0  3.908963  0
C  C38  1  0.92167431  0.32804357  0.87619337  1  0  0.712406  0  3.867363  0  0  0.661054  0  4.161573  0  0  0.695521  0  4.154738  0  0  0.231943  0.637589  0  4.1694  0
C  C39  1  0.83848378  0.32257272  0.77246300  1  0  -0.068484  0  3.724081  0  0  -0.052415  0  3.951963  0  0  -0.057124  0  3.970303  0  0  -0.006052  -0.049139  0  3.93875  0
C  C40  1  0.92777294  0.38985054  0.66859495  1  0  -0.072194  0  3.733739  0  0  -0.095631  0  3.983738  0  0  -0.096015  0  4.003114  0  0  -0.080972  -0.095644  0  3.970117  0
C  C41  1  0.86863063  0.36809345  0.57136111  1  0  -0.073366  0  3.759066  0  0  -0.088213  0  4.012082  0  0  -0.090494  0  4.032751  0  0  -0.088634  -0.086594  0  3.998286  0
C  C42  1  0.62218088  0.21741085  0.68134739  1  0  -0.093919  0  3.740657  0  0  -0.115958  0  3.990243  0  0  -0.118249  0  4.01059  0  0  -0.085601  -0.114653  0  3.975786  0
C  C43  1  0.57376138  0.17448185  0.89042172  1  0  0.729556  0  3.815357  0  0  0.676068  0  4.112213  0  0  0.710972  0  4.103372  0  0  0.250948  0.652533  0  4.118988  0
C  C44  1  0.28773924  0.22901963  0.30347324  1  0  0.697575  0  3.857773  0  0  0.657467  0  4.15229  0  0  0.688749  0  4.151709  0  0  0.197782  0.635639  0  4.155573  0
C  C45  1  0.34923867  0.60049475  0.42790133  1  0  -0.06647  0  3.788946  0  0  -0.082179  0  4.044199  0  0  -0.083605  0  4.065511  0  0  -0.088017  -0.078901  0  4.024391  0
C  C46  1  0.68375187  0.23656089  0.77899466  1  0  -0.070323  0  3.73311  0  0  -0.056356  0  3.96522  0  0  -0.058814  0  3.983022  0  0  -0.003009  -0.054716  0  3.952671  0
C  C47  1  0.71701687  0.28106061  0.57793803  1  0  -0.055935  0  3.760862  0  0  -0.07103  0  4.01218  0  0  -0.071495  0  4.032028  0  0  -0.083318  -0.070417  0  3.998788  0
O  O48  1  0.90954992  0.75709173  0.69892165  1  0  -0.727292  0  1.945394  0  0  -0.681997  0  2.19284  0  0  -0.711752  0  2.183614  0  0  -0.386831  -0.664708  0  2.195644  0
O  O49  1  0.56229568  0.82524216  0.78958191  1  0  -0.704323  0  2.029606  0  0  -0.64489  0  2.268056  0  0  -0.674766  0  2.258321  0  0  -0.364821  -0.627708  0  2.273235  0
O  O50  1  0.92614869  0.45998589  0.89833342  1  0  -0.795304  0  2.140459  0  0  -0.739192  0  2.405147  0  0  -0.773644  0  2.390953  0  0  -0.398442  -0.723464  0  2.413629  0
O  O51  1  0.99301486  0.19356797  0.94049989  1  0  -0.698193  0  2.032624  0  0  -0.638381  0  2.26413  0  0  -0.6674  0  2.252152  0  0  -0.3481  -0.622241  0  2.271092  0
O  O52  1  0.27893054  0.59176866  0.82745249  1  0  -0.846418  0  1.866043  0  0  -0.800865  0  2.053633  0  0  -0.823926  0  2.026913  0  0  -0.609393  -0.78803  0  2.070772  0
O  O53  1  0.62923681  0.02343398  0.92607112  1  0  -0.68923  0  2.063746  0  0  -0.62685  0  2.305368  0  0  -0.658899  0  2.293031  0  0  -0.346346  -0.60964  0  2.312732  0
O  O54  1  0.42394943  0.28037297  0.94233438  1  0  -0.701782  0  1.983452  0  0  -0.640903  0  2.217278  0  0  -0.671682  0  2.204139  0  0  -0.343186  -0.623413  0  2.224912  0
O  O55  1  0.73050065  0.43315921  0.13420510  1  0  -0.737107  0  2.10423  0  0  -0.68355  0  2.366814  0  0  -0.715766  0  2.354348  0  0  -0.410494  -0.665577  0  2.374033  0
O  O56  1  0.87094141  0.09078371  0.18388588  1  0  -0.920546  0  1.81087  0  0  -0.871814  0  1.996255  0  0  -0.896735  0  1.960206  0  0  -0.654438  -0.857575  0  2.019687  0
O  O57  1  0.11400839  0.56240643  0.07010009  1  0  -0.795277  0  2.050331  0  0  -0.739087  0  2.311013  0  0  -0.774519  0  2.298409  0  0  -0.403348  -0.722484  0  2.319458  0
O  O58  1  0.92410879  0.81650845  0.09232649  1  0  -0.668367  0  1.989477  0  0  -0.609212  0  2.214909  0  0  -0.637344  0  2.204192  0  0  -0.330307  -0.592682  0  2.22207  0
O  O59  1  0.11462793  0.91552240  0.85795890  1  0  -0.945218  0  1.841603  0  0  -0.896803  0  2.046702  0  0  -0.923262  0  2.009911  0  0  -0.668809  -0.883391  0  2.06881  0
O  O60  1  0.55489533  0.68163937  0.04605426  1  0  -0.714201  0  1.957511  0  0  -0.659591  0  2.198843  0  0  -0.68984  0  2.184463  0  0  -0.359318  -0.64271  0  2.206977  0
O  O61  1  0.07399252  0.29027797  0.30211214  1  0  -0.705709  0  1.918955  0  0  -0.659369  0  2.157795  0  0  -0.688792  0  2.150033  0  0  -0.386836  -0.642538  0  2.162506  0
O  O62  1  0.42215804  0.22346235  0.21167096  1  0  -0.707039  0  2.015517  0  0  -0.6491  0  2.247986  0  0  -0.678956  0  2.238368  0  0  -0.369203  -0.631856  0  2.254494  0
O  O63  1  0.34376517  0.98932695  0.10769314  1  0  -0.905145  0  1.866909  0  0  -0.856787  0  2.05911  0  0  -0.880775  0  2.024874  0  0  -0.653575  -0.844022  0  2.081013  0
