# generated using pymatgen
data_Zn8H45C75NO28
_symmetry_space_group_name_H-M   'P 1'
_cell_length_a   18.53536761
_cell_length_b   20.30621572
_cell_length_c   20.94424967
_cell_angle_alpha   70.61327669
_cell_angle_beta   69.38917540
_cell_angle_gamma   68.35320785
_symmetry_Int_Tables_number   1
_chemical_formula_structural   Zn8H45C75NO28
_chemical_formula_sum   'Zn16 H90 C150 N2 O56'
_cell_volume   6670.53405666
_cell_formula_units_Z   2
loop_
 _symmetry_equiv_pos_site_id
 _symmetry_equiv_pos_as_xyz
  1  'x, y, z'
loop_
 _atom_site_type_symbol
 _atom_site_label
 _atom_site_symmetry_multiplicity
 _atom_site_fract_x
 _atom_site_fract_y
 _atom_site_fract_z
 _atom_site_occupancy
 _atom_site_pbe_bader_charge
 _atom_site_pbe_bader_spin_density
 _atom_site_pbe_cm5_charge
 _atom_site_pbe_ddec_charge
 _atom_site_pbe_ddec_spin_density
 _atom_site_pbe_ddec_sum_bond_order
 _atom_site_pbe_magmom
Zn  Zn0  1  0.36288003  0.21050103  0.53036920  1  1.314202  0  0.673173  0.956666  0  2.423505  0
Zn  Zn1  1  0.38405549  0.35843115  0.53481692  1  1.317376  0  0.674601  0.963328  0  2.365006  0
Zn  Zn2  1  0.21439346  0.35144395  0.53623109  1  1.31222  0  0.672046  0.954615  0  2.399684  0
Zn  Zn3  1  0.36057958  0.34261264  0.39641635  1  1.310972  0  0.668419  0.95449  0  2.392042  0
Zn  Zn4  1  0.80117257  0.79413756  0.10236684  1  1.290192  0  0.661585  0.94959  0  2.371295  0
Zn  Zn5  1  0.80890771  0.92112013  0.96626832  1  1.302108  0  0.660553  0.942914  0  2.414702  0
Zn  Zn6  1  0.94687464  0.77600465  0.96586459  1  1.304408  0  0.662522  0.945396  0  2.377107  0
Zn  Zn7  1  0.77649657  0.77036112  0.96244247  1  1.362931  0  0.675304  1.006039  0  2.254725  0
Zn  Zn8  1  0.63711918  0.78949971  0.46963368  1  1.314318  0  0.673176  0.95673  0  2.423493  0
Zn  Zn9  1  0.61594611  0.64156741  0.46518114  1  1.317352  0  0.674603  0.963277  0  2.365025  0
Zn  Zn10  1  0.78560399  0.64855679  0.46376758  1  1.312113  0  0.672071  0.954667  0  2.399645  0
Zn  Zn11  1  0.63941739  0.65738592  0.60358126  1  1.310964  0  0.66839  0.954467  0  2.392045  0
Zn  Zn12  1  0.19882611  0.20586482  0.89763377  1  1.290182  0  0.661576  0.949587  0  2.371224  0
Zn  Zn13  1  0.19108924  0.07887679  0.03373508  1  1.302103  0  0.660517  0.942893  0  2.414666  0
Zn  Zn14  1  0.05312488  0.22399500  0.03413377  1  1.304336  0  0.662468  0.945326  0  2.377266  0
Zn  Zn15  1  0.22350719  0.22963417  0.03755358  1  1.362912  0  0.675277  1.006069  0  2.254706  0
H  H16  1  0.45239272  0.39917394  0.24482766  1  0.602987  0  0.287803  0.380681  0  0.935592  0
H  H17  1  0.44668549  0.32254830  0.25841880  1  0.612353  0  0.276095  0.365753  0  0.974679  0
H  H18  1  0.24406645  0.06297787  0.67127607  1  0.108921  0  0.10454  0.107057  0  1.027142  0
H  H19  1  0.46450999  0.54393677  0.43183284  1  0.080526  0  0.108431  0.117373  0  0.992459  0
H  H20  1  0.93486935  0.05920389  0.83793537  1  0.113029  0  0.110194  0.118209  0  0.996277  0
H  H21  1  0.62992938  0.68433531  0.24958531  1  0.110861  0  0.110545  0.121748  0  0.994464  0
H  H22  1  0.54173056  0.44731124  0.25554139  1  0.075664  0  0.104714  0.106856  0  1.015556  0
H  H23  1  0.53835220  0.63621304  0.36066654  1  0.082011  0  0.101827  0.109528  0  1.040797  0
H  H24  1  0.87336643  0.61659156  0.83896808  1  0.070303  0  0.097777  0.097136  0  1.028749  0
H  H25  1  0.93439369  0.68202130  0.24979350  1  0.116733  0  0.111612  0.122967  0  0.997234  0
H  H26  1  0.07410402  0.46723467  0.68590558  1  0.089282  0  0.101675  0.105446  0  1.04912  0
H  H27  1  0.59576794  0.95499900  0.36510415  1  0.083526  0  0.107069  0.116197  0  1.00601  0
H  H28  1  0.50073766  0.04764387  0.43278180  1  0.111951  0  0.107521  0.115335  0  1.000249  0
H  H29  1  0.04347216  0.52045100  0.44179325  1  0.068601  0  0.106797  0.113108  0  1.008074  0
H  H30  1  0.13990319  0.86992987  0.83968247  1  0.100185  0  0.107161  0.113247  0  0.99379  0
H  H31  1  0.95730324  0.61775775  0.36818216  1  0.105294  0  0.105491  0.115349  0  1.017143  0
H  H32  1  0.68245853  0.09318262  0.06053171  1  0.108483  0  0.111127  0.119003  0  0.991053  0
H  H33  1  0.59458592  0.18726246  0.12924183  1  0.057562  0  0.105002  0.107098  0  0.995313  0
H  H34  1  0.67329757  0.92367499  0.24921439  1  0.095653  0  0.112439  0.123384  0  0.994463  0
H  H35  1  0.22899024  0.94404814  0.75161251  1  0.063468  0  0.101382  0.10387  0  1.005835  0
H  H36  1  0.51134861  0.21696288  0.24299306  1  0.095216  0  0.10649  0.106795  0  1.031027  0
H  H37  1  0.12569438  0.64400835  0.06514437  1  0.068997  0  0.108253  0.115911  0  0.99459  0
H  H38  1  0.09693125  0.63835541  0.83443191  1  0.085469  0  0.108704  0.116913  0  0.996766  0
H  H39  1  0.21710769  0.55519057  0.13894942  1  0.047139  0  0.100857  0.10292  0  1.003312  0
H  H40  1  0.23521201  0.48154245  0.25719795  1  0.098564  0  0.105766  0.112609  0  1.013866  0
H  H41  1  0.22591867  0.57476474  0.75940282  1  0.066112  0  0.102185  0.103178  0  1.001048  0
H  H42  1  0.94596773  0.53067431  0.75978341  1  0.068765  0  0.097732  0.099488  0  1.033707  0
H  H43  1  0.29725049  0.49553006  0.67417877  1  0.080772  0  0.101004  0.105316  0  1.034454  0
H  H44  1  0.95013842  0.17826595  0.75744879  1  0.066207  0  0.106025  0.107748  0  0.987657  0
H  H45  1  0.71502170  0.58259546  0.07659921  1  0.089846  0  0.10146  0.103082  0  1.016343  0
H  H46  1  0.56275040  0.95081688  0.73488758  1  0.047627  0  0.098119  0.100346  0  1.025771  0
H  H47  1  0.03747622  0.25106927  0.66554023  1  0.090997  0  0.102775  0.10532  0  1.023363  0
H  H48  1  0.50591052  0.06904803  0.65918095  1  0.093175  0  0.10138  0.103401  0  1.048704  0
H  H49  1  0.63479812  0.49426622  0.14475500  1  0.063443  0  0.101732  0.102199  0  0.993774  0
H  H50  1  0.56276016  0.26130659  0.64547707  1  0.059949  0  0.102579  0.104298  0  1.024363  0
H  H51  1  0.70233024  0.07176513  0.80712236  1  0.097112  0  0.1079  0.115011  0  1.001494  0
H  H52  1  0.64601463  0.87994279  0.82068129  1  0.116275  0  0.104753  0.112407  0  1.007515  0
H  H53  1  0.64850989  0.18977037  0.72770779  1  0.05524  0  0.1066  0.108318  0  0.987499  0
H  H54  1  0.75354016  0.63961894  0.94445251  1  0.104946  0  0.125033  0.050436  0  1.001116  0
H  H55  1  0.63572871  0.56784014  0.91627642  1  0.061378  0  0.108025  0.122281  0  0.974564  0
H  H56  1  0.68899722  0.60609172  0.83134800  1  0.065756  0  0.108519  0.128901  0  0.985488  0
H  H57  1  0.73816597  0.56473434  0.90088788  1  0.051316  0  0.109317  0.114928  0  1.008868  0
H  H58  1  0.59674678  0.74741480  0.83212816  1  0.069035  0  0.107969  0.122745  0  0.974824  0
H  H59  1  0.53722968  0.69384411  0.89978662  1  0.042973  0  0.109552  0.124758  0  0.983849  0
H  H60  1  0.56142870  0.76239876  0.91883047  1  0.090499  0  0.11677  0.135945  0  0.988952  0
H  H61  1  0.54760230  0.60082352  0.75517236  1  0.603021  0  0.287831  0.380681  0  0.935579  0
H  H62  1  0.55330746  0.67745026  0.74158247  1  0.612406  0  0.276132  0.365844  0  0.974574  0
H  H63  1  0.75593208  0.93701960  0.32873143  1  0.109264  0  0.104533  0.107024  0  1.027106  0
H  H64  1  0.53547928  0.45607159  0.56816547  1  0.080114  0  0.108409  0.11733  0  0.992563  0
H  H65  1  0.06513014  0.94079413  0.16206782  1  0.113032  0  0.110197  0.118193  0  0.99634  0
H  H66  1  0.37007338  0.31566326  0.75041429  1  0.110903  0  0.110546  0.121794  0  0.994423  0
H  H67  1  0.45826398  0.55269331  0.74446078  1  0.075308  0  0.104677  0.106836  0  1.015504  0
H  H68  1  0.46164589  0.36378934  0.63933187  1  0.082071  0  0.10185  0.109554  0  1.040789  0
H  H69  1  0.12663349  0.38341408  0.16102535  1  0.070155  0  0.097767  0.097111  0  1.028817  0
H  H70  1  0.06560430  0.31797781  0.75021029  1  0.116695  0  0.111576  0.122891  0  0.997245  0
H  H71  1  0.92589512  0.53276443  0.31409547  1  0.089314  0  0.101686  0.105444  0  1.049058  0
H  H72  1  0.40423191  0.04499411  0.63489479  1  0.083662  0  0.107033  0.116187  0  1.005946  0
H  H73  1  0.49925970  0.95234979  0.56721585  1  0.11221  0  0.107528  0.115292  0  1.000236  0
H  H74  1  0.95652310  0.47954756  0.55820729  1  0.068544  0  0.106833  0.113196  0  1.008037  0
H  H75  1  0.86009286  0.13006815  0.16032373  1  0.100106  0  0.107146  0.113231  0  0.993824  0
H  H76  1  0.04269267  0.38224245  0.63182051  1  0.105349  0  0.105473  0.115334  0  1.017187  0
H  H77  1  0.31754856  0.90681867  0.93946659  1  0.10832  0  0.111087  0.118951  0  0.99119  0
H  H78  1  0.40542148  0.81273611  0.87076060  1  0.057529  0  0.104967  0.107043  0  0.995336  0
H  H79  1  0.32670377  0.07632248  0.75078123  1  0.095673  0  0.112398  0.123383  0  0.994471  0
H  H80  1  0.77101201  0.05594662  0.24839183  1  0.063113  0  0.101388  0.103915  0  1.005801  0
H  H81  1  0.48865312  0.78303350  0.75700805  1  0.095139  0  0.106492  0.106772  0  1.031163  0
H  H82  1  0.87429877  0.35599511  0.93485811  1  0.068975  0  0.108228  0.115821  0  0.994726  0
H  H83  1  0.90306826  0.36164424  0.16556455  1  0.085606  0  0.108755  0.117024  0  0.996656  0
H  H84  1  0.78288679  0.44481780  0.86105153  1  0.047184  0  0.100876  0.101889  0  1.00438  0
H  H85  1  0.76478707  0.51846048  0.74280187  1  0.098542  0  0.105775  0.112569  0  1.013836  0
H  H86  1  0.77408097  0.42523273  0.24059764  1  0.066071  0  0.102151  0.103113  0  1.001095  0
H  H87  1  0.05403352  0.46932535  0.24021441  1  0.069024  0  0.097718  0.099442  0  1.03373  0
H  H88  1  0.70274788  0.50446959  0.32581996  1  0.080774  0  0.100991  0.105284  0  1.034496  0
H  H89  1  0.04986162  0.82173207  0.24254946  1  0.066162  0  0.106042  0.10774  0  0.987632  0
H  H90  1  0.28498152  0.41739984  0.92340226  1  0.089412  0  0.101475  0.103161  0  1.016422  0
H  H91  1  0.43725218  0.04917678  0.26511367  1  0.047701  0  0.098174  0.100377  0  1.02572  0
H  H92  1  0.96252557  0.74892876  0.33446224  1  0.090948  0  0.102757  0.105272  0  1.023355  0
H  H93  1  0.49408820  0.93095053  0.34081802  1  0.093222  0  0.101387  0.103435  0  1.048687  0
H  H94  1  0.36519973  0.50573507  0.85524383  1  0.063417  0  0.10175  0.102207  0  0.993713  0
H  H95  1  0.43723909  0.73869034  0.35452608  1  0.059825  0  0.102586  0.104293  0  1.024336  0
H  H96  1  0.29766814  0.92823452  0.19287827  1  0.096893  0  0.107912  0.114991  0  1.001619  0
H  H97  1  0.35399152  0.12005414  0.17931681  1  0.11649  0  0.104678  0.112386  0  1.007348  0
H  H98  1  0.35149076  0.81022766  0.27229599  1  0.055564  0  0.106577  0.108277  0  0.987573  0
H  H99  1  0.24646086  0.36037963  0.05554621  1  0.104961  0  0.125036  0.05045  0  1.001039  0
H  H100  1  0.36427134  0.43215788  0.08372421  1  0.061423  0  0.107999  0.122231  0  0.974575  0
H  H101  1  0.31100399  0.39390630  0.16865275  1  0.065758  0  0.108528  0.128892  0  0.985507  0
H  H102  1  0.26183448  0.43526422  0.09911197  1  0.051324  0  0.109311  0.114914  0  1.008895  0
H  H103  1  0.40325050  0.25258649  0.16787181  1  0.069015  0  0.107994  0.122794  0  0.974835  0
H  H104  1  0.46277278  0.30615173  0.10021252  1  0.042604  0  0.109575  0.124792  0  0.98384  0
H  H105  1  0.43856923  0.23759872  0.08117340  1  0.090794  0  0.116759  0.135942  0  0.988994  0
C  C106  1  0.45307630  0.43647120  0.38998482  1  1.497157  0  0.23041  0.617809  0  4.14108  0
C  C107  1  0.93789660  0.68412367  0.88782581  1  1.545777  0  0.226907  0.608852  0  4.164245  0
C  C108  1  0.97814619  0.91708571  0.89471653  1  1.546318  0  0.224638  0.600201  0  4.170598  0
C  C109  1  0.19858675  0.20456692  0.61014193  1  1.535502  0  0.22859  0.610475  0  4.15195  0
C  C110  1  0.17983043  0.08746390  0.69068494  1  -0.045743  0  -0.071861  -0.12129  0  3.914683  0
C  C111  1  0.49775993  0.54413278  0.37730624  1  0.002706  0  -0.086082  -0.09899  0  3.979388  0
C  C112  1  0.49807773  0.49092348  0.34694608  1  -0.050979  0  -0.021823  -0.042434  0  4.004959  0
C  C113  1  0.99917366  0.03491946  0.81835702  1  -0.041868  0  -0.073561  -0.1331  0  3.922256  0
C  C114  1  0.62981977  0.64307103  0.22708085  1  -0.038105  0  -0.070474  -0.12666  0  3.903728  0
C  C115  1  0.54084410  0.48903721  0.27804997  1  0.004809  0  -0.080302  -0.141124  0  3.936269  0
C  C116  1  0.98190694  0.63169998  0.84131386  1  -0.013788  0  -0.018424  -0.033032  0  3.982077  0
C  C117  1  0.13189549  0.04443263  0.74243904  1  0.044312  0  -0.0017  0.080704  0  3.987949  0
C  C118  1  0.58392102  0.59371918  0.26740414  1  -0.044464  0  -0.000658  0.077  0  3.988305  0
C  C119  1  0.14617408  0.16059073  0.66373238  1  -0.038655  0  -0.020397  -0.044088  0  3.996425  0
C  C120  1  0.53871043  0.59492890  0.33791837  1  0.032538  0  -0.084294  -0.122306  0  3.965298  0
C  C121  1  0.04732791  0.07803859  0.76706079  1  -0.038481  0  -0.000514  0.082636  0  3.996276  0
C  C122  1  0.93868158  0.60130138  0.82010720  1  -0.006079  0  -0.091043  -0.102729  0  4.006536  0
C  C123  1  0.03227869  0.96127684  0.84348324  1  -0.048629  0  -0.015205  -0.027662  0  3.981166  0
C  C124  1  0.04642832  0.60436071  0.26971999  1  -0.067191  0  -0.002225  0.07111  0  3.993959  0
C  C125  1  0.99649151  0.65445557  0.22636929  1  -0.082628  0  -0.070651  -0.130606  0  3.916591  0
C  C126  1  0.10651549  0.49074175  0.70268169  1  -0.038819  0  -0.074399  -0.123126  0  3.913119  0
C  C127  1  0.57665796  0.01226661  0.33858681  1  -0.070621  0  -0.084025  -0.13047  0  3.982916  0
C  C128  1  0.52432151  0.06313351  0.37617217  1  -0.016369  0  -0.084866  -0.093827  0  3.981628  0
C  C129  1  0.49931695  0.13770020  0.34149294  1  0.025783  0  -0.022019  -0.046728  0  4.001901  0
C  C130  1  0.60578844  0.03301255  0.26444395  1  0.001197  0  -0.001823  0.06979  0  4.002052  0
C  C131  1  0.14390816  0.49473875  0.35282599  1  0.002696  0  -0.021023  -0.043938  0  4.001929  0
C  C132  1  0.06395039  0.53656991  0.75003844  1  0.032318  0  -0.002278  0.080892  0  3.986779  0
C  C133  1  0.06533724  0.53407378  0.38486888  1  -0.006152  0  -0.083329  -0.089876  0  3.975894  0
C  C134  1  0.44200822  0.19123798  0.38378088  1  1.538164  0  0.23104  0.612798  0  4.143684  0
C  C135  1  0.11583996  0.92801003  0.81899449  1  0.009246  0  -0.083753  -0.095251  0  3.991307  0
C  C136  1  0.01802348  0.58786490  0.34411710  1  -0.014304  0  -0.084533  -0.128797  0  3.971318  0
C  C137  1  0.66014947  0.07823774  0.11734237  1  0.009356  0  -0.080595  -0.089469  0  3.983705  0
C  C138  1  0.67596788  0.63886742  0.15948428  1  -0.054241  0  -0.014228  -0.025081  0  3.965019  0
C  C139  1  0.61165331  0.12964453  0.15542619  1  -0.030873  0  -0.08652  -0.13402  0  3.990617  0
C  C140  1  0.23186169  0.42846428  0.62552799  1  1.496015  0  0.22742  0.608611  0  4.15213  0
C  C141  1  0.02469929  0.66705070  0.15407597  1  0.00039  0  -0.013171  -0.026228  0  3.972029  0
C  C142  1  0.72439160  0.69131113  0.11735533  1  1.566555  0  0.218616  0.597195  0  4.173162  0
C  C143  1  0.19428484  0.43463857  0.39653638  1  1.528486  0  0.22769  0.61009  0  4.156923  0
C  C144  1  0.65577900  0.98139768  0.22386264  1  -0.006714  0  -0.070942  -0.132716  0  3.916166  0
C  C145  1  0.68170907  0.00335619  0.15168095  1  -0.044905  0  -0.010957  -0.02431  0  3.970509  0
C  C146  1  0.16456163  0.96899772  0.77018588  1  -0.06828  0  -0.085773  -0.12746  0  3.984984  0
C  C147  1  0.18918301  0.47612362  0.67624428  1  0.011914  0  -0.020235  -0.041266  0  3.987022  0
C  C148  1  0.58213623  0.10857496  0.22944806  1  -0.038696  0  -0.004915  0.074631  0  4.009014  0
C  C149  1  0.73084546  0.94810433  0.10870408  1  1.567915  0  0.227637  0.600814  0  4.174389  0
C  C150  1  0.52892573  0.15968801  0.26960936  1  -0.122394  0  -0.076427  -0.137514  0  3.935034  0
C  C151  1  0.96913633  0.71547715  0.10906583  1  1.56201  0  0.225912  0.600604  0  4.175011  0
C  C152  1  0.10539442  0.63193606  0.12219888  1  -0.000669  0  -0.084034  -0.095007  0  3.994519  0
C  C153  1  0.06496785  0.61424114  0.81766394  1  -0.021827  0  -0.073839  -0.130655  0  3.916765  0
C  C154  1  0.15528153  0.58300448  0.16307156  1  -0.061827  0  -0.091568  -0.14167  0  4.005197  0
C  C155  1  0.10791321  0.56731910  0.77120390  1  0.008764  0  -0.001976  0.079371  0  3.993142  0
C  C156  1  0.12695623  0.56646621  0.23743386  1  -0.008659  0  -0.005999  0.074761  0  4.013148  0
C  C157  1  0.58557824  0.53908776  0.23708283  1  -0.032503  0  -0.004184  0.07692  0  4.005144  0
C  C158  1  0.17435949  0.51181579  0.28061097  1  -0.036058  0  -0.077028  -0.137228  0  3.92868  0
C  C159  1  0.19275491  0.55115171  0.74337691  1  -0.074869  0  -0.087404  -0.128757  0  3.984595  0
C  C160  1  0.97886185  0.55431342  0.77609385  1  -0.084122  0  -0.088465  -0.124418  0  3.98021  0
C  C161  1  0.23257010  0.50714904  0.69655269  1  0.001892  0  -0.087496  -0.093736  0  3.990135  0
C  C162  1  0.01446544  0.15318267  0.73857262  1  0.018745  0  -0.084111  -0.126389  0  3.985162  0
C  C163  1  0.67746481  0.58478932  0.12964324  1  -0.017951  0  -0.086699  -0.094419  0  4.000671  0
C  C164  1  0.59371065  0.97702369  0.75045860  1  0.004391  0  -0.088707  -0.131529  0  3.981891  0
C  C165  1  0.58522124  0.05272017  0.72166836  1  -0.025757  0  -0.002363  0.083947  0  3.985277  0
C  C166  1  0.47401460  0.21192401  0.60162641  1  1.508438  0  0.228816  0.611114  0  4.148635  0
C  C167  1  0.06245011  0.19366259  0.68790600  1  -0.058945  0  -0.086408  -0.094124  0  3.99574  0
C  C168  1  0.52849367  0.16891349  0.64823681  1  0.003433  0  -0.021949  -0.045243  0  3.996417  0
C  C169  1  0.72512895  0.93035407  0.87179232  1  1.585059  0  0.222226  0.600103  0  4.177737  0
C  C170  1  0.53721386  0.09490191  0.67456916  1  -0.043121  0  -0.074462  -0.124243  0  3.911467  0
C  C171  1  0.67835737  0.97274077  0.81826995  1  0.009629  0  -0.014236  -0.023844  0  3.973364  0
C  C172  1  0.63330594  0.53618138  0.16746361  1  -0.066683  0  -0.089861  -0.137191  0  4.006791  0
C  C173  1  0.56951467  0.20335382  0.66730858  1  -0.028808  0  -0.088687  -0.097348  0  4.000863  0
C  C174  1  0.67187208  0.04614280  0.79041591  1  -0.087345  0  -0.074992  -0.13522  0  3.924119  0
C  C175  1  0.62564438  0.08786580  0.74174216  1  0.020442  0  -0.001764  0.079444  0  3.99668  0
C  C176  1  0.63932707  0.93779830  0.79759577  1  -0.066598  0  -0.085331  -0.095188  0  3.985393  0
C  C177  1  0.61702909  0.16351934  0.71278555  1  0.001119  0  -0.08556  -0.128415  0  3.989776  0
C  C178  1  0.69926693  0.68375970  0.93448046  1  1.372387  0  0.178983  0.302662  0  4.089346  0
C  C179  1  0.68105454  0.59757970  0.88776582  1  0.288068  0  -0.126453  -0.279768  0  3.935571  0
C  C180  1  0.58318749  0.72100969  0.88841719  1  0.279358  0  -0.126879  -0.26955  0  3.895136  0
C  C181  1  0.54692116  0.56352955  0.61001623  1  1.497196  0  0.230333  0.617676  0  4.141318  0
C  C182  1  0.06210340  0.31588524  0.11216176  1  1.544976  0  0.226934  0.609104  0  4.163943  0
C  C183  1  0.02185360  0.08291504  0.10528617  1  1.545909  0  0.224618  0.600176  0  4.170538  0
C  C184  1  0.80142095  0.79543275  0.38987055  1  1.537254  0  0.228531  0.610481  0  4.151666  0
C  C185  1  0.82017048  0.91253521  0.30932319  1  -0.044843  0  -0.071737  -0.121065  0  3.914519  0
C  C186  1  0.50223291  0.45587341  0.62269068  1  0.00358  0  -0.086102  -0.09896  0  3.979641  0
C  C187  1  0.50191356  0.50908215  0.65305199  1  -0.051064  0  -0.02176  -0.042408  0  4.00485  0
C  C188  1  0.00082648  0.96508020  0.18164688  1  -0.041783  0  -0.073565  -0.133132  0  3.922254  0
C  C189  1  0.37018095  0.35693025  0.77291565  1  -0.037438  0  -0.070448  -0.126646  0  3.903733  0
C  C190  1  0.45915093  0.51096570  0.72194971  1  0.004706  0  -0.080306  -0.141112  0  3.93605  0
C  C191  1  0.01809237  0.36831110  0.15867275  1  -0.013435  0  -0.018313  -0.033159  0  3.982194  0
C  C192  1  0.86810667  0.95556430  0.25756557  1  0.044228  0  -0.00177  0.080508  0  3.988202  0
C  C193  1  0.41607804  0.40628374  0.73259236  1  -0.044166  0  -0.000637  0.076983  0  3.988438  0
C  C194  1  0.85382986  0.83941166  0.33627659  1  -0.039872  0  -0.020558  -0.044145  0  3.996405  0
C  C195  1  0.46128413  0.40507729  0.66207659  1  0.031869  0  -0.084301  -0.12231  0  3.96541  0
C  C196  1  0.95267274  0.92195943  0.23294395  1  -0.038508  0  -0.000435  0.082726  0  3.996362  0
C  C197  1  0.06131793  0.39870372  0.17988701  1  -0.005948  0  -0.090982  -0.10254  0  4.006357  0
C  C198  1  0.96772201  0.03872282  0.15651857  1  -0.048434  0  -0.015202  -0.027588  0  3.98108  0
C  C199  1  0.95357176  0.39564276  0.73028269  1  -0.067668  0  -0.002251  0.071041  0  3.993921  0
C  C200  1  0.00350703  0.34554736  0.77363501  1  -0.082337  0  -0.070584  -0.130379  0  3.916554  0
C  C201  1  0.89348166  0.50926172  0.29731476  1  -0.03909  0  -0.074367  -0.122922  0  3.912851  0
C  C202  1  0.42333965  0.98772814  0.66141374  1  -0.070284  0  -0.084044  -0.130618  0  3.982812  0
C  C203  1  0.47567915  0.93686069  0.62382759  1  -0.017011  0  -0.084789  -0.093669  0  3.981424  0
C  C204  1  0.50068207  0.86229564  0.65850968  1  0.025492  0  -0.022052  -0.046762  0  4.001922  0
C  C205  1  0.39420682  0.96698601  0.73555659  1  0.003732  0  -0.001789  0.06993  0  4.001869  0
C  C206  1  0.85609168  0.50526363  0.64717473  1  0.002948  0  -0.021027  -0.044023  0  4.001929  0
C  C207  1  0.93604786  0.46343192  0.24995914  1  0.03259  0  -0.002304  0.080749  0  3.986595  0
C  C208  1  0.93465982  0.46592642  0.61513247  1  -0.006024  0  -0.083357  -0.090008  0  3.975892  0
C  C209  1  0.55799416  0.80876004  0.61622283  1  1.537689  0  0.230978  0.612867  0  4.143488  0
C  C210  1  0.88415986  0.07198690  0.18100657  1  0.009539  0  -0.083726  -0.095212  0  3.991226  0
C  C211  1  0.98197261  0.41213475  0.65588616  1  -0.014247  0  -0.084501  -0.128708  0  3.971273  0
C  C212  1  0.33985515  0.92176410  0.88265653  1  0.009557  0  -0.080562  -0.08942  0  3.983906  0
C  C213  1  0.32403649  0.36113333  0.84051315  1  -0.054468  0  -0.014231  -0.025017  0  3.965021  0
C  C214  1  0.38834871  0.87035458  0.84457586  1  -0.030926  0  -0.086513  -0.134003  0  3.990743  0
C  C215  1  0.76813344  0.57154191  0.37446630  1  1.496109  0  0.227498  0.608751  0  4.151934  0
C  C216  1  0.97529896  0.33295495  0.84592801  1  0.000566  0  -0.013204  -0.02641  0  3.972182  0
C  C217  1  0.27561639  0.30868362  0.88264337  1  1.566783  0  0.218592  0.59717  0  4.173064  0
C  C218  1  0.80571099  0.56535999  0.60346397  1  1.528861  0  0.22768  0.610162  0  4.156641  0
C  C219  1  0.34422267  0.01860252  0.77613772  1  -0.008994  0  -0.070924  -0.132791  0  3.916147  0
C  C220  1  0.31829555  0.99664565  0.84831939  1  -0.045272  0  -0.010855  -0.024117  0  3.970519  0
C  C221  1  0.83544062  0.03099703  0.22981750  1  -0.067783  0  -0.085775  -0.127511  0  3.985131  0
C  C222  1  0.81081546  0.52387930  0.32375144  1  0.012075  0  -0.020341  -0.041585  0  3.987153  0
C  C223  1  0.41786342  0.89142252  0.77055383  1  -0.038763  0  -0.004857  0.074634  0  4.008984  0
C  C224  1  0.26915776  0.05189642  0.89129514  1  1.568081  0  0.227619  0.60066  0  4.174591  0
C  C225  1  0.47107369  0.84030838  0.73039391  1  -0.122231  0  -0.076494  -0.137556  0  3.935097  0
C  C226  1  0.03086039  0.28453341  0.89093944  1  1.562056  0  0.2258  0.600616  0  4.175331  0
C  C227  1  0.89460209  0.36806958  0.87780327  1  -0.001028  0  -0.084034  -0.094788  0  3.994053  0
C  C228  1  0.93503182  0.38576341  0.18232801  1  -0.0221  0  -0.073887  -0.130735  0  3.916898  0
C  C229  1  0.84471457  0.41700062  0.83693090  1  -0.061809  0  -0.091536  -0.140757  0  4.005141  0
C  C230  1  0.89208751  0.43268218  0.22879117  1  0.008685  0  -0.002004  0.079353  0  3.993147  0
C  C231  1  0.87304316  0.43353944  0.76256832  1  -0.008447  0  -0.006019  0.074697  0  4.012905  0
C  C232  1  0.41441795  0.46091516  0.76291553  1  -0.032363  0  -0.004171  0.076854  0  4.005168  0
C  C233  1  0.82564122  0.48818931  0.71939003  1  -0.036341  0  -0.077055  -0.137081  0  3.928689  0
C  C234  1  0.80724669  0.44884685  0.25662115  1  -0.074895  0  -0.087385  -0.128677  0  3.984718  0
C  C235  1  0.02113797  0.44568895  0.22390401  1  -0.084338  0  -0.088476  -0.124366  0  3.980091  0
C  C236  1  0.76742971  0.49284789  0.30344694  1  0.002058  0  -0.087414  -0.093592  0  3.990191  0
C  C237  1  0.98553733  0.84681590  0.26142889  1  0.018885  0  -0.084209  -0.126449  0  3.985057  0
C  C238  1  0.32253835  0.41520979  0.87035653  1  -0.01747  0  -0.086666  -0.094548  0  4.001131  0
C  C239  1  0.40629118  0.02297052  0.24954223  1  0.00388  0  -0.088719  -0.131359  0  3.98181  0
C  C240  1  0.41478100  0.94727458  0.27833216  1  -0.02551  0  -0.002421  0.083872  0  3.985423  0
C  C241  1  0.52599009  0.78807019  0.39837113  1  1.50845  0  0.22873  0.610885  0  4.148654  0
C  C242  1  0.93755176  0.80633707  0.31209782  1  -0.059099  0  -0.086314  -0.094033  0  3.995581  0
C  C243  1  0.47150862  0.83108289  0.35176317  1  0.003286  0  -0.021914  -0.045068  0  3.996409  0
C  C244  1  0.27488023  0.06964232  0.12820070  1  1.584958  0  0.222228  0.600083  0  4.177911  0
C  C245  1  0.46278957  0.90509448  0.32542855  1  -0.042849  0  -0.0744  -0.124266  0  3.911342  0
C  C246  1  0.32164961  0.02725344  0.18172448  1  0.010374  0  -0.014194  -0.023804  0  3.973215  0
C  C247  1  0.36669077  0.46381991  0.83253607  1  -0.066657  0  -0.089919  -0.137164  0  4.007008  0
C  C248  1  0.43048385  0.79664366  0.33269653  1  -0.028346  0  -0.088779  -0.097474  0  4.000859  0
C  C249  1  0.32813003  0.95385413  0.20958299  1  -0.086933  0  -0.074968  -0.135058  0  3.92413  0
C  C250  1  0.37435653  0.91212949  0.25825909  1  0.02033  0  -0.001837  0.079235  0  3.996677  0
C  C251  1  0.36067878  0.06219590  0.20240140  1  -0.067328  0  -0.085352  -0.09538  0  3.985077  0
C  C252  1  0.38297017  0.83647759  0.28721902  1  0.000417  0  -0.085464  -0.128264  0  3.989726  0
C  C253  1  0.30073725  0.31624159  0.06551399  1  1.372774  0  0.179047  0.302701  0  4.0892  0
C  C254  1  0.31894494  0.40241831  0.11223499  1  0.288004  0  -0.126469  -0.27977  0  3.935617  0
C  C255  1  0.41681107  0.27898942  0.11158357  1  0.279449  0  -0.126941  -0.269686  0  3.895284  0
N  N256  1  0.65513107  0.66716643  0.90650527  1  -1.207597  0  -0.280114  0.028439  0  3.710757  0
N  N257  1  0.34486904  0.33283322  0.09349386  1  -1.207604  0  -0.280116  0.028502  0  3.710709  0
O  O258  1  0.33111368  0.31634098  0.49839273  1  -1.232262  0  -0.574569  -1.020983  0  2.555645  0
O  O259  1  0.82980625  0.81545548  0.99948287  1  -1.206999  0  -0.563639  -1.018566  0  2.485627  0
O  O260  1  0.00579012  0.84786383  0.90439285  1  -1.147749  0  -0.314554  -0.54138  0  2.316249  0
O  O261  1  0.16384282  0.42125082  0.46289023  1  -1.157184  0  -0.313275  -0.539055  0  2.329187  0
O  O262  1  0.41688414  0.16595686  0.44921921  1  -1.181006  0  -0.310526  -0.538771  0  2.353285  0
O  O263  1  0.18889162  0.40312604  0.60898258  1  -1.179485  0  -0.317604  -0.5556  0  2.37435  0
O  O264  1  0.27382477  0.17197260  0.59211102  1  -1.185401  0  -0.318927  -0.553356  0  2.36056  0
O  O265  1  0.90787747  0.95213934  0.92419906  1  -1.183631  0  -0.319222  -0.551351  0  2.349595  0
O  O266  1  0.30820876  0.41648240  0.60215094  1  -1.161842  0  -0.312815  -0.546382  0  2.350287  0
O  O267  1  0.43574019  0.42645041  0.45643022  1  -1.141452  0  -0.311841  -0.5428  0  2.329343  0
O  O268  1  0.98079276  0.70397068  0.90999559  1  -1.167702  0  -0.318569  -0.544302  0  2.338348  0
O  O269  1  0.72447372  0.73601425  0.14857578  1  -1.163817  0  -0.321883  -0.54427  0  2.296393  0
O  O270  1  0.46260295  0.28107941  0.58253424  1  -1.170073  0  -0.315236  -0.55547  0  2.349987  0
O  O271  1  0.74796479  0.97259316  0.04238187  1  -1.163782  0  -0.312027  -0.538382  0  2.342852  0
O  O272  1  0.99974758  0.72563674  0.04291707  1  -1.151556  0  -0.313194  -0.540313  0  2.338957  0
O  O273  1  0.75082418  0.96714311  0.89384816  1  -1.16969  0  -0.323585  -0.546271  0  2.323961  0
O  O274  1  0.43501015  0.40392882  0.35717403  1  -1.177592  0  -0.321016  -0.574187  0  2.356911  0
O  O275  1  0.89598889  0.74149991  0.14037584  1  -1.178518  0  -0.313314  -0.542227  0  2.34129  0
O  O276  1  0.75050853  0.88164304  0.14146314  1  -1.177597  0  -0.311506  -0.537472  0  2.331202  0
O  O277  1  0.44187870  0.17656694  0.58456728  1  -1.182966  0  -0.318731  -0.553362  0  2.367221  0
O  O278  1  0.16503510  0.27171639  0.58619313  1  -1.18223  0  -0.316014  -0.551468  0  2.346892  0
O  O279  1  0.86146388  0.70527545  0.90112492  1  -1.176423  0  -0.313176  -0.560489  0  2.353414  0
O  O280  1  0.26390292  0.40081066  0.36413491  1  -1.178104  0  -0.322192  -0.560487  0  2.359942  0
O  O281  1  0.42160536  0.25879681  0.35200950  1  -1.188611  0  -0.312881  -0.563107  0  2.36761  0
O  O282  1  0.45128008  0.36613560  0.22057416  1  -1.236732  0  -0.625777  -0.785808  0  1.817466  0
O  O283  1  0.76187528  0.68819189  0.05418338  1  -1.185356  0  -0.318319  -0.573143  0  2.3244  0
O  O284  1  0.73492128  0.86226341  0.89141851  1  -1.192871  0  -0.312425  -0.556303  0  2.36286  0
O  O285  1  0.68196575  0.74417018  0.94809657  1  -1.138544  0  -0.293375  -0.435232  0  2.343349  0
O  O286  1  0.66888897  0.68365976  0.50160715  1  -1.232324  0  -0.574602  -1.021013  0  2.555677  0
O  O287  1  0.17019183  0.18454689  0.00051506  1  -1.206944  0  -0.563591  -1.018547  0  2.485687  0
O  O288  1  0.99421127  0.15213746  0.09561633  1  -1.147685  0  -0.314529  -0.541392  0  2.316177  0
O  O289  1  0.83615348  0.57874447  0.53711104  1  -1.157386  0  -0.31323  -0.539048  0  2.32915  0
O  O290  1  0.58311660  0.83403898  0.55078287  1  -1.180883  0  -0.310498  -0.538848  0  2.353339  0
O  O291  1  0.81110052  0.59688232  0.39101290  1  -1.179571  0  -0.317736  -0.555739  0  2.374306  0
O  O292  1  0.72618447  0.82803143  0.40790481  1  -1.187116  0  -0.318853  -0.553395  0  2.360341  0
O  O293  1  0.09212149  0.04786031  0.07580139  1  -1.183585  0  -0.3192  -0.551299  0  2.349483  0
O  O294  1  0.69178461  0.58352923  0.39783785  1  -1.161965  0  -0.312749  -0.546304  0  2.350291  0
O  O295  1  0.56425268  0.57355578  0.54357052  1  -1.141609  0  -0.311841  -0.542762  0  2.329452  0
O  O296  1  0.01921009  0.29603823  0.08998726  1  -1.167081  0  -0.31861  -0.544429  0  2.338243  0
O  O297  1  0.27553515  0.26397778  0.85142543  1  -1.163973  0  -0.321844  -0.544171  0  2.296379  0
O  O298  1  0.53740366  0.71891425  0.41746430  1  -1.169955  0  -0.315197  -0.555309  0  2.349999  0
O  O299  1  0.25203532  0.02740649  0.95761726  1  -1.163705  0  -0.312019  -0.538346  0  2.342917  0
O  O300  1  0.00024278  0.27437381  0.95708830  1  -1.151873  0  -0.31317  -0.540276  0  2.339092  0
O  O301  1  0.24917900  0.03285763  0.10614487  1  -1.169862  0  -0.323596  -0.546289  0  2.324174  0
O  O302  1  0.56498887  0.59606702  0.64283002  1  -1.177623  0  -0.320942  -0.574098  0  2.357041  0
O  O303  1  0.10400714  0.25851282  0.85962942  1  -1.178277  0  -0.313252  -0.54228  0  2.341402  0
O  O304  1  0.24949773  0.11835717  0.85853196  1  -1.177594  0  -0.31154  -0.537436  0  2.331102  0
O  O305  1  0.55813165  0.82343108  0.41541959  1  -1.183151  0  -0.318675  -0.553316  0  2.367104  0
O  O306  1  0.83496865  0.72828109  0.41381701  1  -1.182423  0  -0.315938  -0.551436  0  2.34694  0
O  O307  1  0.13853585  0.29473074  0.09886696  1  -1.176437  0  -0.313233  -0.560616  0  2.353208  0
O  O308  1  0.73609161  0.59918300  0.63587174  1  -1.178219  0  -0.322226  -0.560503  0  2.359681  0
O  O309  1  0.57839562  0.74120012  0.64799262  1  -1.18819  0  -0.312867  -0.563152  0  2.367454  0
O  O310  1  0.54870602  0.63386459  0.77942828  1  -1.236822  0  -0.625857  -0.785892  0  1.81738  0
O  O311  1  0.23813214  0.31180286  0.94581598  1  -1.185588  0  -0.318345  -0.573235  0  2.324409  0
O  O312  1  0.26509859  0.13773190  0.10856861  1  -1.192786  0  -0.31238  -0.556268  0  2.362882  0
O  O313  1  0.31804079  0.25583274  0.05189660  1  -1.138909  0  -0.293408  -0.435267  0  2.343268  0
