# generated using pymatgen
data_MnH24C36S4(N6Cl)2
_symmetry_space_group_name_H-M   'P 1'
_cell_length_a   8.09611531
_cell_length_b   10.08922705
_cell_length_c   11.75657323
_cell_angle_alpha   99.74764453
_cell_angle_beta   107.38457231
_cell_angle_gamma   96.00259474
_symmetry_Int_Tables_number   1
_chemical_formula_structural   MnH24C36S4(N6Cl)2
_chemical_formula_sum   'Mn1 H24 C36 S4 N12 Cl2'
_cell_volume   890.84598927
_cell_formula_units_Z   1
loop_
 _symmetry_equiv_pos_site_id
 _symmetry_equiv_pos_as_xyz
  1  'x, y, z'
loop_
 _atom_site_type_symbol
 _atom_site_label
 _atom_site_symmetry_multiplicity
 _atom_site_fract_x
 _atom_site_fract_y
 _atom_site_fract_z
 _atom_site_occupancy
 _atom_site_hle17_ddec_charge
 _atom_site_hle17_ddec_spin_density
 _atom_site_hle17_ddec_sum_bond_order
 _atom_site_hle17_magmom
 _atom_site_hse06_10hf_ddec_charge
 _atom_site_hse06_10hf_ddec_spin_density
 _atom_site_hse06_10hf_ddec_sum_bond_order
 _atom_site_hse06_10hf_magmom
 _atom_site_hse06_ddec_charge
 _atom_site_hse06_ddec_spin_density
 _atom_site_hse06_ddec_sum_bond_order
 _atom_site_hse06_magmom
 _atom_site_pbe_cm5_charge
 _atom_site_pbe_ddec_charge
 _atom_site_pbe_ddec_spin_density
 _atom_site_pbe_ddec_sum_bond_order
 _atom_site_pbe_magmom
Mn  Mn0  1  0.49999869  0.00000024  0.49999865  1  0.523728  -1.303874  2.836034  -1.246  0.420584  -1.201017  3.363687  -1.152  0.456588  -1.106596  3.318107  -1.055  0.502275  0.414507  -1.304167  3.374562  -1.253
H  H1  1  0.32245089  0.74591434  0.55398036  1  0.082224  -0.000494  1.00321  0.0  0.083401  -0.000169  1.081578  0.0  0.087475  -0.000149  1.076281  0.0  0.105133  0.079979  -0.000102  1.085728  0.0
H  H2  1  0.67754922  0.25408695  0.44601484  1  0.082342  -0.000489  1.003196  0.0  0.083465  -0.000169  1.0816  0.0  0.08753  -0.000149  1.076312  0.0  0.105184  0.080041  -0.000102  1.085745  0.0
H  H3  1  0.34151292  0.39555899  0.29481735  1  0.087177  -0.000272  0.971856  -0.001  0.097978  0.000269  1.036896  0.0  0.099845  0.000109  1.035219  0.0  0.09961  0.09508  0.000929  1.041799  0.0
H  H4  1  0.65849845  0.60444030  0.70518494  1  0.087223  -0.000269  0.971888  -0.001  0.098009  0.000269  1.03694  0.0  0.099877  0.000109  1.035265  0.0  0.099623  0.095112  0.000929  1.041843  0.0
H  H5  1  0.10873235  0.89923833  0.37439489  1  0.092865  -0.00034  0.975633  -0.001  0.093425  0.00058  1.051914  0.0  0.098357  0.000365  1.045043  0.0  0.111472  0.089663  0.000824  1.057475  0.0
H  H6  1  0.89127072  0.10076412  0.62561297  1  0.092907  -0.000337  0.975553  -0.001  0.09349  0.00058  1.051882  0.0  0.098428  0.000365  1.044998  0.0  0.111463  0.089725  0.000824  1.057444  0.0
H  H7  1  0.47961940  0.55672945  0.19542024  1  0.109709  0.000154  0.962317  0.0  0.115229  -2.3e-05  1.029685  0.0  0.117687  2.1e-05  1.03003  0.0  0.103057  0.113477  -4.5e-05  1.029329  0.0
H  H8  1  0.52038548  0.44326984  0.80457904  1  0.10971  0.000157  0.962288  0.0  0.115232  -2.3e-05  1.029655  0.0  0.117685  2.2e-05  1.030004  0.0  0.103062  0.113481  -4.5e-05  1.029302  0.0
H  H9  1  0.53395186  0.80523375  0.28216151  1  0.082596  -1.4e-05  0.97932  0.0  0.088593  0.000522  1.046958  0.0  0.092264  0.00038  1.042808  0.0  0.103657  0.084905  0.000679  1.051645  0.0
H  H10  1  0.46604953  0.19476755  0.71783394  1  0.082633  -1.9e-05  0.979314  0.0  0.088644  0.000522  1.046934  0.0  0.092303  0.00038  1.042798  0.0  0.103657  0.084959  0.000679  1.05162  0.0
H  H11  1  0.18372040  0.28230586  0.36342375  1  0.103207  0.000163  1.001335  0.0  0.110894  0.000151  1.068781  0.0  0.112242  9.3e-05  1.071409  0.0  0.099161  0.10927  0.000258  1.068169  0.0
H  H12  1  0.81628148  0.71769752  0.63657550  1  0.103233  0.000156  1.001283  0.0  0.11091  0.000151  1.068746  0.0  0.112258  9.3e-05  1.071376  0.0  0.09918  0.10929  0.000258  1.068139  0.0
H  H13  1  0.86605201  0.95026808  0.21146427  1  0.11203  0.000484  0.943595  0.001  0.122283  0.000258  0.999432  0.0  0.125905  0.000314  0.999177  0.0  0.102721  0.120187  0.000152  0.998864  0.0
H  H14  1  0.13395229  0.04972822  0.78854043  1  0.112049  0.000486  0.943557  0.001  0.122314  0.000258  0.999378  0.0  0.125936  0.000314  0.999122  0.0  0.102723  0.120215  0.000152  0.998815  0.0
H  H15  1  0.93707152  0.10344290  0.07494496  1  0.103232  -0.000729  0.944884  -0.002  0.111345  0.00048  1.008944  0.0  0.115531  0.000201  1.003749  0.0  0.10558  0.108868  0.000668  1.011559  0.0
H  H16  1  0.06293012  0.89654724  0.92505496  1  0.103214  -0.000735  0.944738  -0.002  0.111315  0.00048  1.008811  0.0  0.115512  0.000201  1.003627  0.0  0.105556  0.10884  0.000668  1.011432  0.0
H  H17  1  0.05361201  0.15197163  0.48740021  1  0.07427  0.000376  0.967594  0.0  0.079038  0.000281  1.037848  0.0  0.082609  0.000234  1.033963  0.0  0.102177  0.075216  0.000428  1.041791  0.0
H  H18  1  0.94638081  0.84803176  0.51259636  1  0.074311  0.000371  0.967578  0.0  0.079076  0.000281  1.037848  0.0  0.082645  0.000234  1.033963  0.0  0.102151  0.075249  0.000428  1.041801  0.0
H  H19  1  0.48204152  0.13770145  0.28689191  1  0.077279  -0.000601  0.996935  -0.001  0.083812  1.2e-05  1.0691  0.0  0.087728  -7.6e-05  1.064056  0.0  0.107276  0.081185  2.2e-05  1.072223  0.0
H  H20  1  0.51795954  0.86229790  0.71311087  1  0.077278  -0.000605  0.996962  -0.001  0.083839  1.2e-05  1.069103  0.0  0.08774  -7.6e-05  1.064072  0.0  0.107289  0.081214  2.1e-05  1.072232  0.0
H  H21  1  0.54086641  0.18304127  0.13057641  1  0.12435  0.000125  0.944965  0.0  0.135174  2.6e-05  1.001643  0.0  0.139647  -1.5e-05  0.999698  0.0  0.110063  0.131767  -9e-06  1.003136  0.0
H  H22  1  0.45913273  0.81696725  0.86942640  1  0.124362  0.000126  0.944818  0.0  0.135204  2.6e-05  1.001489  0.0  0.139681  -1.5e-05  0.999535  0.0  0.110056  0.131791  -1e-05  1.002981  0.0
H  H23  1  0.59313802  0.32483066  0.98556559  1  0.071355  -1.1e-05  0.934662  0.0  0.079302  2.9e-05  0.998634  0.0  0.082145  1.9e-05  0.995451  0.0  0.111006  0.077009  0.000109  1.001496  0.0
H  H24  1  0.40685375  0.67517378  0.01443347  1  0.071414  -2e-05  0.934676  0.0  0.079354  2.9e-05  0.998632  0.0  0.082197  1.9e-05  0.99545  0.0  0.111059  0.077062  0.000109  1.001491  0.0
C  C25  1  0.35820579  0.70089327  0.47577732  1  0.101531  0.018571  3.612259  0.013  0.058453  0.008117  3.868985  0.005  0.069546  0.00526  3.881344  0.003  0.048281  0.051575  0.007092  3.864134  0.004
C  C26  1  0.64179304  0.29910805  0.52421932  1  0.101507  0.018552  3.612339  0.013  0.058439  0.008118  3.869117  0.005  0.069564  0.00526  3.881446  0.003  0.048264  0.051562  0.007091  3.864257  0.004
C  C27  1  0.23367352  0.47402325  0.49543174  1  0.261243  0.002003  3.774002  0.002  0.258332  0.000516  4.013058  0.0  0.269765  0.000423  4.03205  0.0  0.131203  0.251405  0.001393  3.999875  0.001
C  C28  1  0.76633053  0.52597810  0.50456936  1  0.261302  0.001997  3.774105  0.002  0.258411  0.000516  4.013105  0.0  0.269815  0.000422  4.032154  0.0  0.131217  0.251486  0.001393  3.999922  0.001
C  C29  1  0.36321853  0.50501990  0.32958175  1  -0.035784  0.021522  3.701396  0.014  -0.065922  0.011815  3.954346  0.007  -0.057886  0.006411  3.969223  0.004  -0.076335  -0.075543  0.022236  3.950327  0.013
C  C30  1  0.63678895  0.49497939  0.67041890  1  -0.035813  0.021508  3.701467  0.014  -0.065934  0.011815  3.954368  0.007  -0.057901  0.006411  3.969245  0.004  -0.076322  -0.075549  0.022236  3.950353  0.013
C  C31  1  0.13546093  0.96634603  0.31660769  1  0.129486  0.033671  3.617592  0.021  0.095448  0.017091  3.876377  0.009  0.109811  0.009737  3.883025  0.005  0.047299  0.085864  0.021029  3.872113  0.012
C  C32  1  0.86454295  0.03365434  0.68339750  1  0.129389  0.033651  3.617612  0.021  0.09529  0.017089  3.876428  0.009  0.109651  0.009736  3.883078  0.005  0.047265  0.085712  0.021031  3.872163  0.012
C  C33  1  0.43916541  0.59382200  0.27389946  1  -0.119146  -0.00874  3.743236  -0.008  -0.130882  -0.001394  4.000731  -0.002  -0.139538  -0.001308  4.021211  -0.001  -0.093174  -0.124205  -0.000617  3.988726  -0.002
C  C34  1  0.56084336  0.40617728  0.72610060  1  -0.119081  -0.00876  3.743212  -0.008  -0.130832  -0.001394  4.000728  -0.002  -0.139481  -0.001306  4.021206  -0.001  -0.093185  -0.124156  -0.000617  3.988727  -0.002
C  C35  1  0.47165627  0.73312987  0.32194106  1  0.123342  0.015939  3.642465  0.01  0.088522  0.009008  3.895179  0.005  0.099222  0.005315  3.908991  0.003  0.03879  0.078166  0.015751  3.890599  0.008
C  C36  1  0.52834773  0.26687143  0.67805577  1  0.123274  0.015997  3.642593  0.01  0.088429  0.009008  3.895309  0.005  0.099145  0.00531  3.90913  0.003  0.038801  0.07806  0.015751  3.890749  0.008
C  C37  1  0.31902303  0.55969172  0.43228476  1  -0.045775  -0.006757  3.776712  -0.007  -0.024724  -0.001252  4.007657  -0.002  -0.034069  -0.001501  4.031696  -0.002  -0.010635  -0.019412  0.000464  3.994758  -0.001
C  C38  1  0.68098206  0.44030858  0.56771386  1  -0.04588  -0.006739  3.776917  -0.007  -0.024798  -0.001252  4.007766  -0.002  -0.034139  -0.001504  4.031813  -0.002  -0.010672  -0.019484  0.000464  3.994852  -0.001
C  C39  1  0.17413640  0.33400173  0.44943132  1  -0.214824  -0.001533  3.684446  -0.001  -0.23541  -0.000263  3.936938  0.0  -0.24695  -0.000344  3.959172  0.0  -0.093573  -0.228693  0.000659  3.923815  0.0
C  C40  1  0.82586395  0.66600062  0.55056663  1  -0.214917  -0.001503  3.684553  -0.001  -0.235487  -0.000263  3.937029  0.0  -0.247009  -0.000345  3.959233  0.0  -0.093604  -0.228776  0.000659  3.923922  0.0
C  C41  1  0.00030953  0.99409045  0.22299578  1  -0.104323  -0.017154  3.72712  -0.016  -0.115414  -0.002153  3.979606  -0.003  -0.122697  -0.002168  3.994898  -0.002  -0.08463  -0.110548  -0.000753  3.967695  -0.003
C  C42  1  0.99969391  0.00590789  0.77700904  1  -0.104425  -0.017161  3.727217  -0.016  -0.115502  -0.002152  3.979696  -0.003  -0.122787  -0.002167  3.994996  -0.002  -0.084594  -0.110632  -0.000752  3.967789  -0.003
C  C43  1  0.03860220  0.07743685  0.14819997  1  -0.044027  0.045685  3.69641  0.03  -0.074769  0.023725  3.952705  0.014  -0.063678  0.01211  3.962097  0.007  -0.072777  -0.079936  0.028967  3.943075  0.017
C  C44  1  0.96139925  0.92255841  0.85180147  1  -0.0439  0.045707  3.696157  0.03  -0.074612  0.02372  3.952403  0.014  -0.063544  0.012106  3.961814  0.007  -0.072751  -0.079786  0.028967  3.942788  0.017
C  C45  1  0.09990563  0.26149262  0.51752680  1  0.201893  0.000896  3.68062  0.001  0.172309  0.000305  3.942817  0.0  0.184739  0.000283  3.953376  0.0  0.061841  0.163249  0.000414  3.938036  0.0
C  C46  1  0.90009063  0.73850873  0.48247103  1  0.201914  0.000907  3.680772  0.001  0.172303  0.000305  3.942976  0.0  0.184744  0.000285  3.953523  0.0  0.061894  0.163248  0.000414  3.9382  0.0
C  C47  1  0.13644216  0.45549588  0.65619220  1  0.348238  0.000879  3.826739  0.001  0.335423  0.000209  4.1094  0.0  0.351744  0.000241  4.122153  0.0  0.239066  0.3247  0.000584  4.10026  0.0
C  C48  1  0.86356059  0.54450547  0.34380864  1  0.348395  0.000912  3.826746  0.001  0.335544  0.000209  4.109455  0.0  0.351822  0.000241  4.122284  0.0  0.23913  0.324824  0.000584  4.100309  0.0
C  C49  1  0.34347266  0.09871734  0.26611411  1  0.070775  0.025855  3.648344  0.017  0.029846  0.011385  3.901397  0.007  0.041878  0.007628  3.910425  0.004  0.041739  0.023397  0.009467  3.893928  0.005
C  C50  1  0.65652838  0.90128200  0.73388781  1  0.07069  0.025856  3.64843  0.017  0.029716  0.011381  3.901558  0.007  0.041765  0.007629  3.91059  0.004  0.041703  0.023265  0.009464  3.894099  0.005
C  C51  1  0.21565177  0.12712350  0.16727002  1  -0.051768  -0.012846  3.785067  -0.013  -0.029905  -0.002633  4.017672  -0.004  -0.039072  -0.002711  4.03921  -0.003  -0.011744  -0.023121  -0.000396  4.001055  -0.002
C  C52  1  0.78434799  0.87287585  0.83273250  1  -0.051733  -0.012844  3.784956  -0.013  -0.029835  -0.002632  4.017549  -0.004  -0.039003  -0.00271  4.039093  -0.003  -0.011725  -0.02305  -0.000395  4.000939  -0.002
C  C53  1  0.18166167  0.34017527  0.94416393  1  0.346698  0.001326  3.812208  0.001  0.336098  0.000418  4.095764  0.0  0.352906  0.000407  4.107312  0.0  0.239442  0.324581  0.000347  4.088362  0.0
C  C54  1  0.81832985  0.65982203  0.05583409  1  0.346741  0.001305  3.81227  0.001  0.336101  0.000418  4.095851  0.0  0.352904  0.000407  4.107413  0.0  0.239527  0.324578  0.000347  4.088454  0.0
C  C55  1  0.26515466  0.20912525  0.08604038  1  0.2653  0.003521  3.7743  0.003  0.263009  0.000685  4.016848  0.001  0.274372  0.000592  4.036219  0.001  0.133006  0.254158  0.002638  4.005235  0.002
C  C56  1  0.73483969  0.79087307  0.91395920  1  0.265274  0.003495  3.774169  0.003  0.262902  0.000685  4.016832  0.001  0.274264  0.000591  4.036206  0.001  0.133039  0.254052  0.002639  4.00522  0.002
C  C57  1  0.43506683  0.22774116  0.07724966  1  -0.233924  -0.003003  3.691308  -0.002  -0.250584  -0.000708  3.934543  -0.001  -0.262145  -0.000682  3.954041  -0.001  -0.093091  -0.243129  -0.000418  3.922774  -0.001
C  C58  1  0.56492993  0.77226227  0.92275282  1  -0.233867  -0.003003  3.691194  -0.002  -0.250519  -0.000708  3.934437  -0.001  -0.262083  -0.000679  3.953942  -0.001  -0.093091  -0.243051  -0.000418  3.92266  -0.001
C  C59  1  0.46392213  0.30634855  0.99636430  1  0.184442  0.002152  3.729201  0.002  0.155902  0.000757  3.99158  0.001  0.167464  0.000397  4.004278  0.0  0.059404  0.147687  0.002758  3.98358  0.002
C  C60  1  0.53607285  0.69365280  0.00363328  1  0.184286  0.002175  3.729345  0.002  0.155771  0.000756  3.991719  0.001  0.167331  0.000396  4.004416  0.0  0.059362  0.147555  0.002759  3.983717  0.002
S  S61  1  0.00047553  0.40621612  0.85931354  1  0.009291  0.000701  2.521477  0.0  -0.006678  0.0007  2.906502  0.0  -0.009673  0.000375  2.904375  0.0  0.05773  -0.004492  0.000999  2.908119  0.0
S  S62  1  0.99951593  0.59377501  0.14068022  1  0.009275  0.000702  2.521453  0.0  -0.006681  0.000701  2.906491  0.0  -0.009675  0.000374  2.904364  0.0  0.057703  -0.004495  0.000999  2.908106  0.0
S  S63  1  0.11014425  0.54952483  0.79062211  1  -0.002998  0.000539  2.446114  0.0  -0.014501  0.00053  2.825379  0.0  -0.016751  0.000261  2.820732  0.0  0.055363  -0.012763  0.001072  2.828165  0.0
S  S64  1  0.88985247  0.45047247  0.20937866  1  -0.003006  0.000536  2.44599  0.0  -0.014496  0.000529  2.825288  0.0  -0.016732  0.000261  2.820656  0.0  0.055359  -0.012756  0.001072  2.828062  0.0
N  N65  1  0.43516320  0.78774868  0.42386575  1  -0.246965  0.013416  3.282312  0.012  -0.175861  0.011491  3.549656  0.012  -0.197409  0.006948  3.569015  0.008  -0.318516  -0.164959  0.018532  3.53785  0.018
N  N66  1  0.56483822  0.21225263  0.57613141  1  -0.246991  0.013385  3.282429  0.012  -0.175859  0.01149  3.549744  0.012  -0.197432  0.006952  3.569124  0.008  -0.318531  -0.164952  0.018531  3.537924  0.018
N  N67  1  0.21305058  0.53548417  0.60056833  1  -0.419534  -0.001369  3.028742  -0.001  -0.381819  -0.000491  3.290536  -0.001  -0.399127  -0.000459  3.304715  0.0  -0.316853  -0.370494  0.000138  3.281506  0.0
N  N68  1  0.78695346  0.46451717  0.39943192  1  -0.419615  -0.001394  3.028773  -0.001  -0.381933  -0.000491  3.290627  -0.001  -0.399203  -0.000457  3.304788  0.0  -0.316901  -0.370608  0.000139  3.281591  0.0
N  N69  1  0.08047222  0.32141177  0.62269985  1  -0.378247  -0.001189  3.053734  -0.001  -0.341559  -0.000201  3.325339  0.0  -0.357782  -0.00033  3.338539  0.0  -0.317377  -0.331909  0.001507  3.317455  0.001
N  N70  1  0.91952556  0.67859060  0.37729843  1  -0.378295  -0.001208  3.053681  -0.001  -0.341589  -0.000201  3.325301  0.0  -0.357797  -0.000332  3.338508  0.0  -0.317386  -0.33194  0.001508  3.317418  0.001
N  N71  1  0.30611949  0.02275832  0.34254529  1  -0.242143  0.011772  3.288819  0.01  -0.172367  0.0154  3.558391  0.014  -0.18967  0.007538  3.571706  0.008  -0.321765  -0.161305  0.021484  3.547049  0.019
N  N72  1  0.69388352  0.97724408  0.65745830  1  -0.242035  0.011774  3.288665  0.01  -0.17228  0.015398  3.558289  0.014  -0.189583  0.007536  3.571599  0.008  -0.321738  -0.16122  0.021484  3.546957  0.019
N  N73  1  0.13780867  0.26652634  0.01849290  1  -0.419319  -0.001913  3.028654  -0.002  -0.387149  -0.000507  3.295759  -0.001  -0.404294  -0.000639  3.308961  -0.001  -0.316866  -0.376577  0.001109  3.288315  0.001
N  N74  1  0.86218478  0.73346788  0.98150423  1  -0.419274  -0.001892  3.02853  -0.002  -0.387069  -0.000506  3.295705  -0.001  -0.404213  -0.00064  3.30891  -0.001  -0.316904  -0.376498  0.00111  3.28827  0.001
N  N75  1  0.33801862  0.36331070  0.92815063  1  -0.377968  -0.002087  3.057117  -0.002  -0.341797  -0.000661  3.324959  -0.001  -0.356664  -0.000631  3.337368  -0.001  -0.316323  -0.331649  0.000739  3.31661  0.0
N  N76  1  0.66197417  0.63668657  0.07184509  1  -0.378012  -0.002084  3.057187  -0.002  -0.34184  -0.00066  3.325053  -0.001  -0.356708  -0.000631  3.337463  -0.001  -0.316405  -0.331698  0.00074  3.316723  0.0
Cl  Cl77  1  0.28745042  0.98496824  0.59895844  1  -0.487692  0.011242  1.090658  0.013  -0.454778  -0.003792  1.375709  0.001  -0.493786  -0.001348  1.362569  0.002  -0.221576  -0.419919  -0.009025  1.377767  -0.004
Cl  Cl78  1  0.71255083  0.01503210  0.40104281  1  -0.487699  0.011244  1.090669  0.013  -0.454774  -0.003792  1.37572  0.001  -0.493787  -0.001345  1.362587  0.002  -0.221576  -0.419915  -0.009025  1.377775  -0.004
