# generated using pymatgen
data_KCoH12C18(NO3)3
_symmetry_space_group_name_H-M   'P 1'
_cell_length_a   10.34861276
_cell_length_b   10.35389182
_cell_length_c   13.99998088
_cell_angle_alpha   68.29535291
_cell_angle_beta   68.29618404
_cell_angle_gamma   59.99910640
_symmetry_Int_Tables_number   1
_chemical_formula_structural   KCoH12C18(NO3)3
_chemical_formula_sum   'K2 Co2 H24 C36 N6 O18'
_cell_volume   1174.69131033
_cell_formula_units_Z   2
loop_
 _symmetry_equiv_pos_site_id
 _symmetry_equiv_pos_as_xyz
  1  'x, y, z'
loop_
 _atom_site_type_symbol
 _atom_site_label
 _atom_site_symmetry_multiplicity
 _atom_site_fract_x
 _atom_site_fract_y
 _atom_site_fract_z
 _atom_site_occupancy
 _atom_site_pbe_bader_charge
 _atom_site_pbe_bader_spin_density
 _atom_site_pbe_cm5_charge
 _atom_site_pbe_ddec_charge
 _atom_site_pbe_ddec_spin_density
 _atom_site_pbe_ddec_sum_bond_order
 _atom_site_pbe_magmom
K  K0  1  0.58815317  0.58725577  0.23776451  1  0.877784  0.000242  0.916431  0.870493  -0.000294  0.804535  0.0
K  K1  1  0.08692571  0.08720537  0.73778447  1  0.87738  0.000241  0.916293  0.869965  -0.000293  0.805581  0.0
Co  Co2  1  0.49532719  0.49528560  0.51022241  1  1.369542  2.64053  0.65204  1.048523  2.845701  2.478072  2.628
Co  Co3  1  0.99913162  0.99526107  0.01020719  1  1.37225  2.64082  0.651662  1.048586  2.845759  2.479909  2.628
H  H4  1  0.78923894  0.23123048  0.26211399  1  0.538154  -2.7e-05  0.307491  0.276865  -1e-05  0.991964  0.0
H  H5  1  0.71739478  0.78900448  0.26205541  1  0.545693  -3e-06  0.306116  0.275885  -1.7e-05  0.994221  0.0
H  H6  1  0.23102524  0.71779996  0.26185105  1  0.532637  -5.7e-05  0.308416  0.277816  -3.8e-05  0.990181  0.0
H  H7  1  0.28945593  0.21774759  0.76185553  1  0.547074  -5.7e-05  0.307914  0.276311  -3.7e-05  0.992198  0.0
H  H8  1  0.21735940  0.73128257  0.76211775  1  0.531618  -2.5e-05  0.307331  0.2772  -9e-06  0.991461  0.0
H  H9  1  0.73155353  0.28896328  0.76207314  1  0.543331  -3e-06  0.306697  0.276525  -1.7e-05  0.993312  0.0
H  H10  1  0.05738852  0.02482729  0.54227471  1  0.094483  -3.8e-05  0.113349  0.103072  -9e-05  1.013745  0.0
H  H11  1  0.37555930  0.05699434  0.54234473  1  0.113793  0.0  0.113243  0.103284  -7.4e-05  1.01286  0.0
H  H12  1  0.02505820  0.37592787  0.54212955  1  0.125011  7.3e-05  0.114798  0.104703  1.6e-05  1.008492  0.0
H  H13  1  0.55701571  0.87586933  0.04215679  1  0.116666  7.1e-05  0.114711  0.105018  1.6e-05  1.009039  0.0
H  H14  1  0.87542726  0.52485279  0.04232548  1  0.11925  -3.2e-05  0.113539  0.103157  -9e-05  1.011851  0.0
H  H15  1  0.52507716  0.55695966  0.04230499  1  0.093433  2e-06  0.112899  0.102408  -7.3e-05  1.014446  0.0
H  H16  1  0.18360534  0.91368397  0.38136810  1  0.10504  4.7e-05  0.111434  0.130759  -9e-06  1.010763  0.0
H  H17  1  0.52108658  0.18346378  0.38114869  1  0.085949  7.3e-05  0.111334  0.13066  -1.5e-05  1.010408  0.0
H  H18  1  0.91394519  0.52122905  0.38126393  1  0.106189  5.6e-05  0.111743  0.129825  -3.1e-05  1.009223  0.0
H  H19  1  0.68375092  0.02118264  0.88124769  1  0.129696  5.4e-05  0.112967  0.132843  -3.2e-05  1.007489  0.0
H  H20  1  0.02125073  0.41383922  0.88139452  1  0.103706  4.7e-05  0.110716  0.128811  -8e-06  1.010802  0.0
H  H21  1  0.41418260  0.68342358  0.88116880  1  0.108968  7.6e-05  0.110968  0.129793  -1.4e-05  1.01161  0.0
H  H22  1  0.03274679  0.02816801  0.23881144  1  0.169894  0.000309  0.128375  0.109891  -8.1e-05  1.014572  0.0
H  H23  1  0.70034351  0.03252530  0.23875909  1  0.163641  0.000308  0.128547  0.11147  -5e-06  1.014635  0.0
H  H24  1  0.02841085  0.69999090  0.23845011  1  0.164233  0.000372  0.130381  0.111626  -5e-06  1.008456  0.0
H  H25  1  0.53328987  0.19992716  0.73844383  1  0.1626  0.000377  0.12999  0.111023  -2e-06  1.009803  0.0
H  H26  1  0.20028061  0.52819638  0.73883587  1  0.164849  0.000299  0.128734  0.110337  -8.6e-05  1.014011  0.0
H  H27  1  0.52836830  0.53248830  0.73876429  1  0.171473  0.000305  0.128991  0.111408  -8e-06  1.013262  0.0
C  C28  1  0.76792075  0.24334854  0.41174295  1  1.242379  -0.003888  0.226329  0.478824  -0.004751  4.077379  -0.003
C  C29  1  0.57638192  0.76783016  0.41157070  1  1.253679  -0.001637  0.228901  0.485226  -0.002235  4.076737  -0.001
C  C30  1  0.24350784  0.57754004  0.41143514  1  1.230401  -0.003972  0.22745  0.481269  -0.004884  4.074424  -0.003
C  C31  1  0.26765130  0.07744137  0.91142460  1  1.248059  -0.003981  0.2277  0.480837  -0.004875  4.078355  -0.003
C  C32  1  0.07692193  0.74332842  0.91178645  1  1.231088  -0.003905  0.227416  0.480618  -0.004782  4.072263  -0.003
C  C33  1  0.74424521  0.26776733  0.91156641  1  1.250252  -0.001623  0.2285  0.483443  -0.002241  4.076993  -0.001
C  C34  1  0.84992531  0.18599400  0.49281005  1  -0.026334  0.000534  -0.027023  -0.215628  -0.000984  3.91901  0.001
C  C35  1  0.47158471  0.84958965  0.49289939  1  0.002645  0.002968  -0.027053  -0.218562  0.000855  3.916547  0.002
C  C36  1  0.18619737  0.47172451  0.49257375  1  -0.014247  -0.000229  -0.027183  -0.220225  -0.001478  3.917559  0.0
C  C37  1  0.34962041  0.97167725  0.99256878  1  0.002719  -0.000221  -0.028189  -0.221988  -0.001473  3.919994  0.0
C  C38  1  0.97118907  0.68599852  0.99286951  1  0.000827  0.000544  -0.027315  -0.216984  -0.000993  3.919291  0.001
C  C39  1  0.68600008  0.34958667  0.99285055  1  -0.031638  0.002957  -0.026855  -0.217057  0.000859  3.918256  0.002
C  C40  1  0.99739225  0.06886848  0.47949212  1  -0.031315  -0.004093  -0.054644  -0.00657  -0.00441  3.958577  -0.002
C  C41  1  0.45427877  0.99703284  0.47956359  1  -0.06604  -0.004711  -0.054773  -0.006403  -0.005085  3.95825  -0.003
C  C42  1  0.06904766  0.45461576  0.47928262  1  -0.067442  0.000143  -0.052271  -0.001586  -0.000152  3.95087  0.0
C  C43  1  0.49719777  0.95457185  0.97929260  1  -0.06631  0.000159  -0.051584  -0.000933  -0.000144  3.951164  0.0
C  C44  1  0.95413573  0.56893145  0.97954391  1  -0.101481  -0.004115  -0.0543  -0.005718  -0.004417  3.956016  -0.002
C  C45  1  0.56913961  0.49700904  0.97951718  1  -0.028252  -0.004673  -0.055421  -0.007176  -0.005062  3.962218  -0.003
C  C46  1  0.06902946  0.00663597  0.38981960  1  0.02769  0.000874  -0.105122  -0.185602  0.000289  4.013011  0.001
C  C47  1  0.53440476  0.06884438  0.38970486  1  0.082295  -0.000637  -0.107349  -0.189065  -0.000962  4.015584  0.0
C  C48  1  0.00686683  0.53454261  0.38964006  1  0.020652  0.000888  -0.104373  -0.18444  0.00027  4.00833  0.001
C  C49  1  0.56912625  0.03447577  0.88964119  1  0.03934  0.000859  -0.104818  -0.187166  0.000266  4.00933  0.001
C  C50  1  0.03440497  0.50676051  0.88985280  1  0.050615  0.000876  -0.105275  -0.184211  0.000285  4.011187  0.001
C  C51  1  0.50698050  0.56879956  0.88969535  1  0.023942  -0.000652  -0.106494  -0.188017  -0.000952  4.015327  0.0
C  C52  1  0.98948365  0.06667953  0.31187150  1  0.394634  -0.003168  0.062092  0.117255  -0.003704  3.899613  -0.002
C  C53  1  0.63196173  0.98928176  0.31187248  1  0.349605  -0.002062  0.061175  0.115727  -0.002286  3.903209  -0.001
C  C54  1  0.06688074  0.63197548  0.31157869  1  0.395383  0.000324  0.065379  0.120045  -0.000331  3.89377  0.0
C  C55  1  0.48972830  0.13189967  0.81157824  1  0.357743  0.000377  0.064426  0.119731  -0.000311  3.8963  0.0
C  C56  1  0.13189198  0.56676418  0.81188939  1  0.394502  -0.003169  0.062172  0.116072  -0.003714  3.896815  -0.002
C  C57  1  0.56685060  0.48923581  0.81187450  1  0.390494  -0.002044  0.062217  0.118474  -0.002282  3.899012  -0.001
C  C58  1  0.78125875  0.24785871  0.59030103  1  1.562407  -0.007308  0.205386  0.607198  -0.008462  4.215494  -0.004
C  C59  1  0.38166310  0.78032192  0.59076278  1  1.568406  -0.001293  0.209734  0.614678  -0.001888  4.202161  -0.001
C  C60  1  0.24687329  0.38132498  0.59051615  1  1.561385  -0.002969  0.208664  0.609549  -0.003643  4.203051  -0.001
C  C61  1  0.28130936  0.88133408  0.09047739  1  1.566118  -0.002951  0.208573  0.611415  -0.003639  4.203339  -0.001
C  C62  1  0.88053323  0.74786487  0.09036625  1  1.550187  -0.007294  0.20572  0.607607  -0.008462  4.212788  -0.004
C  C63  1  0.74721395  0.28035913  0.09073947  1  1.58975  -0.001305  0.210444  0.614403  -0.001873  4.204245  -0.001
N  N64  1  0.84667657  0.18054156  0.32386780  1  -1.29001  0.004042  -0.36265  -0.260052  0.002041  3.591484  0.004
N  N65  1  0.64895615  0.84645154  0.32382313  1  -1.2984  0.001341  -0.363394  -0.262719  -1.5e-05  3.586567  0.001
N  N66  1  0.18049452  0.64924594  0.32355697  1  -1.27013  0.00583  -0.361981  -0.259374  0.002918  3.586803  0.005
N  N67  1  0.34686298  0.14916364  0.82354097  1  -1.299557  0.005825  -0.362671  -0.258694  0.002915  3.588476  0.005
N  N68  1  0.14886275  0.68057122  0.82388664  1  -1.271142  0.004033  -0.362635  -0.260081  0.002034  3.587542  0.004
N  N69  1  0.68078011  0.34639036  0.82383695  1  -1.293433  0.001337  -0.36421  -0.263609  -1.2e-05  3.586152  0.001
O  O70  1  0.63141437  0.34519148  0.41092524  1  -1.175211  0.058128  -0.372922  -0.589605  0.030633  2.408596  0.049
O  O71  1  0.61027874  0.63222181  0.41043592  1  -1.16619  0.05415  -0.375183  -0.589852  0.028005  2.408624  0.047
O  O72  1  0.34461267  0.61385356  0.41069388  1  -1.165893  0.053518  -0.372601  -0.591765  0.027682  2.410839  0.046
O  O73  1  0.13098659  0.11369675  0.91063797  1  -1.164878  0.053137  -0.370944  -0.59001  0.027724  2.413712  0.046
O  O74  1  0.11243410  0.84511504  0.91096505  1  -1.167378  0.058112  -0.374419  -0.591437  0.030621  2.404782  0.049
O  O75  1  0.84698238  0.13207924  0.91048692  1  -1.175155  0.054117  -0.374859  -0.589278  0.027985  2.409046  0.047
O  O76  1  0.65202600  0.36391136  0.60044553  1  -1.155495  0.06217  -0.31953  -0.57713  0.032238  2.365545  0.055
O  O77  1  0.38962211  0.64817334  0.60320554  1  -1.159093  0.063786  -0.318639  -0.577076  0.032962  2.360208  0.055
O  O78  1  0.35942930  0.38799832  0.60349206  1  -1.155134  0.066178  -0.320225  -0.577476  0.0345  2.359519  0.055
O  O79  1  0.14906420  0.88812463  0.10338592  1  -1.162431  0.066284  -0.320634  -0.578962  0.034549  2.363991  0.055
O  O80  1  0.88341022  0.86401539  0.10043972  1  -1.15536  0.062319  -0.320257  -0.577769  0.032255  2.362889  0.055
O  O81  1  0.85899643  0.14820293  0.10322020  1  -1.177307  0.063655  -0.318958  -0.577139  0.032902  2.359768  0.055
O  O82  1  0.85632318  0.18169413  0.66211493  1  -1.214458  0.001333  -0.443961  -0.638675  -0.001015  2.203549  0.001
O  O83  1  0.29752123  0.85730649  0.66111870  1  -1.220439  0.010205  -0.43985  -0.633022  0.005142  2.202039  0.009
O  O84  1  0.18285367  0.29808170  0.66089826  1  -1.20777  0.007625  -0.438258  -0.629314  0.003645  2.20364  0.006
O  O85  1  0.35813678  0.79802798  0.16088676  1  -1.218969  0.00763  -0.437204  -0.628935  0.003645  2.202157  0.006
O  O86  1  0.79992703  0.68166083  0.16227662  1  -1.212006  0.001372  -0.442733  -0.636988  -0.000997  2.203562  0.001
O  O87  1  0.68387484  0.35733674  0.16109809  1  -1.21264  0.010208  -0.44063  -0.634328  0.005141  2.203138  0.009
