# generated using pymatgen
data_Zn3H20C30(O3F)4
_symmetry_space_group_name_H-M   'P 1'
_cell_length_a   19.47611372
_cell_length_b   19.47586479
_cell_length_c   19.47595168
_cell_angle_alpha   105.02160781
_cell_angle_beta   111.74098481
_cell_angle_gamma   111.74114408
_symmetry_Int_Tables_number   1
_chemical_formula_structural   Zn3H20C30(O3F)4
_chemical_formula_sum   'Zn6 H40 C60 O24 F8'
_cell_volume   5661.40417389
_cell_formula_units_Z   2
loop_
 _symmetry_equiv_pos_site_id
 _symmetry_equiv_pos_as_xyz
  1  'x, y, z'
loop_
 _atom_site_type_symbol
 _atom_site_label
 _atom_site_symmetry_multiplicity
 _atom_site_fract_x
 _atom_site_fract_y
 _atom_site_fract_z
 _atom_site_occupancy
 _atom_site_pbe_bader_charge
 _atom_site_pbe_bader_spin_density
 _atom_site_pbe_cm5_charge
 _atom_site_pbe_ddec_charge
 _atom_site_pbe_ddec_spin_density
 _atom_site_pbe_ddec_sum_bond_order
 _atom_site_pbe_magmom
Zn  Zn0  1  0.55946851  0.55947057  0.00000220  1  1.301742  0  0.74653  0.976473  0  2.054065  0
Zn  Zn1  1  0.00000076  0.55415787  0.55415858  1  1.300629  0  0.743257  0.983645  0  2.046257  0
Zn  Zn2  1  0.99999814  0.44583439  0.44583623  1  1.308784  0  0.743366  0.983771  0  2.046171  0
Zn  Zn3  1  0.55946718  0.00000019  0.55946987  1  1.30332  0  0.746537  0.976487  0  2.053962  0
Zn  Zn4  1  0.44052928  0.44053419  0.00000464  1  1.310852  0  0.746563  0.976454  0  2.054009  0
Zn  Zn5  1  0.44053079  0.00000371  0.44053421  1  1.309197  0  0.746552  0.97645  0  2.053963  0
H  H6  1  0.69687274  0.44316890  0.02336080  1  0.045515  0  0.08111  0.115351  0  1.015595  0
H  H7  1  0.30375742  0.76531931  0.35029887  1  0.053911  0  0.091234  0.094022  0  0.993817  0
H  H8  1  0.30312818  0.32648901  0.74629664  1  0.045174  0  0.081093  0.115315  0  1.015619  0
H  H9  1  0.23910195  0.29784691  0.63954309  1  0.042701  0  0.088482  0.119262  0  0.996915  0
H  H10  1  0.34257484  0.30819853  0.67865913  1  0.027844  0  0.084714  0.112328  0  1.010011  0
H  H11  1  0.35080192  0.43251482  0.65941950  1  0.057373  0  0.096917  0.097986  0  0.974402  0
H  H12  1  0.41501879  0.46155898  0.76532112  1  0.049126  0  0.091261  0.094073  0  0.993834  0
H  H13  1  0.58019496  0.02336017  0.32648797  1  0.041748  0  0.081122  0.115365  0  1.015634  0
H  H14  1  0.65831164  0.05874471  0.29785214  1  0.040515  0  0.088486  0.119302  0  0.996925  0
H  H15  1  0.62953916  0.96562011  0.30820131  1  -0.001313  0  0.08469  0.112296  0  1.009928  0
H  H16  1  0.77309344  0.08170537  0.43252089  1  0.05291  0  0.096939  0.097954  0  0.974403  0
H  H17  1  0.76089563  0.40043908  0.05874528  1  0.050029  0  0.08849  0.119284  0  0.996927  0
H  H18  1  0.69623095  0.04653369  0.46155817  1  0.046715  0  0.091231  0.094018  0  0.993814  0
H  H19  1  0.58019519  0.55683118  0.25370274  1  0.052195  0  0.081108  0.115027  0  1.015988  0
H  H20  1  0.65830664  0.59956032  0.36045784  1  0.040271  0  0.0885  0.119317  0  0.996838  0
H  H21  1  0.62953949  0.66391672  0.32133788  1  0.023054  0  0.084725  0.112345  0  1.0099  0
H  H22  1  0.77309632  0.69138575  0.34058182  1  0.055286  0  0.096929  0.097973  0  0.974388  0
H  H23  1  0.69623902  0.64969809  0.23468053  1  0.054051  0  0.091266  0.094041  0  0.993838  0
H  H24  1  0.69686537  0.25369966  0.67350652  1  0.04522  0  0.081119  0.11534  0  1.015646  0
H  H25  1  0.76089533  0.36045511  0.70215078  1  0.042776  0  0.088497  0.119318  0  0.996946  0
H  H26  1  0.65742040  0.32133943  0.69179707  1  0.027364  0  0.084702  0.11236  0  1.009922  0
H  H27  1  0.64919848  0.34058063  0.56748299  1  0.057364  0  0.096936  0.09797  0  0.974373  0
H  H28  1  0.65742041  0.33608357  0.96562183  1  0.025071  0  0.084715  0.112339  0  1.009918  0
H  H29  1  0.58498116  0.23467853  0.53843694  1  0.049021  0  0.091244  0.094077  0  0.993761  0
H  H30  1  0.41980905  0.67350964  0.97663943  1  0.041821  0  0.081097  0.115284  0  1.015628  0
H  H31  1  0.34169682  0.70215079  0.94125403  1  0.040329  0  0.088513  0.119299  0  0.996904  0
H  H32  1  0.37046484  0.69180056  0.03437784  1  -0.001154  0  0.084704  0.112309  0  1.009959  0
H  H33  1  0.22690927  0.56748357  0.91829349  1  0.052678  0  0.096942  0.097993  0  0.974428  0
H  H34  1  0.30376656  0.53844079  0.95346229  1  0.046631  0  0.091249  0.094054  0  0.993848  0
H  H35  1  0.30312854  0.97663767  0.55682836  1  0.045471  0  0.081104  0.115293  0  1.015634  0
H  H36  1  0.23910193  0.94125105  0.59955391  1  0.050066  0  0.088507  0.119298  0  0.996894  0
H  H37  1  0.34257576  0.03437797  0.66391203  1  0.025155  0  0.0847  0.112301  0  1.009991  0
H  H38  1  0.35080663  0.91829320  0.69138458  1  0.050965  0  0.09694  0.097985  0  0.97438  0
H  H39  1  0.64919118  0.30861497  0.08170765  1  0.050762  0  0.096944  0.097966  0  0.974405  0
H  H40  1  0.41502150  0.95346489  0.64969724  1  0.056634  0  0.091254  0.094033  0  0.993825  0
H  H41  1  0.58498076  0.35030396  0.04653698  1  0.056528  0  0.091274  0.094073  0  0.993841  0
H  H42  1  0.41980735  0.74630473  0.44316873  1  0.05209  0  0.081132  0.115062  0  1.016022  0
H  H43  1  0.34169914  0.63954949  0.40044325  1  0.040102  0  0.088505  0.119338  0  0.996874  0
H  H44  1  0.37046234  0.67866556  0.33608447  1  0.022801  0  0.084719  0.112393  0  1.009887  0
H  H45  1  0.22690418  0.65941648  0.30861562  1  0.055382  0  0.096937  0.098014  0  0.97438  0
C  C46  1  0.61745188  0.50000356  0.11745003  1  1.535399  0  0.238827  0.633253  0  4.124353  0
C  C47  1  0.50001551  0.10946660  0.60947531  1  1.690737  0  0.230703  0.655989  0  4.254602  0
C  C48  1  0.69436353  0.30673553  0.66557812  1  -0.073908  0  -0.244541  -0.350089  0  3.944713  0
C  C49  1  0.28628356  0.57331780  0.92111956  1  0.003692  0  -0.162644  -0.132674  0  3.976132  0
C  C50  1  0.35884429  0.66557851  0.97121214  1  -0.039017  0  -0.244512  -0.34991  0  3.944706  0
C  C51  1  0.34780121  0.92112054  0.63483646  1  -0.020228  0  -0.16264  -0.132601  0  3.97608  0
C  C52  1  0.30563294  0.97121142  0.61236673  1  -0.078597  0  -0.244508  -0.349925  0  3.944805  0
C  C53  1  0.65219944  0.36516372  0.07888096  1  -0.02012  0  -0.162642  -0.132579  0  3.975993  0
C  C54  1  0.69436621  0.38762955  0.02878722  1  -0.078498  0  -0.244543  -0.350069  0  3.944649  0
C  C55  1  0.28627936  0.71296184  0.36516184  1  -0.020239  0  -0.162612  -0.132216  0  3.976155  0
C  C56  1  0.35884330  0.69326841  0.38762989  1  -0.071953  0  -0.244583  -0.349923  0  3.945001  0
C  C57  1  0.34779919  0.42668107  0.71296290  1  -0.020466  0  -0.162639  -0.132384  0  3.976423  0
C  C58  1  0.49998926  0.39053412  0.89054310  1  1.690906  0  0.230573  0.65556  0  4.254915  0
C  C59  1  0.30563367  0.33442153  0.69326308  1  -0.074282  0  -0.244502  -0.349928  0  3.944799  0
C  C60  1  0.71371696  0.07887879  0.42668265  1  0.003305  0  -0.16259  -0.132481  0  3.976022  0
C  C61  1  0.64116045  0.02878654  0.33442233  1  -0.038979  0  -0.244497  -0.350048  0  3.944719  0
C  C62  1  0.71372039  0.63483729  0.28703914  1  -0.020412  0  -0.162645  -0.132255  0  3.976208  0
C  C63  1  0.64115986  0.61237112  0.30673728  1  -0.072471  0  -0.244542  -0.349757  0  3.944834  0
C  C64  1  0.65220094  0.28703710  0.57331813  1  -0.020321  0  -0.162597  -0.132268  0  3.976186  0
C  C65  1  0.49998229  0.89053888  0.39052765  1  1.694681  0  0.23066  0.655762  0  4.254836  0
C  C66  1  0.50001046  0.60946768  0.10946218  1  1.69508  0  0.230819  0.656061  0  4.254609  0
C  C67  1  0.50000912  0.67000623  0.17000804  1  0.199819  0  0.002689  -0.121258  0  3.845307  0
C  C68  1  0.50001124  0.17000970  0.67001305  1  0.200804  0  0.002627  -0.121358  0  3.845663  0
C  C69  1  0.49999437  0.32999746  0.83000016  1  0.199857  0  0.002727  -0.12108  0  3.845332  0
C  C70  1  0.38254786  0.88255043  0.49999881  1  1.535554  0  0.238897  0.632714  0  4.125088  0
C  C71  1  0.49998745  0.82999604  0.32998723  1  0.199792  0  0.002674  -0.121157  0  3.845361  0
C  C72  1  0.49999377  0.72163896  0.22163822  1  -0.36828  0  0.001525  0.029909  0  4.219773  0
C  C73  1  0.49999015  0.22163606  0.72163586  1  -0.257219  0  0.001577  0.030045  0  4.220084  0
C  C74  1  0.49999929  0.27835929  0.77835906  1  -0.368007  0  0.001471  0.029751  0  4.219835  0
C  C75  1  0.50000082  0.77835886  0.27836029  1  -0.256429  0  0.001471  0.029822  0  4.219873  0
C  C76  1  0.38254664  0.49999516  0.88255144  1  1.539686  0  0.238797  0.63326  0  4.124436  0
C  C77  1  0.70053386  0.43394522  0.16638884  1  0.099876  0  -0.01927  -0.029013  0  3.978385  0
C  C78  1  0.26755544  0.73340846  0.43394452  1  0.092402  0  -0.019262  -0.030056  0  3.979995  0
C  C79  1  0.29946629  0.46585524  0.73341156  1  0.105819  0  -0.019228  -0.03003  0  3.980017  0
C  C80  1  0.73244286  0.16638642  0.46585477  1  0.090755  0  -0.019199  -0.029025  0  3.978472  0
C  C81  1  0.73244346  0.56605524  0.26659362  1  0.092379  0  -0.019165  -0.029939  0  3.979942  0
C  C82  1  0.70053628  0.26658865  0.53414796  1  0.105878  0  -0.01921  -0.03007  0  3.979995  0
C  C83  1  0.26755717  0.53414674  0.83361213  1  0.08607  0  -0.01926  -0.029036  0  3.978506  0
C  C84  1  0.61745010  0.11744774  0.50000129  1  1.540152  0  0.238898  0.632774  0  4.125189  0
C  C85  1  0.29946536  0.83361248  0.56605486  1  0.099662  0  -0.019236  -0.029025  0  3.978571  0
C  C86  1  0.76526172  0.43668450  0.23202334  1  0.452839  0  0.108992  0.238545  0  4.022376  0
C  C87  1  0.20466128  0.67142037  0.43668486  1  0.422745  0  0.108965  0.238715  0  4.022685  0
C  C88  1  0.23473986  0.46676469  0.67142481  1  0.438429  0  0.109004  0.23887  0  4.022556  0
C  C89  1  0.79534080  0.23202123  0.46676304  1  0.41375  0  0.109049  0.238631  0  4.022317  0
C  C90  1  0.79533909  0.56331438  0.32858082  1  0.42289  0  0.108998  0.238723  0  4.022639  0
C  C91  1  0.76526018  0.32857343  0.53323576  1  0.438357  0  0.109025  0.238993  0  4.022521  0
C  C92  1  0.20466189  0.53323941  0.76797644  1  0.413694  0  0.108958  0.238448  0  4.022407  0
C  C93  1  0.23473883  0.76797590  0.56331550  1  0.452925  0  0.108976  0.238539  0  4.022382  0
C  C94  1  0.81435443  0.50000019  0.31435273  1  0.109138  0  -0.031904  -0.248121  0  3.990208  0
C  C95  1  0.18564869  0.68564563  0.50000158  1  0.10914  0  -0.031895  -0.248133  0  3.990138  0
C  C96  1  0.18564719  0.50000101  0.68564746  1  0.124842  0  -0.031872  -0.248013  0  3.990013  0
C  C97  1  0.81435318  0.31435023  0.49999886  1  0.124841  0  -0.031902  -0.248214  0  3.989962  0
C  C98  1  0.11718949  0.61718290  0.49999773  1  1.58005  0  0.22133  0.642173  0  4.142638  0
C  C99  1  0.11718641  0.49999485  0.61718487  1  1.589545  0  0.221353  0.642259  0  4.142556  0
C  C100  1  0.88280955  0.38280516  0.49999296  1  1.588937  0  0.221379  0.642304  0  4.14244  0
C  C101  1  0.88281350  0.49999656  0.38280803  1  1.579987  0  0.221433  0.642317  0  4.142406  0
C  C102  1  0.68606888  0.50000157  0.18606897  1  -0.033958  0  -0.004657  -0.082469  0  3.928205  0
C  C103  1  0.31393151  0.81393180  0.49999951  1  -0.033995  0  -0.00459  -0.082159  0  3.928407  0
C  C104  1  0.31393274  0.49999963  0.81393275  1  -0.034357  0  -0.004564  -0.082234  0  3.927975  0
C  C105  1  0.68606657  0.18606524  0.50000034  1  -0.039067  0  -0.004622  -0.082102  0  3.928228  0
O  O106  1  0.64252410  0.54478986  0.08420331  1  -1.14279  0  -0.303925  -0.541856  0  2.274163  0
O  O107  1  0.46058193  0.90226788  0.54478634  1  -1.144116  0  -0.304017  -0.54167  0  2.274349  0
O  O108  1  0.35747461  0.44167662  0.90226370  1  -1.14585  0  -0.303895  -0.541857  0  2.274403  0
O  O109  1  0.53941688  0.08420056  0.44168429  1  -1.146012  0  -0.303954  -0.541649  0  2.274415  0
O  O110  1  0.53941944  0.45521982  0.09773555  1  -1.144081  0  -0.303987  -0.541837  0  2.274231  0
O  O111  1  0.64252168  0.09773716  0.55832231  1  -1.146183  0  -0.303971  -0.541721  0  2.27443  0
O  O112  1  0.46057974  0.55831450  0.91579901  1  -1.145862  0  -0.303988  -0.541873  0  2.274248  0
O  O113  1  0.35747695  0.91579661  0.45521293  1  -1.142902  0  -0.30396  -0.541695  0  2.274424  0
O  O114  1  0.55955002  0.63742038  0.09326754  1  -1.130689  0  -0.303188  -0.539219  0  2.223456  0
O  O115  1  0.54416107  0.07787987  0.63742914  1  -1.125736  0  -0.303085  -0.539137  0  2.223301  0
O  O116  1  0.44046837  0.53373249  0.07787310  1  -1.130409  0  -0.303358  -0.539358  0  2.223425  0
O  O117  1  0.45586853  0.09327195  0.53373999  1  -1.130443  0  -0.303301  -0.539294  0  2.22336  0
O  O118  1  0.45584593  0.36258481  0.92213289  1  -1.126152  0  -0.303074  -0.538948  0  2.223305  0
O  O119  1  0.55952327  0.92212810  0.46626340  1  -1.13028  0  -0.303368  -0.539356  0  2.223572  0
O  O120  1  0.54413529  0.46627292  0.90673841  1  -1.130388  0  -0.303376  -0.539343  0  2.223465  0
O  O121  1  0.44044448  0.90673465  0.36257601  1  -1.130535  0  -0.30307  -0.539036  0  2.2232  0
O  O122  1  0.10668437  0.54504322  0.47031881  1  -1.134536  0  -0.313509  -0.548899  0  2.282623  0
O  O123  1  0.07472590  0.43835988  0.54504623  1  -1.13977  0  -0.313534  -0.548947  0  2.28257  0
O  O124  1  0.89331334  0.36362798  0.43835794  1  -1.132701  0  -0.313552  -0.548888  0  2.282408  0
O  O125  1  0.92527166  0.47031553  0.36363259  1  -1.130224  0  -0.313618  -0.549018  0  2.282536  0
O  O126  1  0.92527100  0.45495238  0.56163873  1  -1.139422  0  -0.313744  -0.549182  0  2.281762  0
O  O127  1  0.10668464  0.56164027  0.63637181  1  -1.133153  0  -0.313766  -0.549193  0  2.2818  0
O  O128  1  0.07473181  0.63636988  0.52968618  1  -1.129869  0  -0.313744  -0.54912  0  2.281817  0
O  O129  1  0.89331658  0.52968539  0.45495597  1  -1.134081  0  -0.313787  -0.549211  0  2.281793  0
F  F130  1  0.77922201  0.37264951  0.21451174  1  -0.623563  0  -0.09265  -0.124518  0  1.363781  0
F  F131  1  0.15813168  0.59342396  0.37264943  1  -0.626937  0  -0.09263  -0.12437  0  1.363653  0
F  F132  1  0.22078172  0.43530224  0.59342921  1  -0.62422  0  -0.092705  -0.124601  0  1.36368  0
F  F133  1  0.84186949  0.21451153  0.43530021  1  -0.626373  0  -0.092775  -0.12464  0  1.363735  0
F  F134  1  0.84186327  0.62734712  0.40657968  1  -0.62696  0  -0.092632  -0.124357  0  1.363586  0
F  F135  1  0.77922432  0.40657329  0.56469970  1  -0.624187  0  -0.092752  -0.12468  0  1.363599  0
F  F136  1  0.15813731  0.56471083  0.78548666  1  -0.626319  0  -0.092627  -0.124503  0  1.363774  0
F  F137  1  0.22077837  0.78548491  0.62735105  1  -0.623578  0  -0.092619  -0.12448  0  1.363769  0
