# generated using pymatgen
data_AgH2C6N4ClO4
_symmetry_space_group_name_H-M   'P 1'
_cell_length_a   6.82694919
_cell_length_b   10.84576604
_cell_length_c   12.44653074
_cell_angle_alpha   89.99917953
_cell_angle_beta   89.99932446
_cell_angle_gamma   89.99933216
_symmetry_Int_Tables_number   1
_chemical_formula_structural   AgH2C6N4ClO4
_chemical_formula_sum   'Ag4 H8 C24 N16 Cl4 O16'
_cell_volume   921.58461980
_cell_formula_units_Z   4
loop_
 _symmetry_equiv_pos_site_id
 _symmetry_equiv_pos_as_xyz
  1  'x, y, z'
loop_
 _atom_site_type_symbol
 _atom_site_label
 _atom_site_symmetry_multiplicity
 _atom_site_fract_x
 _atom_site_fract_y
 _atom_site_fract_z
 _atom_site_occupancy
 _atom_site_hle17_bader_spin_density
 _atom_site_hle17_ddec_charge
 _atom_site_hle17_ddec_spin_density
 _atom_site_hle17_ddec_sum_bond_order
 _atom_site_hle17_magmom
 _atom_site_hse06_10hf_bader_spin_density
 _atom_site_hse06_10hf_ddec_charge
 _atom_site_hse06_10hf_ddec_spin_density
 _atom_site_hse06_10hf_ddec_sum_bond_order
 _atom_site_hse06_10hf_magmom
 _atom_site_hse06_bader_spin_density
 _atom_site_hse06_ddec_charge
 _atom_site_hse06_ddec_spin_density
 _atom_site_hse06_ddec_sum_bond_order
 _atom_site_hse06_magmom
 _atom_site_pbe_bader_spin_density
 _atom_site_pbe_cm5_charge
 _atom_site_pbe_ddec_charge
 _atom_site_pbe_ddec_spin_density
 _atom_site_pbe_ddec_sum_bond_order
 _atom_site_pbe_magmom
Ag  Ag0  1  0.87031369  0.25000053  0.09215466  1  0  0.621892  0  1.45261  0  0  0.508072  0  1.895238  0  0  0.520727  0  1.854386  0  0  0.535542  0.50397  0  1.922064  0
Ag  Ag1  1  0.37032268  0.25000160  0.40784423  1  0  0.62189  0  1.452708  0  0  0.508061  0  1.89536  0  0  0.520719  0  1.854506  0  0  0.535574  0.503971  0  1.922186  0
Ag  Ag2  1  0.12969417  0.74999716  0.90784066  1  0  0.621885  0  1.452721  0  0  0.508066  0  1.895378  0  0  0.520722  0  1.854522  0  0  0.535558  0.503965  0  1.922202  0
Ag  Ag3  1  0.62968519  0.74999793  0.59215430  1  0  0.621858  0  1.452733  0  0  0.508014  0  1.895392  0  0  0.520667  0  1.854539  0  0  0.535552  0.503924  0  1.922199  0
H  H4  1  0.72801910  0.09732305  0.87429449  1  0  0.132557  0  0.940992  0  0  0.135195  0  1.004782  0  0  0.138523  0  1.002753  0  0  0.13082  0.132689  0  1.006493  0
H  H5  1  0.22802401  0.40266820  0.62570043  1  0  0.132489  0  0.940978  0  0  0.135153  0  1.004771  0  0  0.138483  0  1.00274  0  0  0.130806  0.132649  0  1.006484  0
H  H6  1  0.27198428  0.59733153  0.12570594  1  0  0.132503  0  0.940974  0  0  0.135169  0  1.004774  0  0  0.138497  0  1.002744  0  0  0.130778  0.132665  0  1.006486  0
H  H7  1  0.77198981  0.90266984  0.37430022  1  0  0.132485  0  0.940968  0  0  0.13516  0  1.00479  0  0  0.138489  0  1.002757  0  0  0.130804  0.132657  0  1.006507  0
H  H8  1  0.27198144  0.90266450  0.12570404  1  0  0.132487  0  0.94104  0  0  0.135122  0  1.00483  0  0  0.13845  0  1.002798  0  0  0.130782  0.132615  0  1.00654  0
H  H9  1  0.77197799  0.59733134  0.37429890  1  0  0.132477  0  0.940981  0  0  0.135145  0  1.004775  0  0  0.138474  0  1.002745  0  0  0.130799  0.132642  0  1.006488  0
H  H10  1  0.72802212  0.40266432  0.87429741  1  0  0.132474  0  0.940937  0  0  0.135121  0  1.004742  0  0  0.13845  0  1.002711  0  0  0.130781  0.132611  0  1.006453  0
H  H11  1  0.22801806  0.09733061  0.62570073  1  0  0.132567  0  0.941037  0  0  0.135198  0  1.004834  0  0  0.138525  0  1.002803  0  0  0.130811  0.132693  0  1.006545  0
C  C12  1  0.51627888  0.07493345  0.21114426  1  0  0.304888  0  3.641331  0  0  0.278608  0  3.916573  0  0  0.290959  0  3.930374  0  0  0.221383  0.269918  0  3.909055  0
C  C13  1  0.01629597  0.42507311  0.28885289  1  0  0.304895  0  3.641318  0  0  0.278624  0  3.916548  0  0  0.290977  0  3.930345  0  0  0.221444  0.269932  0  3.909024  0
C  C14  1  0.48371319  0.57493683  0.78885645  1  0  0.304801  0  3.641406  0  0  0.278522  0  3.916652  0  0  0.290873  0  3.930453  0  0  0.221336  0.269829  0  3.909128  0
C  C15  1  0.98370718  0.92506582  0.71114908  1  0  0.304879  0  3.641603  0  0  0.278603  0  3.91684  0  0  0.290955  0  3.93064  0  0  0.221404  0.26991  0  3.909312  0
C  C16  1  0.48369529  0.92506793  0.78885026  1  0  0.304769  0  3.641516  0  0  0.278511  0  3.91676  0  0  0.290863  0  3.93056  0  0  0.221391  0.269819  0  3.909238  0
C  C17  1  0.98370750  0.57492826  0.71114644  1  0  0.3049  0  3.641389  0  0  0.278638  0  3.916608  0  0  0.290991  0  3.93041  0  0  0.221422  0.269944  0  3.90908  0
C  C18  1  0.51630199  0.42506455  0.21114610  1  0  0.304833  0  3.641188  0  0  0.278578  0  3.916408  0  0  0.29093  0  3.930205  0  0  0.221426  0.269887  0  3.908895  0
C  C19  1  0.01628457  0.07494017  0.28885427  1  0  0.305026  0  3.641574  0  0  0.278741  0  3.916802  0  0  0.291094  0  3.930597  0  0  0.221439  0.270051  0  3.909278  0
C  C20  1  0.50814648  0.03601873  0.10189561  1  0  0.171739  0  3.784692  0  0  0.175042  0  4.027802  0  0  0.179594  0  4.041336  0  0  0.153815  0.171044  0  4.020047  0
C  C21  1  0.00815756  0.46398051  0.39810320  1  0  0.171815  0  3.784719  0  0  0.175127  0  4.02783  0  0  0.179686  0  4.041373  0  0  0.153784  0.171128  0  4.020068  0
C  C22  1  0.49185218  0.53601933  0.89810639  1  0  0.171806  0  3.784746  0  0  0.175107  0  4.027831  0  0  0.179667  0  4.041371  0  0  0.153831  0.171111  0  4.020069  0
C  C23  1  0.99184047  0.96397957  0.60189669  1  0  0.171782  0  3.7845  0  0  0.17508  0  4.027577  0  0  0.179638  0  4.04112  0  0  0.15377  0.171081  0  4.01981  0
C  C24  1  0.49183209  0.96397988  0.89810292  1  0  0.172022  0  3.784377  0  0  0.175271  0  4.027516  0  0  0.179828  0  4.041064  0  0  0.153774  0.171276  0  4.019751  0
C  C25  1  0.99184738  0.53601718  0.60189694  1  0  0.171846  0  3.784731  0  0  0.175146  0  4.027846  0  0  0.1797  0  4.041384  0  0  0.153802  0.171153  0  4.020083  0
C  C26  1  0.50815569  0.46397928  0.10189696  1  0  0.17186  0  3.78479  0  0  0.175173  0  4.027906  0  0  0.179733  0  4.041446  0  0  0.153778  0.171174  0  4.020149  0
C  C27  1  0.00816007  0.03602642  0.39810586  1  0  0.171764  0  3.784623  0  0  0.175112  0  4.027741  0  0  0.179675  0  4.041277  0  0  0.153847  0.17111  0  4.019982  0
C  C28  1  0.62774130  0.05386636  0.93094300  1  0  0.109306  0  3.562696  0  0  0.072983  0  3.814111  0  0  0.075743  0  3.827161  0  0  0.087607  0.070885  0  3.806345  0
C  C29  1  0.12773784  0.44613207  0.56905980  1  0  0.10952  0  3.562625  0  0  0.073112  0  3.81411  0  0  0.075876  0  3.827166  0  0  0.087638  0.07101  0  3.806346  0
C  C30  1  0.37226288  0.55386489  0.06906199  1  0  0.109537  0  3.562536  0  0  0.073078  0  3.814075  0  0  0.075844  0  3.827127  0  0  0.087655  0.070976  0  3.806313  0
C  C31  1  0.87225612  0.94612929  0.43094513  1  0  0.109656  0  3.562428  0  0  0.073123  0  3.814038  0  0  0.075893  0  3.827085  0  0  0.087644  0.071014  0  3.806278  0
C  C32  1  0.37224166  0.94612488  0.06906116  1  0  0.10965  0  3.562427  0  0  0.073309  0  3.81383  0  0  0.07608  0  3.826882  0  0  0.087734  0.071213  0  3.806063  0
C  C33  1  0.87225977  0.55386562  0.43093953  1  0  0.109524  0  3.56253  0  0  0.073089  0  3.81406  0  0  0.075847  0  3.827111  0  0  0.087634  0.070988  0  3.8063  0
C  C34  1  0.62774352  0.44613003  0.93093895  1  0  0.109641  0  3.562578  0  0  0.073279  0  3.813995  0  0  0.076046  0  3.827046  0  0  0.087688  0.071184  0  3.806224  0
C  C35  1  0.12775028  0.05387578  0.56906064  1  0  0.10949  0  3.562599  0  0  0.073139  0  3.814019  0  0  0.075908  0  3.827071  0  0  0.087697  0.071038  0  3.806253  0
N  N36  1  0.52335984  0.10775195  0.30039782  1  0  -0.372908  0  2.798083  0  0  -0.336406  0  3.086463  0  0  -0.347857  0  3.091777  0  0  -0.307219  -0.329946  0  3.084081  0
N  N37  1  0.02337946  0.39225456  0.19959688  1  0  -0.372917  0  2.797976  0  0  -0.336435  0  3.08636  0  0  -0.347871  0  3.091641  0  0  -0.307247  -0.329972  0  3.083966  0
N  N38  1  0.47663309  0.60775132  0.69959847  1  0  -0.372823  0  2.798123  0  0  -0.336332  0  3.086522  0  0  -0.347769  0  3.091809  0  0  -0.307168  -0.329872  0  3.084129  0
N  N39  1  0.97663015  0.89224677  0.80040069  1  0  -0.372872  0  2.798366  0  0  -0.336386  0  3.086762  0  0  -0.347824  0  3.092044  0  0  -0.30721  -0.329923  0  3.084362  0
N  N40  1  0.47663777  0.89225220  0.69959670  1  0  -0.372818  0  2.798341  0  0  -0.336332  0  3.086735  0  0  -0.347773  0  3.092026  0  0  -0.307178  -0.329872  0  3.084347  0
N  N41  1  0.97662694  0.60774866  0.80040246  1  0  -0.372965  0  2.79809  0  0  -0.336482  0  3.086478  0  0  -0.347925  0  3.091771  0  0  -0.307248  -0.33002  0  3.084082  0
N  N42  1  0.52338063  0.39224914  0.30040408  1  0  -0.372885  0  2.797918  0  0  -0.33641  0  3.086323  0  0  -0.347847  0  3.091609  0  0  -0.30725  -0.329949  0  3.08394  0
N  N43  1  0.02336746  0.10775737  0.19960186  1  0  -0.37299  0  2.798323  0  0  -0.336492  0  3.086718  0  0  -0.347937  0  3.092016  0  0  -0.307213  -0.330028  0  3.084324  0
N  N44  1  0.63512291  0.08966281  0.03320585  1  0  -0.246891  0  3.132991  0  0  -0.20255  0  3.411348  0  0  -0.210704  0  3.420461  0  0  -0.278727  -0.197491  0  3.406242  0
N  N45  1  0.13513204  0.41032998  0.46679295  1  0  -0.246946  0  3.132635  0  0  -0.20255  0  3.410992  0  0  -0.210726  0  3.420125  0  0  -0.278696  -0.197484  0  3.405883  0
N  N46  1  0.36487035  0.58967150  0.96679548  1  0  -0.246981  0  3.132584  0  0  -0.20255  0  3.410938  0  0  -0.210724  0  3.420065  0  0  -0.278742  -0.197492  0  3.405835  0
N  N47  1  0.86487431  0.91033017  0.53320680  1  0  -0.247026  0  3.132937  0  0  -0.202578  0  3.411319  0  0  -0.210758  0  3.420455  0  0  -0.278735  -0.197502  0  3.406202  0
N  N48  1  0.36485419  0.91033304  0.96679188  1  0  -0.247023  0  3.132629  0  0  -0.202647  0  3.411014  0  0  -0.210827  0  3.42015  0  0  -0.27873  -0.197584  0  3.405905  0
N  N49  1  0.86486557  0.58966771  0.53320799  1  0  -0.246901  0  3.132595  0  0  -0.202509  0  3.410975  0  0  -0.210664  0  3.420089  0  0  -0.278693  -0.197452  0  3.405874  0
N  N50  1  0.63513458  0.41032619  0.03320707  1  0  -0.246992  0  3.132646  0  0  -0.20261  0  3.410991  0  0  -0.210788  0  3.420123  0  0  -0.278692  -0.197546  0  3.405881  0
N  N51  1  0.13512623  0.08967305  0.46679495  1  0  -0.246992  0  3.133007  0  0  -0.202612  0  3.411351  0  0  -0.210791  0  3.420486  0  0  -0.278769  -0.197538  0  3.406236  0
Cl  Cl52  1  0.16840463  0.25000220  0.87236870  1  0  1.399791  0  6.195556  0  0  1.342854  0  6.746973  0  0  1.396986  0  6.721984  0  0  0.720292  1.305371  0  6.762515  0
Cl  Cl53  1  0.66840513  0.24999870  0.62763143  1  0  1.399684  0  6.195778  0  0  1.342746  0  6.747194  0  0  1.39687  0  6.722221  0  0  0.720227  1.305262  0  6.76274  0
Cl  Cl54  1  0.83159738  0.74999918  0.12762822  1  0  1.399612  0  6.194488  0  0  1.342713  0  6.745878  0  0  1.39682  0  6.720931  0  0  0.720191  1.305228  0  6.761429  0
Cl  Cl55  1  0.33159687  0.75000176  0.37236871  1  0  1.400007  0  6.195941  0  0  1.34301  0  6.747435  0  0  1.397132  0  6.722459  0  0  0.720287  1.305532  0  6.76298  0
O  O56  1  0.95708167  0.25000371  0.89841760  1  0  -0.572126  0  1.940813  0  0  -0.531264  0  2.209547  0  0  -0.547839  0  2.191243  0  0  -0.323773  -0.519607  0  2.221625  0
O  O57  1  0.45708408  0.25000153  0.60158469  1  0  -0.572088  0  1.940924  0  0  -0.531236  0  2.209669  0  0  -0.547813  0  2.191366  0  0  -0.323752  -0.519583  0  2.221752  0
O  O58  1  0.04292913  0.74999767  0.10157852  1  0  -0.572084  0  1.940435  0  0  -0.531274  0  2.209216  0  0  -0.547837  0  2.190904  0  0  -0.323742  -0.519619  0  2.221299  0
O  O59  1  0.54290913  0.75000169  0.39841384  1  0  -0.572143  0  1.94098  0  0  -0.531263  0  2.209727  0  0  -0.547836  0  2.191419  0  0  -0.3237  -0.519606  0  2.22181  0
O  O60  1  0.27961428  0.25000373  0.97273768  1  0  -0.56145  0  1.855606  0  0  -0.539431  0  2.103622  0  0  -0.557619  0  2.094403  0  0  -0.32765  -0.526483  0  2.109634  0
O  O61  1  0.77961255  0.25000373  0.52726093  1  0  -0.561413  0  1.855663  0  0  -0.539397  0  2.103666  0  0  -0.557577  0  2.094447  0  0  -0.327627  -0.526446  0  2.10968  0
O  O62  1  0.72038334  0.74999857  0.02725603  1  0  -0.561513  0  1.855407  0  0  -0.539479  0  2.103415  0  0  -0.55766  0  2.094198  0  0  -0.327655  -0.526529  0  2.109428  0
O  O63  1  0.22039531  0.74999765  0.47273599  1  0  -0.561511  0  1.85581  0  0  -0.539462  0  2.103754  0  0  -0.557643  0  2.09453  0  0  -0.327654  -0.526517  0  2.109772  0
O  O64  1  0.21361334  0.36012201  0.81052976  1  0  -0.542908  0  1.8987  0  0  -0.513173  0  2.145325  0  0  -0.532579  0  2.136043  0  0  -0.309947  -0.498919  0  2.151041  0
O  O65  1  0.71361309  0.13988593  0.68946607  1  0  -0.54291  0  1.89904  0  0  -0.513126  0  2.145618  0  0  -0.532528  0  2.136336  0  0  -0.309925  -0.498868  0  2.151334  0
O  O66  1  0.78638662  0.86011830  0.18946660  1  0  -0.542834  0  1.898638  0  0  -0.513037  0  2.145198  0  0  -0.532439  0  2.135918  0  0  -0.309906  -0.498782  0  2.150916  0
O  O67  1  0.28639243  0.63988942  0.31053464  1  0  -0.543032  0  1.898905  0  0  -0.513221  0  2.14547  0  0  -0.532625  0  2.136189  0  0  -0.309974  -0.498967  0  2.151184  0
O  O68  1  0.78638720  0.63987475  0.18947119  1  0  -0.542816  0  1.8984  0  0  -0.513079  0  2.144994  0  0  -0.53248  0  2.135713  0  0  -0.309884  -0.498824  0  2.150711  0
O  O69  1  0.28638745  0.86011084  0.31053649  1  0  -0.543006  0  1.899025  0  0  -0.513207  0  2.145595  0  0  -0.53261  0  2.136312  0  0  -0.309981  -0.49895  0  2.151308  0
O  O70  1  0.21361246  0.13988769  0.81053274  1  0  -0.54293  0  1.89891  0  0  -0.513131  0  2.145481  0  0  -0.532527  0  2.13619  0  0  -0.309928  -0.498874  0  2.151196  0
O  O71  1  0.71361251  0.36011749  0.68946871  1  0  -0.542912  0  1.898674  0  0  -0.513132  0  2.145252  0  0  -0.532538  0  2.135972  0  0  -0.309928  -0.498873  0  2.150965  0
