# generated using pymatgen
data_CuH8C12N3O
_symmetry_space_group_name_H-M   'P 1'
_cell_length_a   4.75757469
_cell_length_b   11.39271207
_cell_length_c   18.23856145
_cell_angle_alpha   90.00047673
_cell_angle_beta   91.22096831
_cell_angle_gamma   90.00241465
_symmetry_Int_Tables_number   1
_chemical_formula_structural   CuH8C12N3O
_chemical_formula_sum   'Cu4 H32 C48 N12 O4'
_cell_volume   988.33619497
_cell_formula_units_Z   4
loop_
 _symmetry_equiv_pos_site_id
 _symmetry_equiv_pos_as_xyz
  1  'x, y, z'
loop_
 _atom_site_type_symbol
 _atom_site_label
 _atom_site_symmetry_multiplicity
 _atom_site_fract_x
 _atom_site_fract_y
 _atom_site_fract_z
 _atom_site_occupancy
 _atom_site_hle17_bader_spin_density
 _atom_site_hle17_ddec_charge
 _atom_site_hle17_ddec_spin_density
 _atom_site_hle17_ddec_sum_bond_order
 _atom_site_hle17_magmom
 _atom_site_hse06_10hf_bader_spin_density
 _atom_site_hse06_10hf_ddec_charge
 _atom_site_hse06_10hf_ddec_spin_density
 _atom_site_hse06_10hf_ddec_sum_bond_order
 _atom_site_hse06_10hf_magmom
 _atom_site_hse06_bader_spin_density
 _atom_site_hse06_ddec_charge
 _atom_site_hse06_ddec_spin_density
 _atom_site_hse06_ddec_sum_bond_order
 _atom_site_hse06_magmom
 _atom_site_pbe_bader_spin_density
 _atom_site_pbe_cm5_charge
 _atom_site_pbe_ddec_charge
 _atom_site_pbe_ddec_spin_density
 _atom_site_pbe_ddec_sum_bond_order
 _atom_site_pbe_magmom
Cu  Cu0  1  0.19946910  0.33825069  0.75161780  1  0  0.476638  0  1.619153  0  0  0.357179  0  2.0355  0  0  0.371571  0  1.996653  0  0  0.516153  0.349416  0  2.060918  0
Cu  Cu1  1  0.30048599  0.83825008  0.74838847  1  0  0.476607  0  1.619168  0  0  0.357189  0  2.035517  0  0  0.371568  0  1.996655  0  0  0.516162  0.349423  0  2.060952  0
Cu  Cu2  1  0.80052892  0.66174744  0.24837767  1  0  0.476644  0  1.619135  0  0  0.357232  0  2.035463  0  0  0.371598  0  1.996633  0  0  0.516178  0.349467  0  2.060857  0
Cu  Cu3  1  0.69952224  0.16174893  0.25161476  1  0  0.47662  0  1.619155  0  0  0.357194  0  2.035482  0  0  0.371591  0  1.996633  0  0  0.516137  0.349431  0  2.060915  0
H  H4  1  0.67348704  0.34517853  0.64027132  1  0  0.083659  0  1.005249  0  0  0.091386  0  1.076866  0  0  0.094099  0  1.074755  0  0  0.088617  0.089376  0  1.078587  0
H  H5  1  0.82647085  0.84515667  0.85972118  1  0  0.083876  0  1.005243  0  0  0.091537  0  1.076935  0  0  0.094253  0  1.074818  0  0  0.088692  0.089526  0  1.078662  0
H  H6  1  0.32651532  0.65483365  0.35972090  1  0  0.083677  0  1.005139  0  0  0.091423  0  1.076759  0  0  0.094141  0  1.074637  0  0  0.088628  0.089415  0  1.07848  0
H  H7  1  0.17353753  0.15483883  0.14027822  1  0  0.083894  0  1.005317  0  0  0.091574  0  1.076959  0  0  0.094286  0  1.07485  0  0  0.088696  0.08956  0  1.078681  0
H  H8  1  0.68049501  0.28312076  0.86179987  1  0  0.099331  0  0.964982  0  0  0.110877  0  1.030449  0  0  0.114724  0  1.02607  0  0  0.099272  0.108062  0  1.033753  0
H  H9  1  0.81944043  0.78315354  0.63821454  1  0  0.099192  0  0.965064  0  0  0.110651  0  1.030679  0  0  0.11449  0  1.026307  0  0  0.099229  0.107843  0  1.033972  0
H  H10  1  0.31949883  0.71687561  0.13819502  1  0  0.099284  0  0.965106  0  0  0.110826  0  1.030584  0  0  0.114676  0  1.026201  0  0  0.099302  0.108018  0  1.033884  0
H  H11  1  0.18057811  0.21685600  0.36179371  1  0  0.099221  0  0.965106  0  0  0.110701  0  1.030661  0  0  0.114538  0  1.026283  0  0  0.099263  0.107892  0  1.033956  0
H  H12  1  0.38344181  0.74446954  0.88074475  1  0  0.104249  0  0.965349  0  0  0.113343  0  1.029652  0  0  0.116994  0  1.026998  0  0  0.106376  0.11067  0  1.031751  0
H  H13  1  0.11655992  0.24448939  0.61925640  1  0  0.104286  0  0.965134  0  0  0.113367  0  1.029441  0  0  0.117017  0  1.026795  0  0  0.106384  0.110698  0  1.031533  0
H  H14  1  0.61653901  0.25551629  0.11926045  1  0  0.104331  0  0.965152  0  0  0.113437  0  1.02941  0  0  0.117088  0  1.026759  0  0  0.106436  0.110764  0  1.031505  0
H  H15  1  0.88344647  0.75551400  0.38074023  1  0  0.104308  0  0.965109  0  0  0.113401  0  1.029416  0  0  0.117053  0  1.026766  0  0  0.106443  0.110732  0  1.031505  0
H  H16  1  0.83198973  0.46091259  0.81483425  1  0  0.093665  0  0.983725  0  0  0.100678  0  1.057948  0  0  0.105635  0  1.052261  0  0  0.099834  0.096966  0  1.062352  0
H  H17  1  0.66795042  0.96093991  0.68518512  1  0  0.093706  0  0.983868  0  0  0.100779  0  1.057955  0  0  0.105736  0  1.052266  0  0  0.099762  0.097029  0  1.062407  0
H  H18  1  0.16800577  0.53906974  0.18517162  1  0  0.093641  0  0.983791  0  0  0.10066  0  1.057972  0  0  0.105615  0  1.052284  0  0  0.099791  0.096949  0  1.062379  0
H  H19  1  0.33205588  0.03906436  0.31481371  1  0  0.093722  0  0.983727  0  0  0.10076  0  1.057844  0  0  0.105708  0  1.052175  0  0  0.099809  0.097047  0  1.062248  0
H  H20  1  0.02118085  0.43858871  0.55702466  1  0  0.083152  0  0.968392  0  0  0.097777  0  1.025628  0  0  0.099399  0  1.026388  0  0  0.095179  0.096639  0  1.02512  0
H  H21  1  0.47876467  0.93853680  0.94297226  1  0  0.08306  0  0.968129  0  0  0.097692  0  1.025398  0  0  0.099314  0  1.026158  0  0  0.09513  0.096555  0  1.024892  0
H  H22  1  0.97883583  0.56142785  0.44297754  1  0  0.083115  0  0.968439  0  0  0.097803  0  1.025607  0  0  0.099425  0  1.026366  0  0  0.095195  0.096667  0  1.025099  0
H  H23  1  0.52122920  0.06146044  0.05702207  1  0  0.083062  0  0.968101  0  0  0.097684  0  1.025379  0  0  0.099305  0  1.026142  0  0  0.095144  0.096549  0  1.02487  0
H  H24  1  0.40802523  0.15484663  0.94246214  1  0  0.091417  0  0.96646  0  0  0.09928  0  1.03206  0  0  0.102681  0  1.030716  0  0  0.095245  0.096842  0  1.03312  0
H  H25  1  0.09191593  0.65490388  0.55754400  1  0  0.091658  0  0.966502  0  0  0.099448  0  1.032134  0  0  0.102851  0  1.030789  0  0  0.095375  0.097012  0  1.03319  0
H  H26  1  0.59195821  0.84514886  0.05752992  1  0  0.091344  0  0.96667  0  0  0.0992  0  1.032254  0  0  0.1026  0  1.030912  0  0  0.095238  0.096766  0  1.033312  0
H  H27  1  0.90810688  0.34511268  0.44246264  1  0  0.091437  0  0.966657  0  0  0.099291  0  1.032246  0  0  0.102695  0  1.030899  0  0  0.095277  0.096854  0  1.033301  0
H  H28  1  0.11985033  0.75651521  0.99841068  1  0  0.111549  0  0.952556  0  0  0.119697  0  1.017373  0  0  0.122922  0  1.015162  0  0  0.125962  0.117411  0  1.018896  0
H  H29  1  0.38017569  0.25651526  0.50159459  1  0  0.111412  0  0.95277  0  0  0.119633  0  1.017506  0  0  0.122863  0  1.015285  0  0  0.12591  0.117336  0  1.019046  0
H  H30  1  0.88012842  0.24347414  0.00159341  1  0  0.111434  0  0.952723  0  0  0.119658  0  1.017503  0  0  0.122885  0  1.01529  0  0  0.125955  0.117363  0  1.019031  0
H  H31  1  0.61983696  0.74348814  0.49840320  1  0  0.111547  0  0.952724  0  0  0.119724  0  1.017483  0  0  0.122952  0  1.015264  0  0  0.125979  0.117432  0  1.019019  0
H  H32  1  0.58800596  0.48400935  0.93521370  1  0  0.121794  0  0.981166  0  0  0.125459  0  1.049751  0  0  0.130795  0  1.045182  0  0  0.122609  0.121556  0  1.05312  0
H  H33  1  0.91195369  0.98401565  0.56480267  1  0  0.121718  0  0.981193  0  0  0.125334  0  1.049837  0  0  0.130691  0  1.045212  0  0  0.122546  0.121421  0  1.053221  0
H  H34  1  0.41196868  0.51598264  0.06478815  1  0  0.121764  0  0.981251  0  0  0.125444  0  1.049824  0  0  0.130783  0  1.045265  0  0  0.122603  0.121542  0  1.053195  0
H  H35  1  0.08806308  0.01598950  0.43519734  1  0  0.121746  0  0.981191  0  0  0.125361  0  1.049828  0  0  0.130713  0  1.04521  0  0  0.122585  0.121458  0  1.053202  0
C  C36  1  0.29195869  0.59073575  0.77039359  1  0  0.328898  0  3.779548  0  0  0.307165  0  4.027366  0  0  0.32177  0  4.044891  0  0  0.207181  0.297593  0  4.015172  0
C  C37  1  0.20798584  0.09074241  0.72961438  1  0  0.329199  0  3.779217  0  0  0.307397  0  4.02717  0  0  0.322005  0  4.044693  0  0  0.207213  0.297826  0  4.014976  0
C  C38  1  0.70802440  0.40925799  0.22960724  1  0  0.329085  0  3.779451  0  0  0.307398  0  4.027255  0  0  0.322007  0  4.044771  0  0  0.207284  0.297825  0  4.015059  0
C  C39  1  0.79202263  0.90925484  0.27038282  1  0  0.328766  0  3.779501  0  0  0.307049  0  4.027346  0  0  0.321658  0  4.044867  0  0  0.207158  0.29748  0  4.015146  0
C  C40  1  0.55080037  0.51298944  0.68546118  1  0  0.14555  0  3.831284  0  0  0.145115  0  4.063186  0  0  0.14735  0  4.089051  0  0  0.076478  0.143556  0  4.045874  0
C  C41  1  0.94916870  0.01297365  0.81454420  1  0  0.145503  0  3.831285  0  0  0.14504  0  4.063081  0  0  0.147274  0  4.088944  0  0  0.076616  0.143479  0  4.045766  0
C  C42  1  0.44921423  0.48701571  0.31454046  1  0  0.145516  0  3.831234  0  0  0.145087  0  4.063133  0  0  0.147327  0  4.088991  0  0  0.076567  0.143525  0  4.045817  0
C  C43  1  0.05083975  0.98702711  0.18545355  1  0  0.145701  0  3.831045  0  0  0.145211  0  4.062892  0  0  0.14745  0  4.088753  0  0  0.076658  0.143647  0  4.045581  0
C  C44  1  0.90757379  0.13647420  0.81440617  1  0  0.155348  0  3.820162  0  0  0.153936  0  4.055663  0  0  0.156595  0  4.081323  0  0  0.081069  0.152088  0  4.03846  0
C  C45  1  0.59238135  0.63648627  0.68560477  1  0  0.155025  0  3.820395  0  0  0.153414  0  4.056251  0  0  0.15607  0  4.08191  0  0  0.080955  0.151569  0  4.039054  0
C  C46  1  0.09243466  0.86352480  0.18559157  1  0  0.155178  0  3.820225  0  0  0.153791  0  4.055734  0  0  0.15645  0  4.081391  0  0  0.08099  0.151949  0  4.038534  0
C  C47  1  0.40761637  0.36352064  0.31439837  1  0  0.155112  0  3.82037  0  0  0.153454  0  4.056238  0  0  0.156106  0  4.081895  0  0  0.080945  0.151609  0  4.039033  0
C  C48  1  0.12829319  0.60215435  0.83657035  1  0  0.007343  0  3.802541  0  0  0.015254  0  4.04245  0  0  0.017239  0  4.060155  0  0  -0.00824  0.014041  0  4.030518  0
C  C49  1  0.37166304  0.10216472  0.66343943  1  0  0.007366  0  3.802216  0  0  0.015089  0  4.042331  0  0  0.017066  0  4.060054  0  0  -0.00826  0.013881  0  4.030384  0
C  C50  1  0.87168982  0.39783851  0.16343267  1  0  0.007494  0  3.802519  0  0  0.015111  0  4.042643  0  0  0.017094  0  4.060351  0  0  -0.00825  0.0139  0  4.030702  0
C  C51  1  0.62834545  0.89783341  0.33655722  1  0  0.007716  0  3.801943  0  0  0.015475  0  4.041936  0  0  0.017455  0  4.059656  0  0  -0.008215  0.014264  0  4.029989  0
C  C52  1  0.70382846  0.43990248  0.63924771  1  0  -0.182655  0  3.814487  0  0  -0.198149  0  4.067414  0  0  -0.199919  0  4.085646  0  0  -0.112826  -0.19708  0  4.055404  0
C  C53  1  0.79613125  0.93987487  0.86075031  1  0  -0.182839  0  3.814835  0  0  -0.198326  0  4.067808  0  0  -0.200096  0  4.086032  0  0  -0.113044  -0.197259  0  4.055808  0
C  C54  1  0.29617786  0.56010706  0.36075057  1  0  -0.182453  0  3.814289  0  0  -0.197964  0  4.067182  0  0  -0.199733  0  4.085406  0  0  -0.112842  -0.196896  0  4.055172  0
C  C55  1  0.20386876  0.06012325  0.13924792  1  0  -0.183022  0  3.814954  0  0  -0.198504  0  4.067947  0  0  -0.200276  0  4.086175  0  0  -0.113066  -0.197427  0  4.055936  0
C  C56  1  0.71556950  0.18867031  0.86148159  1  0  -0.148391  0  3.74996  0  0  -0.168286  0  4.004697  0  0  -0.169042  0  4.021154  0  0  -0.098766  -0.167858  0  3.993824  0
C  C57  1  0.78439131  0.68869902  0.63853191  1  0  -0.147886  0  3.749691  0  0  -0.167662  0  4.004556  0  0  -0.168405  0  4.020999  0  0  -0.098706  -0.167245  0  3.993702  0
C  C58  1  0.28442432  0.81132694  0.13851384  1  0  -0.148233  0  3.750176  0  0  -0.168165  0  4.004919  0  0  -0.168914  0  4.021366  0  0  -0.098747  -0.167744  0  3.994059  0
C  C59  1  0.21563361  0.31130876  0.36147475  1  0  -0.148046  0  3.749812  0  0  -0.167794  0  4.004629  0  0  -0.168537  0  4.021087  0  0  -0.098774  -0.167373  0  3.993754  0
C  C60  1  0.20591894  0.68624410  0.88969877  1  0  -0.129939  0  3.786475  0  0  -0.145184  0  4.037739  0  0  -0.147414  0  4.052466  0  0  -0.083007  -0.14406  0  4.028112  0
C  C61  1  0.29406358  0.18625706  0.61030625  1  0  -0.130002  0  3.786015  0  0  -0.145187  0  4.037401  0  0  -0.147425  0  4.052149  0  0  -0.083067  -0.144057  0  4.027764  0
C  C62  1  0.79405762  0.31374350  0.11030749  1  0  -0.130011  0  3.785849  0  0  -0.145162  0  4.037209  0  0  -0.147398  0  4.051944  0  0  -0.083047  -0.144032  0  4.027572  0
C  C63  1  0.70594281  0.81374809  0.38969038  1  0  -0.130079  0  3.785948  0  0  -0.145332  0  4.037334  0  0  -0.147573  0  4.052077  0  0  -0.083175  -0.144201  0  4.027691  0
C  C64  1  0.90437720  0.52770344  0.85369920  1  0  -0.097485  0  3.732983  0  0  -0.119203  0  3.989473  0  0  -0.120862  0  4.005066  0  0  -0.081235  -0.118412  0  3.979189  0
C  C65  1  0.59558712  0.02772235  0.64630788  1  0  -0.097607  0  3.733549  0  0  -0.119276  0  3.989896  0  0  -0.120934  0  4.005494  0  0  -0.081106  -0.118467  0  3.979652  0
C  C66  1  0.09561851  0.47228591  0.14630174  1  0  -0.097588  0  3.733163  0  0  -0.119189  0  3.989573  0  0  -0.120841  0  4.005163  0  0  -0.081216  -0.118407  0  3.979311  0
C  C67  1  0.40441706  0.97228280  0.35369148  1  0  -0.097653  0  3.733271  0  0  -0.119309  0  3.989707  0  0  -0.120968  0  4.005305  0  0  -0.081125  -0.118527  0  3.97944  0
C  C68  1  0.89529988  0.49277003  0.59297094  1  0  -0.075974  0  3.794579  0  0  -0.091113  0  4.043906  0  0  -0.093633  0  4.067649  0  0  -0.106022  -0.089343  0  4.02777  0
C  C69  1  0.60465492  0.99273193  0.90703284  1  0  -0.075913  0  3.794321  0  0  -0.091081  0  4.043678  0  0  -0.093602  0  4.067423  0  0  -0.10589  -0.089313  0  4.027548  0
C  C70  1  0.10472100  0.50724126  0.40703130  1  0  -0.076226  0  3.794491  0  0  -0.091419  0  4.043879  0  0  -0.09394  0  4.067622  0  0  -0.106068  -0.089654  0  4.027748  0
C  C71  1  0.39534512  0.00726708  0.09296484  1  0  -0.075894  0  3.794102  0  0  -0.091016  0  4.043415  0  0  -0.093538  0  4.06716  0  0  -0.105897  -0.08925  0  4.027283  0
C  C72  1  0.56448605  0.11535228  0.90729672  1  0  -0.074806  0  3.777016  0  0  -0.090382  0  4.031771  0  0  -0.093172  0  4.054271  0  0  -0.103578  -0.08841  0  4.016474  0
C  C73  1  0.93546487  0.61539085  0.59270913  1  0  -0.075228  0  3.777054  0  0  -0.090727  0  4.031792  0  0  -0.093521  0  4.054292  0  0  -0.103588  -0.088753  0  4.016499  0
C  C74  1  0.43551618  0.88464672  0.09269878  1  0  -0.074787  0  3.777132  0  0  -0.090329  0  4.031867  0  0  -0.093119  0  4.054369  0  0  -0.103587  -0.088363  0  4.016582  0
C  C75  1  0.06455799  0.38461869  0.40729642  1  0  -0.07489  0  3.776821  0  0  -0.090429  0  4.031539  0  0  -0.093224  0  4.054041  0  0  -0.10349  -0.088454  0  4.016241  0
C  C76  1  0.06590256  0.69490850  0.95483905  1  0  -0.004115  0  3.604459  0  0  -0.043914  0  3.860765  0  0  -0.038093  0  3.87228  0  0  0.02865  -0.047441  0  3.852968  0
C  C77  1  0.43408285  0.19491777  0.54517044  1  0  -0.003987  0  3.604324  0  0  -0.043892  0  3.860678  0  0  -0.03807  0  3.872189  0  0  0.028607  -0.047419  0  3.852872  0
C  C78  1  0.93406150  0.30508085  0.04516436  1  0  -0.004052  0  3.604266  0  0  -0.044043  0  3.860721  0  0  -0.038214  0  3.872215  0  0  0.028485  -0.047565  0  3.85292  0
C  C79  1  0.56591715  0.80508738  0.45482834  1  0  -0.004267  0  3.604407  0  0  -0.044084  0  3.860749  0  0  -0.038265  0  3.872277  0  0  0.028549  -0.047614  0  3.852949  0
C  C80  1  0.76428326  0.53896423  0.91883665  1  0  -0.012641  0  3.577861  0  0  -0.05335  0  3.840323  0  0  -0.049262  0  3.853167  0  0  0.024291  -0.055645  0  3.831628  0
C  C81  1  0.73569051  0.03897683  0.58117551  1  0  -0.012436  0  3.577975  0  0  -0.053168  0  3.840494  0  0  -0.049065  0  3.853326  0  0  0.024291  -0.055465  0  3.831797  0
C  C82  1  0.23570401  0.46102512  0.08116476  1  0  -0.012518  0  3.577991  0  0  -0.053385  0  3.840557  0  0  -0.049295  0  3.853374  0  0  0.02422  -0.055688  0  3.831872  0
C  C83  1  0.26431590  0.96102832  0.41882058  1  0  -0.012556  0  3.57806  0  0  -0.053335  0  3.840641  0  0  -0.04923  0  3.853471  0  0  0.024119  -0.055643  0  3.831963  0
N  N84  1  0.35659920  0.48630882  0.73873557  1  0  -0.467115  0  3.374986  0  0  -0.385782  0  3.674514  0  0  -0.405717  0  3.683247  0  0  -0.41559  -0.372662  0  3.66824  0
N  N85  1  0.14335339  0.98631283  0.76126883  1  0  -0.467139  0  3.374665  0  0  -0.38583  0  3.674263  0  0  -0.405763  0  3.682986  0  0  -0.415586  -0.372706  0  3.667987  0
N  N86  1  0.64339451  0.51369019  0.26126261  1  0  -0.467182  0  3.375065  0  0  -0.385917  0  3.674637  0  0  -0.405849  0  3.68335  0  0  -0.415666  -0.372799  0  3.668348  0
N  N87  1  0.85665922  0.01368968  0.23873005  1  0  -0.467061  0  3.374334  0  0  -0.38579  0  3.673926  0  0  -0.40573  0  3.682662  0  0  -0.415533  -0.372671  0  3.667655  0
N  N88  1  0.07528160  0.18383172  0.76070560  1  0  -0.476393  0  3.372959  0  0  -0.399369  0  3.678476  0  0  -0.419471  0  3.687226  0  0  -0.41914  -0.386129  0  3.672185  0
N  N89  1  0.42466247  0.68383564  0.73930787  1  0  -0.476179  0  3.37286  0  0  -0.399148  0  3.678485  0  0  -0.419248  0  3.687233  0  0  -0.41916  -0.385909  0  3.672209  0
N  N90  1  0.92472050  0.81616904  0.23929320  1  0  -0.476098  0  3.373133  0  0  -0.399175  0  3.67868  0  0  -0.419272  0  3.687418  0  0  -0.419087  -0.385938  0  3.672373  0
N  N91  1  0.57534147  0.31616424  0.26069752  1  0  -0.476282  0  3.373047  0  0  -0.399259  0  3.678663  0  0  -0.419364  0  3.687424  0  0  -0.419206  -0.386025  0  3.672385  0
N  N92  1  0.84267414  0.62303378  0.96923254  1  0  0.276986  0  3.754284  0  0  0.333537  0  4.014124  0  0  0.335497  0  4.03762  0  0  -0.1103  0.331708  0  3.99835  0
N  N93  1  0.65730490  0.12303143  0.53077468  1  0  0.27694  0  3.754446  0  0  0.333534  0  4.014328  0  0  0.335495  0  4.037839  0  0  -0.11018  0.331709  0  3.998549  0
N  N94  1  0.15728790  0.37695732  0.03076866  1  0  0.277045  0  3.754378  0  0  0.333673  0  4.014288  0  0  0.335637  0  4.037788  0  0  -0.110039  0.331845  0  3.998514  0
N  N95  1  0.34271193  0.87697021  0.46922369  1  0  0.277002  0  3.754305  0  0  0.333613  0  4.014155  0  0  0.335573  0  4.037661  0  0  -0.110167  0.331784  0  3.998377  0
O  O96  1  0.70816075  0.63514084  0.02990706  1  0  -0.510125  0  1.698373  0  0  -0.475895  0  1.912501  0  0  -0.500636  0  1.917083  0  0  -0.228262  -0.458813  0  1.909248  0
O  O97  1  0.79181545  0.13512413  0.47009830  1  0  -0.510234  0  1.698433  0  0  -0.475864  0  1.912652  0  0  -0.500613  0  1.917236  0  0  -0.22823  -0.458779  0  1.909399  0
O  O98  1  0.29179511  0.36485904  0.97009080  1  0  -0.510321  0  1.698418  0  0  -0.475831  0  1.912573  0  0  -0.500573  0  1.917154  0  0  -0.228259  -0.458748  0  1.909318  0
O  O99  1  0.20819506  0.86488014  0.52990057  1  0  -0.510222  0  1.698324  0  0  -0.475801  0  1.912516  0  0  -0.500556  0  1.917103  0  0  -0.228181  -0.458715  0  1.909263  0
