# generated using pymatgen
data_CdH8C6N2O7
_symmetry_space_group_name_H-M   'P 1'
_cell_length_a   5.39980695
_cell_length_b   10.92808332
_cell_length_c   16.15249677
_cell_angle_alpha   89.99896802
_cell_angle_beta   89.99925817
_cell_angle_gamma   94.98604474
_symmetry_Int_Tables_number   1
_chemical_formula_structural   CdH8C6N2O7
_chemical_formula_sum   'Cd4 H32 C24 N8 O28'
_cell_volume   949.54458515
_cell_formula_units_Z   4
loop_
 _symmetry_equiv_pos_site_id
 _symmetry_equiv_pos_as_xyz
  1  'x, y, z'
loop_
 _atom_site_type_symbol
 _atom_site_label
 _atom_site_symmetry_multiplicity
 _atom_site_fract_x
 _atom_site_fract_y
 _atom_site_fract_z
 _atom_site_occupancy
 _atom_site_hle17_bader_spin_density
 _atom_site_hle17_ddec_charge
 _atom_site_hle17_ddec_spin_density
 _atom_site_hle17_ddec_sum_bond_order
 _atom_site_hle17_magmom
 _atom_site_hse06_10hf_bader_spin_density
 _atom_site_hse06_10hf_ddec_charge
 _atom_site_hse06_10hf_ddec_spin_density
 _atom_site_hse06_10hf_ddec_sum_bond_order
 _atom_site_hse06_10hf_magmom
 _atom_site_hse06_bader_spin_density
 _atom_site_hse06_ddec_charge
 _atom_site_hse06_ddec_spin_density
 _atom_site_hse06_ddec_sum_bond_order
 _atom_site_hse06_magmom
 _atom_site_pbe_bader_spin_density
 _atom_site_pbe_cm5_charge
 _atom_site_pbe_ddec_charge
 _atom_site_pbe_ddec_spin_density
 _atom_site_pbe_ddec_sum_bond_order
 _atom_site_pbe_magmom
Cd  Cd0  1  0.91787699  0.68267765  0.63226148  1  0  1.235173  0  1.616848  0  0  1.061155  0  2.060956  0  0  1.114999  0  2.003996  0  0  0.780654  1.022679  0  2.100259  0
Cd  Cd1  1  0.58213308  0.81731991  0.13226065  1  0  1.235227  0  1.616802  0  0  1.06117  0  2.060916  0  0  1.115013  0  2.003958  0  0  0.78065  1.022692  0  2.10021  0
Cd  Cd2  1  0.08210655  0.31730631  0.36773857  1  0  1.235337  0  1.616822  0  0  1.061207  0  2.060911  0  0  1.115043  0  2.003972  0  0  0.780711  1.022732  0  2.100199  0
Cd  Cd3  1  0.41789773  0.18269460  0.86773754  1  0  1.235264  0  1.616831  0  0  1.061197  0  2.060947  0  0  1.115033  0  2.004005  0  0  0.780696  1.022727  0  2.100239  0
H  H4  1  0.59989599  0.45190441  0.60514205  1  0  0.411833  0  0.884367  0  0  0.378201  0  0.962011  0  0  0.389286  0  0.945779  0  0  0.287435  0.370318  0  0.973523  0
H  H5  1  0.90010499  0.04810490  0.10514749  1  0  0.411962  0  0.884242  0  0  0.378317  0  0.961894  0  0  0.389403  0  0.945663  0  0  0.287449  0.370435  0  0.973406  0
H  H6  1  0.40008123  0.54809878  0.39485923  1  0  0.411843  0  0.884295  0  0  0.378191  0  0.962024  0  0  0.389279  0  0.945789  0  0  0.287401  0.370307  0  0.973537  0
H  H7  1  0.09992158  0.95189399  0.89485875  1  0  0.411851  0  0.884283  0  0  0.378191  0  0.962039  0  0  0.389276  0  0.945809  0  0  0.287399  0.370309  0  0.973552  0
H  H8  1  0.81707729  0.42379678  0.66419393  1  0  0.418599  0  0.876112  0  0  0.387407  0  0.943772  0  0  0.398663  0  0.927574  0  0  0.286912  0.379438  0  0.955214  0
H  H9  1  0.68291696  0.07619614  0.16420119  1  0  0.418601  0  0.876181  0  0  0.387362  0  0.943854  0  0  0.398618  0  0.927656  0  0  0.286846  0.379395  0  0.955293  0
H  H10  1  0.18292465  0.57618636  0.33579497  1  0  0.418617  0  0.876066  0  0  0.387345  0  0.943861  0  0  0.398604  0  0.927658  0  0  0.28688  0.379375  0  0.955304  0
H  H11  1  0.31707932  0.92382277  0.83579143  1  0  0.41846  0  0.876313  0  0  0.387279  0  0.943953  0  0  0.398535  0  0.927755  0  0  0.28683  0.379312  0  0.955391  0
H  H12  1  0.40158307  0.83444667  0.65312901  1  0  0.424851  0  0.869941  0  0  0.392017  0  0.9366  0  0  0.402816  0  0.921016  0  0  0.287023  0.384353  0  0.947642  0
H  H13  1  0.09842635  0.66556216  0.15312748  1  0  0.424856  0  0.869922  0  0  0.392009  0  0.936603  0  0  0.402808  0  0.921019  0  0  0.287031  0.384346  0  0.947644  0
H  H14  1  0.59838687  0.16555740  0.34687413  1  0  0.424876  0  0.869833  0  0  0.392021  0  0.936526  0  0  0.40282  0  0.920942  0  0  0.287046  0.384359  0  0.947567  0
H  H15  1  0.90159791  0.33444590  0.84687442  1  0  0.424945  0  0.869768  0  0  0.392132  0  0.936405  0  0  0.402931  0  0.920821  0  0  0.287101  0.384469  0  0.947447  0
H  H16  1  0.29685394  0.86664319  0.56349026  1  0  0.405008  0  0.885804  0  0  0.363172  0  0.976984  0  0  0.373957  0  0.961378  0  0  0.285247  0.355494  0  0.988074  0
H  H17  1  0.20314779  0.63336446  0.06349116  1  0  0.404994  0  0.885807  0  0  0.36316  0  0.976993  0  0  0.373946  0  0.961383  0  0  0.285236  0.35548  0  0.988083  0
H  H18  1  0.70312685  0.13335911  0.43651288  1  0  0.404996  0  0.885801  0  0  0.363138  0  0.977036  0  0  0.373924  0  0.961426  0  0  0.285237  0.355458  0  0.988127  0
H  H19  1  0.79686664  0.36663987  0.93651260  1  0  0.405038  0  0.88574  0  0  0.363181  0  0.976974  0  0  0.373967  0  0.961363  0  0  0.285236  0.355502  0  0.988064  0
H  H20  1  0.32249391  0.58236817  0.54082547  1  0  0.443412  0  0.860648  0  0  0.410559  0  0.926196  0  0  0.42114  0  0.910869  0  0  0.296363  0.403066  0  0.93704  0
H  H21  1  0.17750827  0.91763645  0.04083107  1  0  0.443403  0  0.860674  0  0  0.410518  0  0.926284  0  0  0.4211  0  0.910953  0  0  0.29628  0.403018  0  0.937136  0
H  H22  1  0.67753035  0.41763988  0.45918571  1  0  0.443393  0  0.860721  0  0  0.410535  0  0.926295  0  0  0.421113  0  0.91097  0  0  0.296436  0.403045  0  0.937135  0
H  H23  1  0.82245359  0.08235106  0.95918817  1  0  0.44345  0  0.860635  0  0  0.410573  0  0.926239  0  0  0.421155  0  0.910909  0  0  0.296451  0.403084  0  0.937079  0
H  H24  1  0.16190979  0.46945573  0.58394058  1  0  0.442598  0  0.852426  0  0  0.410751  0  0.916944  0  0  0.420735  0  0.902383  0  0  0.301936  0.403656  0  0.927292  0
H  H25  1  0.33807722  0.03053935  0.08395454  1  0  0.442605  0  0.852435  0  0  0.410745  0  0.91697  0  0  0.42073  0  0.902407  0  0  0.301886  0.40365  0  0.92732  0
H  H26  1  0.83807498  0.53054843  0.41604770  1  0  0.442479  0  0.852574  0  0  0.410696  0  0.91696  0  0  0.420676  0  0.902407  0  0  0.301984  0.403603  0  0.927304  0
H  H27  1  0.66193895  0.96945214  0.91603003  1  0  0.442496  0  0.852523  0  0  0.410748  0  0.916832  0  0  0.420725  0  0.902284  0  0  0.301968  0.403655  0  0.927176  0
H  H28  1  0.40940814  0.50523098  0.89959816  1  0  0.108465  0  0.924656  0  0  0.115239  0  0.986842  0  0  0.118504  0  0.984216  0  0  0.125316  0.112828  0  0.988894  0
H  H29  1  0.09059502  0.99476532  0.39959761  1  0  0.108473  0  0.9247  0  0  0.115257  0  0.986866  0  0  0.118523  0  0.984241  0  0  0.125373  0.112848  0  0.98892  0
H  H30  1  0.59058576  0.49477231  0.10039631  1  0  0.108429  0  0.924808  0  0  0.115233  0  0.986973  0  0  0.118499  0  0.984347  0  0  0.125344  0.112821  0  0.989025  0
H  H31  1  0.90943039  0.00523815  0.60039810  1  0  0.108522  0  0.924684  0  0  0.115221  0  0.98695  0  0  0.118477  0  0.984328  0  0  0.12539  0.112812  0  0.989002  0
H  H32  1  0.33019282  0.53817285  0.74668926  1  0  0.106305  0  0.936632  0  0  0.111237  0  1.003956  0  0  0.114654  0  1.001101  0  0  0.122345  0.108715  0  1.00618  0
H  H33  1  0.16981515  0.96182690  0.24668816  1  0  0.106317  0  0.93662  0  0  0.111276  0  1.003928  0  0  0.114695  0  1.001069  0  0  0.122355  0.108753  0  1.006155  0
H  H34  1  0.66980206  0.46183687  0.25330274  1  0  0.106325  0  0.936597  0  0  0.111254  0  1.003919  0  0  0.114673  0  1.001059  0  0  0.122377  0.108731  0  1.006143  0
H  H35  1  0.83022464  0.03818583  0.75330446  1  0  0.106226  0  0.936591  0  0  0.111201  0  1.003879  0  0  0.114619  0  1.001018  0  0  0.12236  0.108679  0  1.006108  0
C  C36  1  0.90801983  0.70363206  0.82614781  1  0  0.036198  0  3.69443  0  0  0.03493  0  3.935628  0  0  0.032757  0  3.955449  0  0  0.119999  0.035929  0  3.922702  0
C  C37  1  0.59199055  0.79637011  0.32615152  1  0  0.036022  0  3.694537  0  0  0.034834  0  3.935781  0  0  0.032661  0  3.955597  0  0  0.119976  0.03584  0  3.922848  0
C  C38  1  0.09197606  0.29637216  0.17384605  1  0  0.036182  0  3.694599  0  0  0.034907  0  3.935852  0  0  0.032732  0  3.955669  0  0  0.119954  0.035918  0  3.922915  0
C  C39  1  0.40802035  0.20362319  0.67384480  1  0  0.035953  0  3.694608  0  0  0.034761  0  3.935836  0  0  0.032586  0  3.955651  0  0  0.119883  0.035766  0  3.922908  0
C  C40  1  0.96434435  0.69006179  0.91031308  1  0  0.077736  0  3.692729  0  0  0.075738  0  3.943512  0  0  0.076616  0  3.958031  0  0  0.133345  0.074756  0  3.934303  0
C  C41  1  0.53566028  0.80993704  0.41031502  1  0  0.077885  0  3.6926  0  0  0.075651  0  3.943655  0  0  0.076531  0  3.958169  0  0  0.13323  0.074664  0  3.934442  0
C  C42  1  0.03565469  0.30993877  0.08968201  1  0  0.077788  0  3.692603  0  0  0.075778  0  3.943403  0  0  0.076663  0  3.957912  0  0  0.13325  0.074781  0  3.934193  0
C  C43  1  0.46433991  0.19005894  0.58968007  1  0  0.078167  0  3.692634  0  0  0.075942  0  3.943507  0  0  0.076826  0  3.95803  0  0  0.133314  0.074951  0  3.93429  0
C  C44  1  0.26766150  0.56351575  0.87874622  1  0  0.116087  0  3.626153  0  0  0.083818  0  3.898223  0  0  0.088331  0  3.910311  0  0  0.070139  0.080744  0  3.890272  0
C  C45  1  0.23232905  0.93647740  0.37874702  1  0  0.116152  0  3.626065  0  0  0.083899  0  3.898095  0  0  0.088415  0  3.910179  0  0  0.070064  0.080822  0  3.890151  0
C  C46  1  0.73232586  0.43648108  0.12124640  1  0  0.116279  0  3.626195  0  0  0.083947  0  3.898291  0  0  0.088462  0  3.91038  0  0  0.070102  0.080871  0  3.890341  0
C  C47  1  0.76768339  0.06352599  0.62124745  1  0  0.116226  0  3.626143  0  0  0.084016  0  3.898192  0  0  0.088544  0  3.910263  0  0  0.070107  0.080939  0  3.890245  0
C  C48  1  0.22101129  0.57948645  0.79434812  1  0  0.102677  0  3.626939  0  0  0.068673  0  3.888896  0  0  0.072713  0  3.903829  0  0  0.06151  0.065609  0  3.879103  0
C  C49  1  0.27899257  0.92051101  0.29434892  1  0  0.102668  0  3.627017  0  0  0.068615  0  3.888987  0  0  0.072653  0  3.903924  0  0  0.061519  0.065549  0  3.879203  0
C  C50  1  0.77898461  0.42051777  0.20564387  1  0  0.102471  0  3.626922  0  0  0.068501  0  3.888872  0  0  0.072544  0  3.903795  0  0  0.061432  0.065436  0  3.879082  0
C  C51  1  0.72103183  0.07949796  0.70564431  1  0  0.102593  0  3.627012  0  0  0.068571  0  3.88892  0  0  0.072615  0  3.903843  0  0  0.061372  0.065503  0  3.879141  0
C  C52  1  0.69800916  0.77767563  0.79606886  1  0  0.632759  0  3.921434  0  0  0.573816  0  4.23031  0  0  0.607335  0  4.224954  0  0  0.213962  0.551163  0  4.233114  0
C  C53  1  0.80200155  0.72233289  0.29606949  1  0  0.632764  0  3.921378  0  0  0.573754  0  4.230336  0  0  0.607273  0  4.224979  0  0  0.213903  0.5511  0  4.233137  0
C  C54  1  0.30199055  0.22234145  0.20393304  1  0  0.632874  0  3.921318  0  0  0.573882  0  4.230253  0  0  0.607404  0  4.224896  0  0  0.214152  0.551226  0  4.233057  0
C  C55  1  0.19799613  0.27764656  0.70392931  1  0  0.632976  0  3.921278  0  0  0.573966  0  4.230279  0  0  0.607494  0  4.224913  0  0  0.214149  0.551309  0  4.233082  0
C  C56  1  0.85070245  0.75968094  0.97846336  1  0  0.646895  0  3.956298  0  0  0.583529  0  4.265093  0  0  0.619636  0  4.253992  0  0  0.216504  0.55884  0  4.271979  0
C  C57  1  0.64931112  0.74032152  0.47846875  1  0  0.646946  0  3.956309  0  0  0.583723  0  4.264999  0  0  0.619836  0  4.253884  0  0  0.216661  0.559038  0  4.271882  0
C  C58  1  0.14930002  0.24031781  0.02153050  1  0  0.646712  0  3.956342  0  0  0.583365  0  4.26512  0  0  0.619476  0  4.254011  0  0  0.216527  0.558685  0  4.271996  0
C  C59  1  0.35067100  0.25966518  0.52152510  1  0  0.646421  0  3.957163  0  0  0.583387  0  4.265482  0  0  0.619485  0  4.254389  0  0  0.21671  0.5587  0  4.272355  0
N  N60  1  0.04163895  0.64817290  0.76951168  1  0  -0.286811  0  3.247914  0  0  -0.220625  0  3.503979  0  0  -0.234475  0  3.52203  0  0  -0.30304  -0.210789  0  3.491719  0
N  N61  1  0.45835717  0.85182796  0.26951441  1  0  -0.286769  0  3.247984  0  0  -0.220586  0  3.504042  0  0  -0.234434  0  3.522093  0  0  -0.302989  -0.210754  0  3.491783  0
N  N62  1  0.95834981  0.35183311  0.23048218  1  0  -0.286778  0  3.247879  0  0  -0.220624  0  3.503973  0  0  -0.23447  0  3.522019  0  0  -0.302972  -0.210791  0  3.491713  0
N  N63  1  0.54166639  0.14817550  0.73048068  1  0  -0.286821  0  3.248098  0  0  -0.220654  0  3.504148  0  0  -0.234502  0  3.522198  0  0  -0.302967  -0.210824  0  3.491889  0
N  N64  1  0.14046151  0.61921553  0.93658798  1  0  -0.25958  0  3.04906  0  0  -0.222666  0  3.310665  0  0  -0.229968  0  3.321798  0  0  -0.276642  -0.217648  0  3.30341  0
N  N65  1  0.35953773  0.88077695  0.43659016  1  0  -0.259686  0  3.049038  0  0  -0.222705  0  3.310689  0  0  -0.23001  0  3.321822  0  0  -0.276622  -0.217684  0  3.303435  0
N  N66  1  0.85953369  0.38078409  0.06340587  1  0  -0.259609  0  3.049043  0  0  -0.222676  0  3.310647  0  0  -0.22998  0  3.321776  0  0  -0.276562  -0.217651  0  3.303392  0
N  N67  1  0.64046404  0.11921721  0.56340369  1  0  -0.259701  0  3.048991  0  0  -0.222744  0  3.310611  0  0  -0.230048  0  3.321735  0  0  -0.27657  -0.217718  0  3.303353  0
O  O68  1  0.65849879  0.78205854  0.71825742  1  0  -0.65199  0  2.057041  0  0  -0.580441  0  2.309163  0  0  -0.61092  0  2.299112  0  0  -0.31238  -0.559006  0  2.315339  0
O  O69  1  0.84152066  0.71795040  0.21825732  1  0  -0.652045  0  2.056945  0  0  -0.580375  0  2.308973  0  0  -0.610853  0  2.298919  0  0  -0.312371  -0.558942  0  2.315149  0
O  O70  1  0.34149724  0.21794660  0.28173953  1  0  -0.652027  0  2.057502  0  0  -0.580424  0  2.309627  0  0  -0.610897  0  2.299569  0  0  -0.312453  -0.558991  0  2.315804  0
O  O71  1  0.15850034  0.28204845  0.78173777  1  0  -0.652177  0  2.057254  0  0  -0.580577  0  2.309432  0  0  -0.611048  0  2.299364  0  0  -0.312554  -0.559146  0  2.315614  0
O  O72  1  0.57321241  0.82775751  0.85051737  1  0  -0.614158  0  2.005786  0  0  -0.553165  0  2.227136  0  0  -0.579429  0  2.220624  0  0  -0.30016  -0.53476  0  2.231048  0
O  O73  1  0.92680084  0.67225775  0.35051932  1  0  -0.614192  0  2.005746  0  0  -0.553152  0  2.227106  0  0  -0.579433  0  2.220625  0  0  -0.30014  -0.534745  0  2.231014  0
O  O74  1  0.42682035  0.17226986  0.14947463  1  0  -0.614352  0  2.005168  0  0  -0.553282  0  2.226544  0  0  -0.579584  0  2.220089  0  0  -0.300306  -0.534876  0  2.23046  0
O  O75  1  0.07316665  0.32770593  0.64947144  1  0  -0.614162  0  2.005395  0  0  -0.553209  0  2.226882  0  0  -0.579524  0  2.220443  0  0  -0.30019  -0.534797  0  2.230789  0
O  O76  1  0.70036473  0.69997716  0.02651214  1  0  -0.60102  0  2.019689  0  0  -0.53431  0  2.270082  0  0  -0.565132  0  2.259903  0  0  -0.30533  -0.512557  0  2.276317  0
O  O77  1  0.79962794  0.80002421  0.52651823  1  0  -0.600925  0  2.019765  0  0  -0.534268  0  2.270124  0  0  -0.565083  0  2.25993  0  0  -0.305368  -0.51252  0  2.276364  0
O  O78  1  0.29962871  0.30003530  0.97347862  1  0  -0.600985  0  2.019583  0  0  -0.53426  0  2.269939  0  0  -0.56508  0  2.259757  0  0  -0.305388  -0.512507  0  2.27617  0
O  O79  1  0.20033825  0.19994313  0.47348243  1  0  -0.601165  0  2.020055  0  0  -0.534377  0  2.270096  0  0  -0.565196  0  2.259926  0  0  -0.305546  -0.512624  0  2.276326  0
O  O80  1  0.93233624  0.87158247  0.98634983  1  0  -0.660619  0  2.081191  0  0  -0.58611  0  2.302979  0  0  -0.614142  0  2.291568  0  0  -0.307117  -0.566169  0  2.310183  0
O  O81  1  0.56768526  0.62841339  0.48635446  1  0  -0.660742  0  2.081195  0  0  -0.586266  0  2.302901  0  0  -0.614317  0  2.291519  0  0  -0.307192  -0.566321  0  2.310097  0
O  O82  1  0.06769218  0.12841643  0.01364093  1  0  -0.660518  0  2.081326  0  0  -0.585952  0  2.30298  0  0  -0.613996  0  2.2916  0  0  -0.307054  -0.566019  0  2.310182  0
O  O83  1  0.43227234  0.37157042  0.51361711  1  0  -0.66033  0  2.08156  0  0  -0.585923  0  2.303075  0  0  -0.613934  0  2.29168  0  0  -0.307113  -0.565985  0  2.310278  0
O  O84  1  0.68733038  0.48183025  0.65598336  1  0  -0.829328  0  1.843064  0  0  -0.774599  0  2.043159  0  0  -0.796446  0  2.008875  0  0  -0.589472  -0.758991  0  2.06709  0
O  O85  1  0.81266651  0.01816567  0.15598767  1  0  -0.829436  0  1.842956  0  0  -0.774711  0  2.043065  0  0  -0.796564  0  2.008774  0  0  -0.589454  -0.759089  0  2.066968  0
O  O86  1  0.31267982  0.51815845  0.34401359  1  0  -0.829363  0  1.842913  0  0  -0.77458  0  2.043132  0  0  -0.796429  0  2.008846  0  0  -0.589443  -0.75897  0  2.06706  0
O  O87  1  0.18731168  0.98184395  0.84401113  1  0  -0.829236  0  1.843059  0  0  -0.77454  0  2.043209  0  0  -0.796392  0  2.008926  0  0  -0.589375  -0.758915  0  2.067107  0
O  O88  1  0.25003773  0.84953129  0.62182015  1  0  -0.826423  0  1.836048  0  0  -0.765723  0  2.034224  0  0  -0.786712  0  2.000573  0  0  -0.587117  -0.750783  0  2.05776  0
O  O89  1  0.24996710  0.65047565  0.12181940  1  0  -0.826369  0  1.836046  0  0  -0.765675  0  2.034241  0  0  -0.786669  0  2.000591  0  0  -0.587116  -0.750738  0  2.057774  0
O  O90  1  0.74993648  0.15047648  0.37818361  1  0  -0.826442  0  1.835984  0  0  -0.765714  0  2.034212  0  0  -0.786703  0  2.000564  0  0  -0.587138  -0.750777  0  2.057745  0
O  O91  1  0.75005716  0.34953241  0.87818250  1  0  -0.826556  0  1.835866  0  0  -0.765855  0  2.03401  0  0  -0.786843  0  2.000361  0  0  -0.587188  -0.750917  0  2.057544  0
O  O92  1  0.17898506  0.55896474  0.57752118  1  0  -0.878582  0  1.920581  0  0  -0.812568  0  2.137921  0  0  -0.834861  0  2.102245  0  0  -0.607304  -0.796851  0  2.162768  0
O  O93  1  0.32101251  0.94103147  0.07753083  1  0  -0.878617  0  1.920545  0  0  -0.812592  0  2.137947  0  0  -0.834877  0  2.10225  0  0  -0.607222  -0.796869  0  2.162808  0
O  O94  1  0.82120572  0.44105436  0.42256121  1  0  -0.878558  0  1.920794  0  0  -0.812475  0  2.137901  0  0  -0.834777  0  2.102252  0  0  -0.60755  -0.796768  0  2.162742  0
O  O95  1  0.67878283  0.05894498  0.92256270  1  0  -0.878591  0  1.920664  0  0  -0.812501  0  2.137801  0  0  -0.834801  0  2.102148  0  0  -0.607542  -0.796795  0  2.162645  0
