# generated using pymatgen
data_Co2H36C50N4O11
_symmetry_space_group_name_H-M   'P 1'
_cell_length_a   10.88316959
_cell_length_b   10.88315536
_cell_length_c   19.34188778
_cell_angle_alpha   92.51957237
_cell_angle_beta   92.51974741
_cell_angle_gamma   95.19894205
_symmetry_Int_Tables_number   1
_chemical_formula_structural   Co2H36C50N4O11
_chemical_formula_sum   'Co4 H72 C100 N8 O22'
_cell_volume   2276.63700651
_cell_formula_units_Z   2
loop_
 _symmetry_equiv_pos_site_id
 _symmetry_equiv_pos_as_xyz
  1  'x, y, z'
loop_
 _atom_site_type_symbol
 _atom_site_label
 _atom_site_symmetry_multiplicity
 _atom_site_fract_x
 _atom_site_fract_y
 _atom_site_fract_z
 _atom_site_occupancy
 _atom_site_pbe_bader_charge
 _atom_site_pbe_bader_spin_density
 _atom_site_pbe_cm5_charge
 _atom_site_pbe_ddec_charge
 _atom_site_pbe_ddec_spin_density
 _atom_site_pbe_ddec_sum_bond_order
 _atom_site_pbe_magmom
Co  Co0  1  0.60797123  0.26951407  0.33036219  1  1.305671  2.611344  0.683787  0.936182  2.833281  2.49264  2.593
Co  Co1  1  0.73048731  0.39203146  0.16963248  1  1.305687  2.61134  0.683804  0.936162  2.833264  2.492577  2.593
Co  Co2  1  0.39202750  0.73048590  0.66963727  1  1.305644  2.611338  0.683766  0.936108  2.833277  2.49273  2.593
Co  Co3  1  0.26951697  0.60796629  0.83036500  1  1.305671  2.611342  0.683776  0.936138  2.833272  2.492557  2.593
H  H4  1  0.61334818  0.49587689  0.26205316  1  0.653557  0.000373  0.285685  0.373354  0.000326  0.979131  0.001
H  H5  1  0.50412019  0.38665644  0.23793763  1  0.653481  0.000374  0.285696  0.37341  0.000326  0.979043  0.001
H  H6  1  0.38665518  0.50412077  0.73794170  1  0.653557  0.000373  0.285678  0.373338  0.000326  0.979152  0.001
H  H7  1  0.49587853  0.61334446  0.76205823  1  0.653535  0.000374  0.28566  0.373317  0.000327  0.979174  0.001
H  H8  1  0.58338677  0.98832309  0.33842354  1  0.144977  0.002044  0.119159  0.093646  0.000602  1.02684  0.002
H  H9  1  0.01167963  0.41660822  0.16157601  1  0.144986  0.002044  0.119174  0.093626  0.000602  1.026884  0.002
H  H10  1  0.41660455  0.01167892  0.66157786  1  0.144959  0.002044  0.119162  0.093669  0.000602  1.026857  0.002
H  H11  1  0.98832557  0.58339145  0.83842257  1  0.144976  0.002044  0.119185  0.093664  0.000602  1.026869  0.002
H  H12  1  0.62906140  0.83609631  0.42775432  1  0.110274  0.00097  0.110146  0.113603  0.000409  1.002843  0.0
H  H13  1  0.16390760  0.37093585  0.07224497  1  0.110175  0.00097  0.110129  0.113547  0.000409  1.002869  0.0
H  H14  1  0.37092810  0.16390093  0.57224536  1  0.110254  0.00097  0.110098  0.11357  0.000409  1.002839  0.0
H  H15  1  0.83609852  0.62906483  0.92775314  1  0.110313  0.00097  0.110155  0.113609  0.000409  1.002857  0.0
H  H16  1  0.69625575  0.91847066  0.54937774  1  0.118025  -5.8e-05  0.109465  0.108831  -0.000186  1.003288  0.0
H  H17  1  0.08152974  0.30373918  0.95062253  1  0.117993  -5.8e-05  0.109442  0.108792  -0.000186  1.003303  0.0
H  H18  1  0.30373930  0.08152343  0.45062251  1  0.117992  -5.8e-05  0.109474  0.108796  -0.000186  1.003306  0.0
H  H19  1  0.91847361  0.69625848  0.04937699  1  0.118055  -5.8e-05  0.109486  0.108833  -0.000186  1.003259  0.0
H  H20  1  0.71334723  0.14517484  0.57497385  1  0.09803  0.000959  0.111634  0.118057  0.000426  1.006833  0.001
H  H21  1  0.85482728  0.28664332  0.92502601  1  0.098034  0.000959  0.111655  0.118062  0.000426  1.006873  0.001
H  H22  1  0.28664689  0.85482101  0.42502642  1  0.098015  0.000959  0.111615  0.117999  0.000426  1.006884  0.001
H  H23  1  0.14517700  0.71335351  0.07497300  1  0.098039  0.000959  0.111625  0.118017  0.000426  1.006908  0.001
H  H24  1  0.70280637  0.33712641  0.59030762  1  0.078317  0.001098  0.113624  0.121713  0.00053  0.987151  0.001
H  H25  1  0.66287285  0.29719133  0.90969217  1  0.078304  0.001098  0.113631  0.121708  0.00053  0.987211  0.001
H  H26  1  0.29719328  0.66287088  0.40969594  1  0.078435  0.001098  0.113623  0.121738  0.00053  0.987122  0.001
H  H27  1  0.33712588  0.70280772  0.09030623  1  0.078328  0.001098  0.113625  0.121716  0.00053  0.987151  0.001
H  H28  1  0.70235911  0.56673117  0.59674756  1  0.128794  -0.000118  0.110564  0.112701  -0.000305  0.996185  0.0
H  H29  1  0.43327074  0.29763749  0.90325310  1  0.128627  -0.000118  0.110543  0.112614  -0.000305  0.99625  0.0
H  H30  1  0.29764053  0.43326797  0.40325656  1  0.128736  -0.000118  0.110585  0.112696  -0.000305  0.996172  0.0
H  H31  1  0.56672891  0.70236349  0.09674796  1  0.128603  -0.000119  0.110573  0.112698  -0.000305  0.99616  0.0
H  H32  1  0.65912339  0.67480316  0.48811014  1  0.065561  0.001153  0.108196  0.108646  0.000533  1.007283  0.0
H  H33  1  0.32519405  0.34087327  0.01188809  1  0.065534  0.001153  0.108194  0.10866  0.000533  1.007302  0.0
H  H34  1  0.34087627  0.32519229  0.51189233  1  0.065489  0.001153  0.108228  0.108701  0.000533  1.007263  0.0
H  H35  1  0.67480651  0.65912780  0.98811247  1  0.065526  0.001153  0.108188  0.108644  0.000533  1.007305  0.0
H  H36  1  0.61699530  0.54927732  0.37653043  1  0.117059  0.002367  0.12057  0.096427  0.000667  1.010251  0.002
H  H37  1  0.45072081  0.38300489  0.12346903  1  0.117234  0.002367  0.120551  0.096442  0.000667  1.010233  0.002
H  H38  1  0.38300251  0.45071888  0.62347357  1  0.117291  0.002367  0.120594  0.096447  0.000667  1.010298  0.002
H  H39  1  0.54928160  0.61699636  0.87653159  1  0.117224  0.002367  0.120529  0.096417  0.000667  1.010238  0.002
H  H40  1  0.12467232  0.38959705  0.26106603  1  0.065695  0.000245  0.104061  0.1127  6.9e-05  1.012929  0.0
H  H41  1  0.61041077  0.87533102  0.23893501  1  0.065791  0.000245  0.103997  0.112614  6.9e-05  1.013135  0.0
H  H42  1  0.87532639  0.61040752  0.73893147  1  0.065753  0.000245  0.104077  0.112673  6.9e-05  1.013048  0.0
H  H43  1  0.38959535  0.12466690  0.76106407  1  0.065699  0.000245  0.104044  0.112677  6.9e-05  1.012921  0.0
H  H44  1  0.27637739  0.06275973  0.33226795  1  0.084657  0.000189  0.110805  0.12947  4.8e-05  0.993986  0.0
H  H45  1  0.93723451  0.72362083  0.16772166  1  0.0849  0.000189  0.110809  0.129497  4.8e-05  0.99398  0.0
H  H46  1  0.72361581  0.93723603  0.66772713  1  0.084829  0.000189  0.11084  0.129522  4.8e-05  0.994031  0.0
H  H47  1  0.06276701  0.27637389  0.83227567  1  0.084965  0.000189  0.110751  0.129396  4.8e-05  0.994103  0.0
H  H48  1  0.88434599  0.09744056  0.33823768  1  0.080907  0.000361  0.106915  0.120719  9.8e-05  1.039322  0.0
H  H49  1  0.90255993  0.11565484  0.16175731  1  0.080876  0.000361  0.106883  0.120704  9.8e-05  1.039323  0.0
H  H50  1  0.11565087  0.90256475  0.66176186  1  0.080809  0.000361  0.106912  0.120684  9.8e-05  1.039336  0.0
H  H51  1  0.09744620  0.88434217  0.83824278  1  0.080762  0.000361  0.106879  0.120695  9.8e-05  1.039325  0.0
H  H52  1  0.88812128  0.88184284  0.33062244  1  0.082276  -2e-05  0.100434  0.075231  -4e-05  1.009566  0.0
H  H53  1  0.11815229  0.11187023  0.16937563  1  0.082364  -2e-05  0.100446  0.07528  -4e-05  1.009553  0.0
H  H54  1  0.11187282  0.11815761  0.66937950  1  0.082227  -2e-05  0.100439  0.075222  -4e-05  1.009594  0.0
H  H55  1  0.88184460  0.88812496  0.83062573  1  0.082397  -2e-05  0.10045  0.075267  -4e-05  1.009526  0.0
H  H56  1  0.90602735  0.96359431  0.41332002  1  0.040221  -3e-05  0.096595  0.060239  -5.8e-05  1.018548  0.0
H  H57  1  0.03640890  0.09398521  0.08667614  1  0.040062  -3e-05  0.096568  0.060207  -5.8e-05  1.01865  0.0
H  H58  1  0.09397228  0.03640943  0.58668162  1  0.040291  -3e-05  0.096594  0.06023  -5.8e-05  1.01857  0.0
H  H59  1  0.96358981  0.90601751  0.91332597  1  0.040092  -3e-05  0.09657  0.060222  -5.8e-05  1.018643  0.0
H  H60  1  0.00230139  0.86991458  0.51481841  1  0.070086  -3.1e-05  0.094251  0.093637  -3.3e-05  1.026752  0.0
H  H61  1  0.13008750  0.99769801  0.98517989  1  0.069843  -3.1e-05  0.094252  0.09366  -3.3e-05  1.026709  0.0
H  H62  1  0.99769732  0.13008814  0.48518370  1  0.070184  -3.1e-05  0.094241  0.093626  -3.3e-05  1.0267  0.0
H  H63  1  0.86991214  0.00230204  0.01482166  1  0.069821  -3.1e-05  0.094285  0.093701  -3.3e-05  1.026698  0.0
H  H64  1  0.03285065  0.68086647  0.57358508  1  0.071598  -3.2e-05  0.09492  0.096621  -0.0001  1.069249  0.0
H  H65  1  0.31913912  0.96714665  0.92641501  1  0.071599  -3.2e-05  0.09492  0.096616  -0.0001  1.069241  0.0
H  H66  1  0.96714899  0.31913635  0.42641706  1  0.071662  -3.2e-05  0.094957  0.096702  -0.0001  1.069164  0.0
H  H67  1  0.68086053  0.03285156  0.07358702  1  0.071553  -3.2e-05  0.094895  0.096542  -0.0001  1.069279  0.0
H  H68  1  0.94526091  0.46953880  0.38072735  1  0.088426  7.2e-05  0.097659  0.098195  -2.9e-05  1.061708  0.0
H  H69  1  0.53045989  0.05474289  0.11927412  1  0.088501  7.2e-05  0.097675  0.098219  -2.9e-05  1.061709  0.0
H  H70  1  0.05473503  0.53046366  0.61927521  1  0.088344  7.2e-05  0.097716  0.098264  -2.9e-05  1.061751  0.0
H  H71  1  0.46953975  0.94525993  0.88072802  1  0.088426  7.2e-05  0.097665  0.098214  -2.9e-05  1.061705  0.0
H  H72  1  0.91816622  0.65920675  0.32205682  1  0.067605  3e-06  0.101055  0.108539  -3.4e-05  1.010996  0.0
H  H73  1  0.34078702  0.08183960  0.17794283  1  0.067317  3e-06  0.101096  0.1086  -3.4e-05  1.010936  0.0
H  H74  1  0.08182787  0.34079553  0.67794620  1  0.067589  3e-06  0.10102  0.108432  -3.4e-05  1.011036  0.0
H  H75  1  0.65920983  0.91816571  0.82205775  1  0.067664  3e-06  0.101042  0.108518  -3.4e-05  1.011017  0.0
C  C76  1  0.61019495  0.01754222  0.39200026  1  0.429326  -0.004619  0.050701  0.097826  -0.005103  3.937222  -0.002
C  C77  1  0.98246059  0.38980334  0.10799973  1  0.429344  -0.004619  0.050622  0.097767  -0.005103  3.9372  -0.002
C  C78  1  0.38979731  0.98245713  0.60800109  1  0.42956  -0.00462  0.050658  0.097709  -0.005103  3.937398  -0.002
C  C79  1  0.01754368  0.61019625  0.89199934  1  0.429494  -0.004618  0.050653  0.097752  -0.005101  3.937452  -0.002
C  C80  1  0.63661650  0.93450390  0.44202333  1  -0.022145  0.002357  -0.083798  -0.131677  0.000677  3.986429  0.003
C  C81  1  0.06549816  0.36338247  0.05797588  1  -0.022123  0.002356  -0.083769  -0.13158  0.000677  3.986373  0.003
C  C82  1  0.36337483  0.06549443  0.55797745  1  -0.022361  0.002357  -0.083774  -0.131716  0.000678  3.986514  0.003
C  C83  1  0.93450611  0.63661803  0.94202219  1  -0.022606  0.002356  -0.083852  -0.131734  0.000677  3.986467  0.003
C  C84  1  0.67388621  0.98063432  0.50891231  1  -0.024164  -0.009505  -0.068115  -0.029546  -0.01035  3.96519  -0.006
C  C85  1  0.01936818  0.32611149  0.99108697  1  -0.024202  -0.009506  -0.06811  -0.029517  -0.01035  3.965143  -0.006
C  C86  1  0.32610791  0.01936153  0.49108900  1  -0.023982  -0.009506  -0.068059  -0.02936  -0.01035  3.965113  -0.006
C  C87  1  0.98063517  0.67388709  0.00891154  1  -0.02387  -0.009503  -0.0681  -0.029499  -0.010348  3.965073  -0.006
C  C88  1  0.68222137  0.10774160  0.52341173  1  -0.070049  0.002841  -0.07684  -0.15633  0.001177  3.947152  0.003
C  C89  1  0.89225968  0.31777510  0.97658723  1  -0.070078  0.002841  -0.076835  -0.156285  0.001176  3.947125  0.003
C  C90  1  0.31777368  0.89225250  0.47658904  1  -0.070079  0.002841  -0.076842  -0.15632  0.001177  3.947104  0.003
C  C91  1  0.10774367  0.68222440  0.02341130  1  -0.070069  0.00284  -0.076852  -0.156324  0.001176  3.947107  0.003
C  C92  1  0.65290190  0.18612059  0.47071953  1  0.489406  -0.00625  0.123525  0.168773  -0.007979  3.975245  -0.003
C  C93  1  0.81387844  0.34709586  0.02927920  1  0.489053  -0.006252  0.123535  0.1687  -0.007981  3.975146  -0.003
C  C94  1  0.34709498  0.81387736  0.52928190  1  0.488959  -0.00625  0.123459  0.168685  -0.007979  3.975316  -0.003
C  C95  1  0.18612306  0.65290346  0.97071927  1  0.489013  -0.006249  0.12354  0.168791  -0.007978  3.975167  -0.003
C  C96  1  0.65689956  0.32171260  0.47996301  1  0.494616  -0.009983  0.121146  0.168078  -0.011544  3.980418  -0.006
C  C97  1  0.67828793  0.34310016  0.02003569  1  0.494965  -0.009986  0.121151  0.16819  -0.011548  3.98035  -0.006
C  C98  1  0.34310010  0.67828378  0.52004052  1  0.494916  -0.009984  0.121247  0.168273  -0.011545  3.98051  -0.006
C  C99  1  0.32171450  0.65690017  0.97996283  1  0.494842  -0.009986  0.121163  0.168143  -0.011547  3.980401  -0.006
C  C100  1  0.68273301  0.38623702  0.54389778  1  -0.023689  0.004357  -0.075115  -0.153071  0.001797  3.942311  0.004
C  C101  1  0.61376325  0.31726605  0.95610149  1  -0.023721  0.004358  -0.07511  -0.153092  0.001797  3.94238  0.004
C  C102  1  0.31726572  0.61375927  0.45610572  1  -0.023622  0.004358  -0.075218  -0.153263  0.001797  3.942396  0.004
C  C103  1  0.38623640  0.68273401  0.04389748  1  -0.023711  0.004358  -0.075141  -0.153134  0.001797  3.942338  0.004
C  C104  1  0.68317353  0.51429466  0.54762171  1  -0.045257  -0.014805  -0.063795  -0.018851  -0.016016  3.957255  -0.009
C  C105  1  0.48570579  0.31682730  0.95237853  1  -0.045083  -0.014809  -0.063771  -0.018734  -0.01602  3.957237  -0.009
C  C106  1  0.31682520  0.48570254  0.45238233  1  -0.045109  -0.014806  -0.063829  -0.018831  -0.016017  3.957191  -0.009
C  C107  1  0.51429477  0.68317469  0.04762206  1  -0.045068  -0.014809  -0.063785  -0.018816  -0.016021  3.95715  -0.009
C  C108  1  0.65855440  0.57474790  0.48719835  1  -0.054922  0.004376  -0.076611  -0.113277  0.001905  3.966753  0.004
C  C109  1  0.42525085  0.34144569  0.01280114  1  -0.054924  0.004377  -0.076647  -0.11333  0.001906  3.966691  0.004
C  C110  1  0.34144525  0.42524847  0.51280570  1  -0.055333  0.004378  -0.07664  -0.113349  0.001906  3.966576  0.004
C  C111  1  0.57475064  0.65855547  0.98719894  1  -0.054924  0.004377  -0.076598  -0.113271  0.001906  3.966687  0.004
C  C112  1  0.63430757  0.50519856  0.42516151  1  0.515265  -0.009888  0.054318  0.099009  -0.010635  3.942583  -0.006
C  C113  1  0.49480011  0.36569479  0.07483755  1  0.515086  -0.00989  0.054367  0.099061  -0.010637  3.942538  -0.006
C  C114  1  0.36569209  0.49479781  0.57484202  1  0.515231  -0.009889  0.054303  0.099022  -0.010635  3.94254  -0.006
C  C115  1  0.50520138  0.63430729  0.92516255  1  0.515059  -0.00989  0.054328  0.099025  -0.010637  3.942616  -0.006
C  C116  1  0.88058526  0.31724334  0.28949416  1  1.569428  0.005581  0.211185  0.577505  0.00403  4.192894  0.005
C  C117  1  0.68276975  0.11942224  0.21050422  1  1.568913  0.005579  0.211234  0.577381  0.004029  4.192214  0.005
C  C118  1  0.11941529  0.68276232  0.71050704  1  1.569413  0.00558  0.211248  0.577529  0.004028  4.192566  0.005
C  C119  1  0.31723729  0.88057669  0.78949490  1  1.569125  0.005577  0.211254  0.577534  0.004028  4.192659  0.005
C  C120  1  0.99375628  0.24907028  0.29882175  1  -0.088645  0.008136  -0.020306  -0.016264  0.004163  4.00986  0.006
C  C121  1  0.75093369  0.00624637  0.20117592  1  -0.08892  0.008137  -0.02025  -0.016155  0.004163  4.009508  0.006
C  C122  1  0.00624336  0.75093254  0.70117729  1  -0.088704  0.008136  -0.020193  -0.016145  0.004162  4.009486  0.006
C  C123  1  0.24907335  0.99375256  0.79882527  1  -0.088927  0.008137  -0.020364  -0.0163  0.004163  4.009932  0.006
C  C124  1  0.11097123  0.29835803  0.28197079  1  0.000329  0.002736  -0.095007  -0.161218  0.00137  3.97933  0.002
C  C125  1  0.70164455  0.88903044  0.21802756  1  0.000442  0.002736  -0.094914  -0.161092  0.001369  3.979251  0.002
C  C126  1  0.88902750  0.70164103  0.71802710  1  0.000681  0.002736  -0.095069  -0.161232  0.00137  3.979267  0.002
C  C127  1  0.29835973  0.11096731  0.78197146  1  0.000405  0.002735  -0.094922  -0.160996  0.001369  3.979121  0.002
C  C128  1  0.21265576  0.23122670  0.29561675  1  0.009907  0.004629  -0.020172  -0.017237  0.002387  4.025392  0.003
C  C129  1  0.76877179  0.78734440  0.20437954  1  0.00937  0.004628  -0.020241  -0.017257  0.002387  4.025123  0.003
C  C130  1  0.78734113  0.76877309  0.70437904  1  0.009181  0.004628  -0.020248  -0.017266  0.002387  4.025227  0.003
C  C131  1  0.23122972  0.21265216  0.79561835  1  0.009729  0.004628  -0.020208  -0.017314  0.002387  4.025215  0.003
C  C132  1  0.19645733  0.11403037  0.32238887  1  -0.001256  0.001141  -0.095094  -0.215253  0.000593  3.94576  0.001
C  C133  1  0.88596976  0.80354434  0.17760396  1  -0.001127  0.00114  -0.095054  -0.215296  0.000592  3.945609  0.001
C  C134  1  0.80354047  0.88597135  0.67760699  1  -0.001257  0.001141  -0.095063  -0.215271  0.000593  3.945697  0.001
C  C135  1  0.11403452  0.19645249  0.82239504  1  -0.001432  0.00114  -0.095028  -0.215136  0.000592  3.945757  0.001
C  C136  1  0.07801493  0.06290020  0.33661475  1  0.410028  0.000441  0.079  0.258075  0.000123  4.086542  0.0
C  C137  1  0.93709892  0.92198527  0.16337744  1  0.410241  0.000442  0.079031  0.258146  0.000123  4.086522  0.0
C  C138  1  0.92198286  0.93710060  0.66338418  1  0.410444  0.000441  0.07902  0.258111  0.000123  4.086496  0.0
C  C139  1  0.06290536  0.07801156  0.83662208  1  0.40976  0.000442  0.079037  0.2581  0.000123  4.086526  0.0
C  C140  1  0.97730816  0.13174904  0.32607769  1  0.016825  0.001852  -0.102901  -0.231053  0.000944  3.970185  0.001
C  C141  1  0.86825338  0.02269500  0.17391901  1  0.017097  0.001852  -0.102931  -0.231065  0.000944  3.969975  0.001
C  C142  1  0.02269055  0.86825460  0.67392186  1  0.01655  0.001852  -0.10291  -0.231024  0.000944  3.969972  0.001
C  C143  1  0.13175274  0.97730384  0.82608216  1  0.017721  0.001852  -0.102866  -0.231007  0.000944  3.970059  0.001
C  C144  1  0.34162211  0.28570597  0.28494068  1  1.577646  0.003223  0.211431  0.581913  0.001939  4.190582  0.003
C  C145  1  0.71430532  0.65837841  0.21505600  1  1.576989  0.003222  0.211338  0.58185  0.001938  4.190351  0.003
C  C146  1  0.65837567  0.71429851  0.71505629  1  1.577067  0.003223  0.211364  0.581863  0.001939  4.19044  0.003
C  C147  1  0.28569897  0.34161658  0.78493830  1  1.577223  0.003221  0.211497  0.581874  0.001938  4.190451  0.003
C  C148  1  0.94666663  0.89674071  0.37869748  1  0.369773  -1.7e-05  -0.065057  -0.017502  -5.4e-05  3.914232  0.0
C  C149  1  0.10325756  0.05333589  0.12129788  1  0.369813  -1.7e-05  -0.06507  -0.01755  -5.4e-05  3.914531  0.0
C  C150  1  0.05333116  0.10326100  0.62130458  1  0.369849  -1.7e-05  -0.065045  -0.017445  -5.4e-05  3.914165  0.0
C  C151  1  0.89674208  0.94666509  0.87870214  1  0.369805  -1.7e-05  -0.065074  -0.017558  -5.4e-05  3.914387  0.0
C  C152  1  0.95941177  0.77897776  0.41402962  1  -0.052956  -0.000115  -0.024564  0.063486  -0.000108  4.025772  0.0
C  C153  1  0.22102201  0.04059291  0.08596699  1  -0.053431  -0.000115  -0.024544  0.063595  -0.000108  4.025864  0.0
C  C154  1  0.04058601  0.22102580  0.58597249  1  -0.052988  -0.000115  -0.024534  0.063424  -0.000108  4.025737  0.0
C  C155  1  0.77897854  0.95941184  0.91403316  1  -0.053909  -0.000115  -0.024542  0.063551  -0.000108  4.025877  0.0
C  C156  1  0.99050751  0.78161341  0.48513327  1  -0.082165  -0.000178  -0.096182  -0.128492  -0.000195  4.002216  0.0
C  C157  1  0.21838925  0.00949467  0.01486596  1  -0.081295  -0.000178  -0.096261  -0.128661  -0.000195  4.002269  0.0
C  C158  1  0.00949027  0.21839015  0.51486988  1  -0.08202  -0.000178  -0.09614  -0.128438  -0.000195  4.00227  0.0
C  C159  1  0.78161223  0.99050924  0.98513470  1  -0.081394  -0.000177  -0.096293  -0.128731  -0.000195  4.002299  0.0
C  C160  1  0.00708321  0.67355036  0.51857216  1  -0.023563  -0.000116  -0.094384  -0.124348  -0.000153  3.973796  0.0
C  C161  1  0.32645431  0.99291736  0.98142746  1  -0.023619  -0.000116  -0.0943  -0.124178  -0.000153  3.973647  0.0
C  C162  1  0.99291550  0.32645420  0.48142949  1  -0.02361  -0.000116  -0.094414  -0.124397  -0.000153  3.973563  0.0
C  C163  1  0.67354534  0.00708362  0.01857412  1  -0.023379  -0.000116  -0.094289  -0.124097  -0.000153  3.973675  0.0
C  C164  1  0.99183072  0.55785396  0.48223618  1  -0.054916  -8.5e-05  -0.009411  0.061138  -0.000124  3.994045  0.0
C  C165  1  0.44214807  0.00817039  0.01776475  1  -0.017052  -8.3e-05  -0.009492  0.060977  -0.000123  3.994161  0.0
C  C166  1  0.00816799  0.44214877  0.51776594  1  -0.016995  -8.3e-05  -0.009497  0.061078  -0.000124  3.993957  0.0
C  C167  1  0.55785249  0.99183159  0.98223687  1  -0.055108  -8.5e-05  -0.009412  0.061176  -0.000124  3.994065  0.0
C  C168  1  0.95972381  0.55635167  0.41099600  1  -0.062266  -1.7e-05  -0.092417  -0.119205  -8e-05  3.964546  0.0
C  C169  1  0.44364776  0.04028045  0.08900595  1  -0.061772  -1.7e-05  -0.092415  -0.119123  -8e-05  3.964565  0.0
C  C170  1  0.04027305  0.44365088  0.58900709  1  -0.061577  -1.7e-05  -0.092423  -0.119233  -8e-05  3.964601  0.0
C  C171  1  0.55635187  0.95972236  0.91099567  1  -0.062289  -1.7e-05  -0.092466  -0.119318  -8e-05  3.964701  0.0
C  C172  1  0.94392095  0.66458244  0.37732727  1  0.009176  -0.000289  -0.089837  -0.121853  -0.000332  3.978781  0.0
C  C173  1  0.33541730  0.05608380  0.12267149  1  0.009294  -0.000289  -0.08988  -0.122018  -0.000332  3.97881  0.0
C  C174  1  0.05607406  0.33542177  0.62267427  1  0.008874  -0.000289  -0.089826  -0.121711  -0.000332  3.978722  0.0
C  C175  1  0.66458233  0.94392177  0.87732969  1  0.009596  -0.000289  -0.089804  -0.121795  -0.000332  3.978922  0.0
N  N176  1  0.61851706  0.14003588  0.40583985  1  -1.197122  0.059491  -0.318123  -0.262936  0.031862  3.539083  0.05
N  N177  1  0.85996842  0.38148256  0.09415959  1  -1.196969  0.059493  -0.318121  -0.262895  0.031863  3.539011  0.05
N  N178  1  0.38147981  0.85996391  0.59416162  1  -1.197183  0.059493  -0.318048  -0.262766  0.031864  3.539274  0.05
N  N179  1  0.14003493  0.61851602  0.90583995  1  -1.197175  0.05949  -0.318063  -0.262794  0.031862  3.539194  0.05
N  N180  1  0.63280599  0.38155388  0.42138166  1  -1.195978  0.061276  -0.316786  -0.27907  0.031604  3.553618  0.056
N  N181  1  0.61844490  0.36719542  0.07861697  1  -1.19593  0.061283  -0.316813  -0.279211  0.031608  3.55371  0.056
N  N182  1  0.36719274  0.61844333  0.57862083  1  -1.195872  0.06128  -0.31677  -0.279119  0.031605  3.553876  0.056
N  N183  1  0.38155752  0.63280491  0.92138208  1  -1.195789  0.06128  -0.316809  -0.279177  0.031605  3.553718  0.056
O  O184  1  0.79177505  0.28052798  0.32678035  1  -1.165728  0.084433  -0.316217  -0.566642  0.043784  2.452891  0.071
O  O185  1  0.71948225  0.20822659  0.17321621  1  -1.166052  0.084422  -0.316263  -0.566545  0.043779  2.452705  0.071
O  O186  1  0.20822735  0.71947786  0.67322038  1  -1.165743  0.084437  -0.316238  -0.56664  0.043786  2.452758  0.071
O  O187  1  0.28052296  0.79176941  0.82678021  1  -1.166194  0.084423  -0.316297  -0.56668  0.043781  2.452803  0.071
O  O188  1  0.59732709  0.40267145  0.24999511  1  -1.285159  0.095834  -0.559884  -0.800648  0.052161  2.360633  0.081
O  O189  1  0.40267443  0.59732327  0.75000325  1  -1.285118  0.095834  -0.559837  -0.800532  0.052161  2.360732  0.081
O  O190  1  0.87969891  0.40334927  0.24730859  1  -1.177074  0.052185  -0.312727  -0.553241  0.026723  2.287453  0.043
O  O191  1  0.59666912  0.12031509  0.25269415  1  -1.176491  0.052201  -0.312766  -0.553259  0.026733  2.287155  0.043
O  O192  1  0.12030626  0.59665500  0.75269321  1  -1.17695  0.05219  -0.312789  -0.553297  0.026726  2.287479  0.043
O  O193  1  0.40333883  0.87968945  0.74730617  1  -1.176667  0.052197  -0.312726  -0.553273  0.02673  2.28743  0.043
O  O194  1  0.36184166  0.35262117  0.23391164  1  -1.183083  0.011263  -0.324099  -0.543464  0.005177  2.13043  0.009
O  O195  1  0.64739038  0.63814957  0.26608529  1  -1.182792  0.011262  -0.324149  -0.543445  0.005176  2.130309  0.009
O  O196  1  0.63815335  0.64738672  0.76608585  1  -1.182938  0.011263  -0.324143  -0.543437  0.005176  2.130396  0.009
O  O197  1  0.35261024  0.36184048  0.73390673  1  -1.183098  0.011263  -0.324162  -0.543395  0.005176  2.130386  0.009
O  O198  1  0.42207361  0.26016488  0.33138644  1  -1.154896  0.076513  -0.327021  -0.57924  0.040037  2.361315  0.063
O  O199  1  0.73985130  0.57793035  0.16860796  1  -1.154422  0.076517  -0.326814  -0.579144  0.040041  2.361172  0.063
O  O200  1  0.57792696  0.73983803  0.66860849  1  -1.154413  0.07651  -0.326869  -0.579182  0.040036  2.361132  0.063
O  O201  1  0.26016038  0.42206719  0.83138608  1  -1.154423  0.076519  -0.326988  -0.579275  0.040039  2.361229  0.063
O  O202  1  0.06944414  0.94751431  0.36221176  1  -1.060235  0.00023  -0.186313  -0.214266  0.000107  2.507075  0.0
O  O203  1  0.05247826  0.93055379  0.13777271  1  -1.06017  0.00023  -0.186281  -0.214315  0.000107  2.507158  0.0
O  O204  1  0.93055088  0.05248714  0.63778713  1  -1.060178  0.00023  -0.1864  -0.214379  0.000107  2.50713  0.0
O  O205  1  0.94752325  0.06944461  0.86222316  1  -1.060076  0.00023  -0.186308  -0.21433  0.000107  2.507131  0.0
