# generated using pymatgen
data_CuH16C10NO5
_symmetry_space_group_name_H-M   'P 1'
_cell_length_a   7.45655086
_cell_length_b   7.86767686
_cell_length_c   10.81249900
_cell_angle_alpha   84.49278556
_cell_angle_beta   87.97619032
_cell_angle_gamma   71.38064126
_symmetry_Int_Tables_number   1
_chemical_formula_structural   CuH16C10NO5
_chemical_formula_sum   'Cu2 H32 C20 N2 O10'
_cell_volume   598.34101990
_cell_formula_units_Z   2
loop_
 _symmetry_equiv_pos_site_id
 _symmetry_equiv_pos_as_xyz
  1  'x, y, z'
loop_
 _atom_site_type_symbol
 _atom_site_label
 _atom_site_symmetry_multiplicity
 _atom_site_fract_x
 _atom_site_fract_y
 _atom_site_fract_z
 _atom_site_occupancy
 _atom_site_hle17_ddec_charge
 _atom_site_hle17_ddec_spin_density
 _atom_site_hle17_ddec_sum_bond_order
 _atom_site_hle17_magmom
 _atom_site_hse06_10hf_ddec_charge
 _atom_site_hse06_10hf_ddec_spin_density
 _atom_site_hse06_10hf_ddec_sum_bond_order
 _atom_site_hse06_10hf_magmom
 _atom_site_hse06_ddec_charge
 _atom_site_hse06_ddec_spin_density
 _atom_site_hse06_ddec_sum_bond_order
 _atom_site_hse06_magmom
 _atom_site_pbe_cm5_charge
 _atom_site_pbe_ddec_charge
 _atom_site_pbe_ddec_spin_density
 _atom_site_pbe_ddec_sum_bond_order
 _atom_site_pbe_magmom
Cu  Cu0  1  0.02757687  0.97759473  0.13831004  1  0.860164  0.650556  1.811218  0.472  0.853152  0.771111  2.192066  0.616  0.948265  0.855017  2.124593  0.709  0.702779  0.792081  0.678205  2.239827  0.531
Cu  Cu1  1  0.97242507  0.02240288  0.86169477  1  0.860135  -0.650551  1.811202  -0.472  0.853072  -0.771105  2.19201  -0.616  0.948253  -0.855009  2.124525  -0.709  0.702727  0.792052  -0.678215  2.239817  -0.531
H  H2  1  0.27005339  0.20549399  0.04580277  1  0.376326  2.7e-05  0.834127  0.0  0.369663  -1.5e-05  0.879697  0.0  0.377571  -2e-06  0.87119  0.0  0.329063  0.364035  -2.8e-05  0.886009  0.0
H  H3  1  0.72995317  0.79450224  0.95419653  1  0.376336  -2.8e-05  0.834115  0.0  0.369636  1.5e-05  0.879723  0.0  0.377539  2e-06  0.871231  0.0  0.32907  0.364009  2.8e-05  0.886032  0.0
H  H4  1  0.86032039  0.77516384  0.27281320  1  0.350817  -8.2e-05  0.96548  0.0  0.325985  -5.5e-05  1.041084  0.0  0.336871  -6.2e-05  1.027118  0.0  0.279119  0.318365  -3.8e-05  1.049363  0.0
H  H5  1  0.13967405  0.22484035  0.72718476  1  0.350682  8.2e-05  0.965683  0.0  0.325855  5.5e-05  1.041277  0.0  0.336739  6.2e-05  1.027303  0.0  0.279078  0.318232  3.8e-05  1.049559  0.0
H  H6  1  0.09572159  0.42033552  0.15950017  1  0.035494  -3e-06  0.972194  0.0  0.048254  5e-06  1.046464  0.0  0.048629  -2e-06  1.046003  0.0  0.095827  0.047933  1.7e-05  1.046902  0.0
H  H7  1  0.90428319  0.57966606  0.84049599  1  0.035481  6e-06  0.972201  0.0  0.048202  -6e-06  1.046488  0.0  0.048587  2e-06  1.046006  0.0  0.09582  0.047879  -1.7e-05  1.046924  0.0
H  H8  1  0.28557904  0.32271249  0.26416647  1  0.042512  -9.4e-05  0.939872  0.0  0.057345  -1.8e-05  1.008028  0.0  0.057087  -1.8e-05  1.008613  0.0  0.094711  0.057379  -1.1e-05  1.007789  0.0
H  H9  1  0.71442709  0.67728909  0.73582874  1  0.042524  9.8e-05  0.939896  0.0  0.05736  1.8e-05  1.008026  0.0  0.057102  1.7e-05  1.008602  0.0  0.094715  0.057392  1.1e-05  1.007787  0.0
H  H10  1  0.13658073  0.10712243  0.36030217  1  0.082925  0.00036  0.925747  0.001  0.098817  0.000269  0.985153  0.001  0.098739  0.000174  0.986196  0.0  0.108965  0.098634  0.000329  0.984662  0.001
H  H11  1  0.86342667  0.89287921  0.63969580  1  0.082942  -0.000357  0.92577  -0.001  0.098785  -0.000269  0.98521  -0.001  0.098721  -0.000173  0.986237  0.0  0.108968  0.098601  -0.000329  0.984718  -0.001
H  H12  1  0.99054106  0.33576140  0.36917354  1  0.087459  0.003222  0.942704  0.004  0.098636  0.002094  1.012615  0.003  0.098616  0.001443  1.013071  0.002  0.106187  0.098643  0.00241  1.012262  0.003
H  H13  1  0.00946456  0.66424155  0.63082343  1  0.087452  -0.003217  0.942667  -0.004  0.098657  -0.002094  1.012533  -0.003  0.098639  -0.001442  1.012991  -0.002  0.106187  0.098662  -0.00241  1.012184  -0.003
H  H14  1  0.69818765  0.21416867  0.39748698  1  0.067728  0.003066  0.965153  0.004  0.083482  0.001906  1.030743  0.002  0.082026  0.001266  1.034484  0.002  0.09809  0.084436  0.002253  1.028231  0.003
H  H15  1  0.30181925  0.78583835  0.60250968  1  0.06772  -0.003067  0.965155  -0.004  0.08351  -0.001907  1.030712  -0.002  0.082054  -0.001265  1.034451  -0.002  0.098094  0.084462  -0.002253  1.028204  -0.003
H  H16  1  0.89090838  0.00985926  0.40647415  1  0.073063  0.000167  0.93869  0.0  0.088026  0.000156  1.004778  0.0  0.087932  0.000108  1.005542  0.0  0.105575  0.087894  0.000184  1.004486  0.0
H  H17  1  0.10909408  0.99014501  0.59352369  1  0.073002  -0.000168  0.938701  0.0  0.087988  -0.000156  1.004765  0.0  0.087894  -0.000108  1.005531  0.0  0.105556  0.087855  -0.000184  1.004475  0.0
H  H18  1  0.58477725  0.96788765  0.36785803  1  0.038439  -8.2e-05  0.92154  0.0  0.058088  8e-06  0.981365  0.0  0.058424  1e-06  0.980696  0.0  0.092649  0.057807  1.3e-05  0.981961  0.0
H  H19  1  0.41522621  0.03211793  0.63213508  1  0.038451  8.1e-05  0.921506  0.0  0.058046  -8e-06  0.98137  0.0  0.058382  -1e-06  0.980697  0.0  0.092607  0.057759  -1.3e-05  0.981966  0.0
H  H20  1  0.55409179  0.10499351  0.22601791  1  0.058203  -2.7e-05  0.964596  0.0  0.074269  -3.8e-05  1.026211  0.0  0.075625  -1.9e-05  1.024557  0.0  0.099191  0.07323  -4.9e-05  1.027551  0.0
H  H21  1  0.44591505  0.89501757  0.77397845  1  0.05814  2.6e-05  0.964593  0.0  0.074219  3.8e-05  1.026175  0.0  0.075575  1.9e-05  1.024515  0.0  0.099171  0.07318  4.9e-05  1.027508  0.0
H  H22  1  0.77004202  0.46589978  0.20188727  1  0.079911  0.000467  0.923971  0.001  0.097943  0.000407  0.982531  0.001  0.097491  0.00033  0.983503  0.0  0.107132  0.097477  0.000449  0.982425  0.001
H  H23  1  0.22996935  0.53410594  0.79810942  1  0.079954  -0.000469  0.924036  -0.001  0.097963  -0.000407  0.982587  -0.001  0.09751  -0.00033  0.983559  0.0  0.107154  0.097495  -0.000449  0.982481  -0.001
H  H24  1  0.62492369  0.33103973  0.18138004  1  0.073851  0.000249  0.938243  0.0  0.091328  6.4e-05  0.998287  0.0  0.091412  4.3e-05  0.998582  0.0  0.108485  0.091019  7.8e-05  0.998309  0.0
H  H25  1  0.37508447  0.66896734  0.81861937  1  0.073921  -0.000249  0.938179  0.0  0.091326  -6.4e-05  0.998281  0.0  0.091411  -4.4e-05  0.998572  0.0  0.108491  0.091017  -7.9e-05  0.998297  0.0
H  H26  1  0.94383442  0.37524906  0.00849215  1  0.012934  -0.000204  0.967861  0.0  0.020873  -0.000127  1.050243  0.0  0.019921  -8.1e-05  1.048849  0.0  0.079325  0.020989  -0.000144  1.051864  0.0
H  H27  1  0.05617664  0.62474586  0.99150625  1  0.013055  0.000202  0.967851  0.0  0.020918  0.000126  1.050333  0.0  0.019966  8.1e-05  1.048941  0.0  0.079324  0.021034  0.000144  1.051959  0.0
H  H28  1  0.70228328  0.40986904  0.97390999  1  0.049829  0.00519  0.907149  0.006  0.067873  0.003213  0.963031  0.004  0.065401  0.002167  0.964266  0.003  0.095342  0.069481  0.003807  0.962368  0.004
H  H29  1  0.29772638  0.59012991  0.02608814  1  0.049868  -0.005191  0.907245  -0.006  0.067925  -0.003214  0.963111  -0.004  0.065447  -0.002166  0.964354  -0.003  0.095383  0.069544  -0.003806  0.962433  -0.004
H  H30  1  0.19854415  0.42751210  0.52560254  1  0.11194  9e-06  0.97503  0.0  0.118201  9e-06  1.04229  0.0  0.122627  7e-06  1.038675  0.0  0.103711  0.11492  1.1e-05  1.045112  0.0
H  H31  1  0.80143689  0.57247586  0.47440697  1  0.112046  -1e-05  0.974991  0.0  0.118259  -9e-06  1.042264  0.0  0.1227  -7e-06  1.038633  0.0  0.103746  0.114952  -1.1e-05  1.045116  0.0
H  H32  1  0.53093160  0.72407452  0.32889190  1  0.10981  9.6e-05  0.970973  0.0  0.11719  5.5e-05  1.034467  0.0  0.1215  3.8e-05  1.030657  0.0  0.10457  0.114062  6.8e-05  1.037263  0.0
H  H33  1  0.46904544  0.27591741  0.67111460  1  0.10989  -9.6e-05  0.97099  0.0  0.117245  -5.5e-05  1.034495  0.0  0.121559  -3.8e-05  1.030678  0.0  0.104537  0.11412  -6.9e-05  1.037285  0.0
C  C34  1  0.17610227  0.29360057  0.21171799  1  0.125408  0.000486  3.660399  0.001  0.060583  0.000322  3.947583  0.001  0.06807  0.000217  3.953332  0.0  -0.078329  0.055625  0.000387  3.943432  0.001
C  C35  1  0.82390600  0.70640242  0.78827986  1  0.125438  -0.000499  3.660509  -0.001  0.060699  -0.000321  3.947547  -0.001  0.068193  -0.000217  3.953271  0.0  -0.078271  0.055742  -0.000387  3.943392  -0.001
C  C36  1  0.05015475  0.22938362  0.30606090  1  -0.060643  -0.002024  3.622338  -0.004  -0.118723  -7.1e-05  3.88882  -0.002  -0.115938  -0.00058  3.903573  -0.002  -0.078844  -0.120228  0.000351  3.87878  -0.002
C  C37  1  0.94985087  0.77061933  0.69393607  1  -0.060621  0.002011  3.622192  0.004  -0.118665  7.2e-05  3.888569  0.002  -0.115896  0.000579  3.903316  0.002  -0.078849  -0.120171  -0.00035  3.878533  0.002
C  C38  1  0.78758065  0.10659705  0.34284756  1  -0.075052  -0.002424  3.656537  -0.005  -0.136206  -0.000373  3.928363  -0.002  -0.133129  -0.00086  3.943631  -0.003  -0.083429  -0.138033  0.000107  3.918141  -0.002
C  C39  1  0.21242672  0.89340862  0.65714918  1  -0.075021  0.002429  3.656674  0.005  -0.136223  0.000373  3.928473  0.002  -0.133155  0.000859  3.943752  0.003  -0.083462  -0.13805  -0.000107  3.918241  0.002
C  C40  1  0.66186551  0.01235270  0.28850357  1  0.12635  0.000878  3.66888  0.001  0.066992  0.000459  3.949864  0.001  0.073468  0.000261  3.955583  0.001  -0.08478  0.062517  0.000585  3.945836  0.001
C  C41  1  0.33813696  0.98765559  0.71149120  1  0.126479  -0.000874  3.669045  -0.001  0.06722  -0.000457  3.949907  -0.001  0.073707  -0.000261  3.955609  -0.001  -0.084605  0.062754  -0.000585  3.945866  -0.001
C  C42  1  0.76911473  0.33781906  0.16912154  1  -0.046523  -0.006126  3.587013  -0.008  -0.101685  -0.002479  3.842192  -0.005  -0.09885  -0.002053  3.85612  -0.004  -0.075539  -0.102794  -0.002639  3.832714  -0.005
C  C43  1  0.23089438  0.66218531  0.83087712  1  -0.046623  0.00613  3.587161  0.008  -0.101662  0.002481  3.842243  0.005  -0.098822  0.002053  3.85617  0.004  -0.075578  -0.102761  0.002639  3.832753  0.005
C  C44  1  0.82291867  0.32438163  0.03178501  1  0.123443  -0.001105  3.740237  -0.002  0.072299  0.00067  4.028079  0.0  0.086027  0.000423  4.040158  0.0  -0.089302  0.06239  0.000861  4.020312  0.0
C  C45  1  0.17708693  0.67561731  0.96821503  1  0.123277  0.001112  3.740501  0.002  0.072091  -0.000667  4.02841  0.0  0.085817  -0.000424  4.04049  0.0  -0.089352  0.062169  -0.000862  4.020654  0.0
C  C46  1  0.18190531  0.68590958  0.33750488  1  0.624886  -0.001765  3.918786  -0.004  0.580104  0.000595  4.215327  -0.001  0.617202  0.000365  4.20663  -0.001  0.206838  0.554866  0.000688  4.220414  -0.001
C  C47  1  0.81808506  0.31408654  0.66250020  1  0.624901  0.001766  3.918785  0.004  0.580164  -0.000592  4.215392  0.001  0.617263  -0.000362  4.206691  0.001  0.206835  0.554924  -0.000688  4.220483  0.001
C  C48  1  0.34870004  0.58568971  0.41890762  1  -0.068044  0.006549  3.770032  0.007  -0.046182  0.003831  4.00233  0.004  -0.052316  0.003101  4.022313  0.004  -0.022362  -0.042251  0.004193  3.988969  0.005
C  C49  1  0.65128484  0.41429143  0.58109493  1  -0.06794  -0.006552  3.770079  -0.007  -0.046358  -0.00383  4.002707  -0.004  -0.05249  -0.0031  4.022688  -0.004  -0.022404  -0.042442  -0.004194  3.989373  -0.005
C  C50  1  0.33154315  0.45746177  0.51427827  1  -0.090018  -0.001333  3.731262  -0.001  -0.113174  -0.000113  3.984245  0.0  -0.113642  -0.000242  4.002021  0.0  -0.090155  -0.112749  -5.4e-05  3.972379  0.0
C  C51  1  0.66843939  0.54252208  0.48572689  1  -0.090155  0.001341  3.731335  0.001  -0.113163  0.000112  3.984361  0.0  -0.113645  0.00024  4.002134  0.0  -0.090154  -0.112713  5.5e-05  3.972518  0.0
C  C52  1  0.51846119  0.62672040  0.40478229  1  -0.086075  -0.002288  3.738305  -0.002  -0.108491  -0.000814  3.988625  -0.001  -0.10844  -0.000785  4.006013  -0.001  -0.089352  -0.10845  -0.000825  3.976953  -0.001
C  C53  1  0.48152318  0.37326211  0.59522202  1  -0.086248  0.002282  3.738363  0.002  -0.10853  0.000814  3.988731  0.001  -0.108468  0.000785  4.006097  0.001  -0.089248  -0.108471  0.000825  3.977047  0.001
N  N54  1  0.89705496  0.18191695  0.24786993  1  -0.183749  0.082669  3.247097  0.105  -0.109118  0.056683  3.50881  0.077  -0.139902  0.046003  3.537521  0.066  -0.353566  -0.089989  0.058973  3.490314  0.078
N  N55  1  0.10295282  0.81808740  0.75212875  1  -0.183817  -0.082663  3.246957  -0.105  -0.109206  -0.056685  3.508644  -0.077  -0.140009  -0.046003  3.537375  -0.066  -0.353563  -0.090086  -0.058967  3.490163  -0.078
O  O56  1  0.86598509  0.14298391  0.00896480  1  -0.581993  0.038889  2.162757  0.051  -0.573875  0.020379  2.509249  0.029  -0.633636  0.014884  2.509826  0.022  -0.409529  -0.534106  0.021804  2.509909  0.03
O  O57  1  0.13401641  0.85701503  0.99103899  1  -0.581877  -0.038888  2.162732  -0.051  -0.573781  -0.02038  2.509206  -0.029  -0.633534  -0.014885  2.509779  -0.022  -0.40951  -0.534014  -0.021793  2.509871  -0.03
O  O58  1  0.26195152  0.15511675  0.13083025  1  -0.52677  -0.001092  2.070135  0.0  -0.484067  -0.001058  2.294696  -0.001  -0.500202  -0.001082  2.280682  -0.001  -0.392522  -0.472983  -0.000949  2.30466  -0.001
O  O59  1  0.73805455  0.84488084  0.86916988  1  -0.526802  0.001095  2.070188  0.001  -0.484106  0.001058  2.294793  0.001  -0.500256  0.001081  2.28078  0.001  -0.392582  -0.473033  0.00095  2.304764  0.001
O  O60  1  0.20496202  0.81171959  0.26019894  1  -0.602707  0.047536  2.099767  0.064  -0.56617  0.035044  2.374995  0.051  -0.603427  0.028545  2.362176  0.044  -0.330462  -0.540379  0.037446  2.383331  0.053
O  O61  1  0.79502335  0.18827518  0.73981094  1  -0.602846  -0.047549  2.099607  -0.064  -0.566286  -0.035053  2.374813  -0.051  -0.603573  -0.028552  2.362023  -0.044  -0.330552  -0.540511  -0.037453  2.383176  -0.053
O  O62  1  0.76070579  0.86646685  0.21817332  1  -0.577095  -0.000991  2.065494  0.0  -0.534934  -0.001004  2.302693  0.0  -0.551867  -0.001142  2.284726  -0.001  -0.428167  -0.522696  -0.000896  2.313996  0.0
O  O63  1  0.23929889  0.13354282  0.78182132  1  -0.577046  0.00099  2.065768  0.0  -0.534895  0.001003  2.302906  0.0  -0.551853  0.001142  2.284958  0.001  -0.428194  -0.522672  0.000896  2.314216  0.0
O  O64  1  0.03216140  0.64290757  0.35252100  1  -0.612854  -0.000552  2.01161  0.0  -0.556474  -0.000378  2.237216  0.0  -0.58156  -0.000654  2.22824  -0.001  -0.311243  -0.539123  -7.3e-05  2.242814  0.0
O  O65  1  0.96781095  0.35709785  0.64748643  1  -0.61267  0.000553  2.011868  0.0  -0.556267  0.000375  2.237431  0.0  -0.581355  0.000654  2.228473  0.001  -0.311119  -0.538915  7.4e-05  2.243029  0.0
