# generated using pymatgen
data_ZnH9C11N5O6
_symmetry_space_group_name_H-M   'P 1'
_cell_length_a   10.26963572
_cell_length_b   11.24357540
_cell_length_c   13.88706363
_cell_angle_alpha   90.00006064
_cell_angle_beta   99.29604551
_cell_angle_gamma   89.99998412
_symmetry_Int_Tables_number   1
_chemical_formula_structural   ZnH9C11N5O6
_chemical_formula_sum   'Zn4 H36 C44 N20 O24'
_cell_volume   1582.44443445
_cell_formula_units_Z   4
loop_
 _symmetry_equiv_pos_site_id
 _symmetry_equiv_pos_as_xyz
  1  'x, y, z'
loop_
 _atom_site_type_symbol
 _atom_site_label
 _atom_site_symmetry_multiplicity
 _atom_site_fract_x
 _atom_site_fract_y
 _atom_site_fract_z
 _atom_site_occupancy
 _atom_site_hle17_bader_spin_density
 _atom_site_hle17_ddec_charge
 _atom_site_hle17_ddec_spin_density
 _atom_site_hle17_ddec_sum_bond_order
 _atom_site_hle17_magmom
 _atom_site_hse06_10hf_bader_charge
 _atom_site_hse06_10hf_bader_spin_density
 _atom_site_hse06_10hf_ddec_charge
 _atom_site_hse06_10hf_ddec_spin_density
 _atom_site_hse06_10hf_ddec_sum_bond_order
 _atom_site_hse06_10hf_magmom
 _atom_site_hse06_bader_spin_density
 _atom_site_hse06_ddec_charge
 _atom_site_hse06_ddec_spin_density
 _atom_site_hse06_ddec_sum_bond_order
 _atom_site_hse06_magmom
 _atom_site_pbe_bader_spin_density
 _atom_site_pbe_cm5_charge
 _atom_site_pbe_ddec_charge
 _atom_site_pbe_ddec_spin_density
 _atom_site_pbe_ddec_sum_bond_order
 _atom_site_pbe_magmom
Zn  Zn0  1  0.60361004  0.57492042  0.27182571  1  0  0.920638  0  1.901103  0  1.308402  0  0.71906  0  2.356938  0  0  0.767706  0  2.307322  0  0  0.685036  0.685153  0  2.390787  0
Zn  Zn1  1  0.39639167  0.07492022  0.22817394  1  0  0.920513  0  1.90114  0  1.308383  0  0.718969  0  2.356928  0  0  0.767617  0  2.307312  0  0  0.68502  0.685061  0  2.390773  0
Zn  Zn2  1  0.39639072  0.42508051  0.72817399  1  0  0.920558  0  1.901146  0  1.308364  0  0.71898  0  2.356978  0  0  0.76763  0  2.30736  0  0  0.685018  0.68508  0  2.390867  0
Zn  Zn3  1  0.60360910  0.92508072  0.77182649  1  0  0.920626  0  1.901088  0  1.308395  0  0.719052  0  2.356902  0  0  0.767712  0  2.307275  0  0  0.685043  0.685146  0  2.390749  0
H  H4  1  0.77001134  0.33570646  0.28119800  1  0  0.08389  0  0.939493  0  0.108952  0  0.088343  0  1.007082  0  0  0.090977  0  1.004978  0  0  0.118615  0.086443  0  1.00857  0
H  H5  1  0.22999133  0.83570759  0.21880199  1  0  0.083889  0  0.939515  0  0.108934  0  0.088351  0  1.007097  0  0  0.090984  0  1.004994  0  0  0.118627  0.086452  0  1.008582  0
H  H6  1  0.22998647  0.66429269  0.71880134  1  0  0.083838  0  0.939472  0  0.108992  0  0.088299  0  1.007061  0  0  0.090932  0  1.004957  0  0  0.118613  0.086402  0  1.008544  0
H  H7  1  0.77001339  0.16429246  0.78119820  1  0  0.083855  0  0.939487  0  0.108986  0  0.088319  0  1.007071  0  0  0.090952  0  1.004969  0  0  0.118636  0.086421  0  1.008556  0
H  H8  1  0.92723885  0.23279798  0.40779987  1  0  0.118213  0  0.935188  0  0.141867  0  0.127212  0  0.991095  0  0  0.13071  0  0.989252  0  0  0.115051  0.124694  0  0.992569  0
H  H9  1  0.07276185  0.73279987  0.09220051  1  0  0.118241  0  0.935229  0  0.141887  0  0.127209  0  0.991152  0  0  0.130706  0  0.98931  0  0  0.115048  0.124687  0  0.992625  0
H  H10  1  0.07275896  0.76720028  0.59219875  1  0  0.118239  0  0.93524  0  0.141949  0  0.12717  0  0.991194  0  0  0.130667  0  0.989354  0  0  0.115061  0.124651  0  0.992667  0
H  H11  1  0.92724088  0.26720106  0.90780087  1  0  0.118276  0  0.935174  0  0.14188  0  0.127209  0  0.991129  0  0  0.130707  0  0.989287  0  0  0.115061  0.124687  0  0.992625  0
H  H12  1  0.96634020  0.31577525  0.58038051  1  0  0.118074  0  0.956948  0  0.158096  0  0.129052  0  1.013403  0  0  0.132593  0  1.010069  0  0  0.112196  0.126368  0  1.015908  0
H  H13  1  0.03366061  0.81577669  0.91962071  1  0  0.118073  0  0.956956  0  0.158089  0  0.129056  0  1.013411  0  0  0.132597  0  1.010077  0  0  0.11221  0.126374  0  1.015876  0
H  H14  1  0.03366057  0.68422301  0.41961775  1  0  0.11807  0  0.956968  0  0.158131  0  0.129052  0  1.013426  0  0  0.132591  0  1.010093  0  0  0.112193  0.126367  0  1.015891  0
H  H15  1  0.96633916  0.18422424  0.08038031  1  0  0.118062  0  0.956966  0  0.158156  0  0.129046  0  1.013419  0  0  0.132586  0  1.010087  0  0  0.112193  0.126377  0  1.015862  0
H  H16  1  0.84480718  0.50052168  0.61400559  1  0  0.129237  0  0.958698  0  0.175627  0  0.132708  0  1.026416  0  0  0.136683  0  1.023904  0  0  0.113733  0.129781  0  1.028413  0
H  H17  1  0.15519071  0.00052441  0.88599429  1  0  0.129231  0  0.958723  0  0.175611  0  0.132691  0  1.026451  0  0  0.136664  0  1.023937  0  0  0.113729  0.129762  0  1.028469  0
H  H18  1  0.15519359  0.49947658  0.38599340  1  0  0.129254  0  0.958704  0  0.175541  0  0.132728  0  1.026417  0  0  0.136703  0  1.023904  0  0  0.113709  0.129801  0  1.028412  0
H  H19  1  0.84480906  0.99947741  0.11400673  1  0  0.129253  0  0.958691  0  0.175607  0  0.132719  0  1.026409  0  0  0.136694  0  1.023895  0  0  0.113726  0.129791  0  1.028405  0
H  H20  1  0.68247590  0.65823929  0.55513153  1  0  0.103468  0  0.952561  0  0.17952  0  0.103871  0  1.029979  0  0  0.10794  0  1.023789  0  0  0.123458  0.100762  0  1.034579  0
H  H21  1  0.31751901  0.15824205  0.94486884  1  0  0.103378  0  0.952594  0  0.179528  0  0.103899  0  1.029932  0  0  0.107969  0  1.023745  0  0  0.123477  0.100794  0  1.034576  0
H  H22  1  0.31752585  0.34175986  0.44486901  1  0  0.103476  0  0.952575  0  0.179512  0  0.103886  0  1.029979  0  0  0.107948  0  1.02379  0  0  0.123461  0.100784  0  1.034571  0
H  H23  1  0.68247583  0.84175888  0.05513086  1  0  0.103388  0  0.952574  0  0.179525  0  0.103833  0  1.029973  0  0  0.1079  0  1.023783  0  0  0.123439  0.100733  0  1.034563  0
H  H24  1  0.45874706  0.71613104  0.55391353  1  0  0.123355  0  0.917926  0  0.127927  0  0.13665  0  0.97251  0  0  0.139178  0  0.971149  0  0  0.11886  0.134733  0  0.973609  0
H  H25  1  0.54125180  0.21613109  0.94608665  1  0  0.123364  0  0.917944  0  0.127914  0  0.136669  0  0.972521  0  0  0.139185  0  0.971175  0  0  0.11886  0.134752  0  0.973627  0
H  H26  1  0.54125372  0.28386900  0.44608474  1  0  0.123356  0  0.91794  0  0.127921  0  0.136654  0  0.972521  0  0  0.139183  0  0.971163  0  0  0.118859  0.134738  0  0.97362  0
H  H27  1  0.45874699  0.78386807  0.05391353  1  0  0.12333  0  0.917953  0  0.127932  0  0.136646  0  0.972522  0  0  0.139157  0  0.971178  0  0  0.118847  0.134729  0  0.973621  0
H  H28  1  0.30533794  0.88814218  0.55312931  1  0  0.113546  0  0.960284  0  0.144411  0  0.120228  0  1.022393  0  0  0.123297  0  1.021702  0  0  0.110098  0.117962  0  1.02318  0
H  H29  1  0.69465992  0.38814130  0.94687017  1  0  0.113495  0  0.960295  0  0.144403  0  0.120178  0  1.022411  0  0  0.123246  0  1.02172  0  0  0.110079  0.117911  0  1.023196  0
H  H30  1  0.69465986  0.11185697  0.44687147  1  0  0.113523  0  0.960259  0  0.144414  0  0.120206  0  1.022366  0  0  0.123275  0  1.021674  0  0  0.11009  0.117941  0  1.023153  0
H  H31  1  0.30533987  0.61185875  0.05312797  1  0  0.113529  0  0.960279  0  0.144422  0  0.12021  0  1.022393  0  0  0.123279  0  1.021702  0  0  0.110087  0.117943  0  1.023182  0
H  H32  1  0.28404569  0.03403834  0.41374153  1  0  0.088584  0  0.939594  0  0.132875  0  0.097018  0  0.998342  0  0  0.099495  0  0.996729  0  0  0.118705  0.095109  0  0.999602  0
H  H33  1  0.71595603  0.53403916  0.08625665  1  0  0.088482  0  0.939613  0  0.132871  0  0.096935  0  0.998354  0  0  0.099409  0  0.996741  0  0  0.118682  0.095025  0  0.999614  0
H  H34  1  0.71595409  0.96596082  0.58625805  1  0  0.088505  0  0.939634  0  0.13287  0  0.096954  0  0.998376  0  0  0.099428  0  0.996763  0  0  0.118692  0.095045  0  0.999636  0
H  H35  1  0.28404474  0.46596266  0.91374234  1  0  0.088528  0  0.939632  0  0.132883  0  0.096978  0  0.998369  0  0  0.09945  0  0.996757  0  0  0.118689  0.095063  0  0.999664  0
H  H36  1  0.55087962  0.84448237  0.27921664  1  0  0.103723  0  0.953913  0  0.156875  0  0.107647  0  1.025294  0  0  0.110468  0  1.022662  0  0  0.120396  0.105486  0  1.027366  0
H  H37  1  0.44912305  0.34448392  0.22078407  1  0  0.103715  0  0.953939  0  0.156685  0  0.107646  0  1.025321  0  0  0.110467  0  1.022688  0  0  0.120392  0.105485  0  1.027394  0
H  H38  1  0.44912312  0.15551856  0.72078474  1  0  0.10371  0  0.953943  0  0.156805  0  0.107622  0  1.025334  0  0  0.110442  0  1.022702  0  0  0.120387  0.105457  0  1.027432  0
H  H39  1  0.55087673  0.65551790  0.77921551  1  0  0.103704  0  0.953969  0  0.156808  0  0.107612  0  1.025353  0  0  0.110433  0  1.02272  0  0  0.120372  0.10545  0  1.027429  0
C  C40  1  0.78919928  0.37030138  0.35538085  1  0  0.15894  0  3.667428  0  0.53493  0  0.122377  0  3.928001  0  0  0.129899  0  3.944391  0  0  0.063815  0.117441  0  3.916995  0
C  C41  1  0.21080140  0.87030241  0.14461965  1  0  0.158849  0  3.667275  0  0.534925  0  0.122267  0  3.927883  0  0  0.12979  0  3.944271  0  0  0.063781  0.117333  0  3.916876  0
C  C42  1  0.21079951  0.62969689  0.64461861  1  0  0.159067  0  3.66724  0  0.534935  0  0.12249  0  3.927813  0  0  0.130014  0  3.944201  0  0  0.06386  0.117554  0  3.916817  0
C  C43  1  0.78920132  0.12969763  0.85538245  1  0  0.159041  0  3.667424  0  0.534936  0  0.122455  0  3.927997  0  0  0.129977  0  3.944388  0  0  0.063833  0.117519  0  3.916996  0
C  C44  1  0.87706444  0.31210818  0.42768809  1  0  -0.082496  0  3.674016  0  -0.082186  0  -0.096471  0  3.927574  0  0  -0.10224  0  3.94782  0  0  -0.064694  -0.093015  0  3.914424  0
C  C45  1  0.12293625  0.81211092  0.07231236  1  0  -0.082487  0  3.674021  0  -0.082331  0  -0.096394  0  3.927549  0  0  -0.10216  0  3.947789  0  0  -0.064666  -0.092936  0  3.914396  0
C  C46  1  0.12293239  0.68788830  0.57230969  1  0  -0.082525  0  3.674048  0  -0.082362  0  -0.096381  0  3.927543  0  0  -0.102147  0  3.947778  0  0  -0.064674  -0.092929  0  3.914398  0
C  C47  1  0.87706549  0.18789001  0.92768890  1  0  -0.082593  0  3.674098  0  -0.082171  0  -0.096463  0  3.92761  0  0  -0.102231  0  3.947852  0  0  -0.064695  -0.093008  0  3.914483  0
C  C48  1  0.89847982  0.35813452  0.52195255  1  0  -0.002145  0  3.672478  0  0.025347  0  -0.020507  0  3.918369  0  0  -0.018777  0  3.938207  0  0  -0.058963  -0.021399  0  3.90516  0
C  C49  1  0.10151902  0.85813602  0.97804775  1  0  -0.002132  0  3.672497  0  0.025566  0  -0.020545  0  3.918412  0  0  -0.018816  0  3.938249  0  0  -0.058982  -0.021437  0  3.905187  0
C  C50  1  0.10151997  0.64186374  0.47804559  1  0  -0.002179  0  3.672582  0  0.025557  0  -0.020576  0  3.918464  0  0  -0.018845  0  3.938302  0  0  -0.059002  -0.021466  0  3.90524  0
C  C51  1  0.89848075  0.14186580  0.02195399  1  0  -0.002131  0  3.672506  0  0.025261  0  -0.020529  0  3.91838  0  0  -0.018799  0  3.938219  0  0  -0.058986  -0.021431  0  3.905146  0
C  C52  1  0.83170514  0.46150024  0.54131801  1  0  -0.1079  0  3.647263  0  -0.018489  0  -0.130175  0  3.896301  0  0  -0.136159  0  3.919048  0  0  -0.063482  -0.12633  0  3.881225  0
C  C53  1  0.16829073  0.96150169  0.95868202  1  0  -0.107883  0  3.647334  0  -0.018468  0  -0.130159  0  3.896289  0  0  -0.136138  0  3.91904  0  0  -0.063523  -0.126315  0  3.881223  0
C  C54  1  0.16829366  0.53849802  0.45868145  1  0  -0.107913  0  3.647329  0  -0.018575  0  -0.1302  0  3.896365  0  0  -0.136185  0  3.919112  0  0  -0.063462  -0.126356  0  3.881287  0
C  C55  1  0.83170707  0.03850013  0.04131876  1  0  -0.107931  0  3.647228  0  -0.018518  0  -0.130187  0  3.896234  0  0  -0.136173  0  3.918983  0  0  -0.063477  -0.126342  0  3.88116  0
C  C56  1  0.74555201  0.51446556  0.46547992  1  0  0.186  0  3.778822  0  0.458517  0  0.186082  0  4.018474  0  0  0.188326  0  4.041614  0  0  0.113653  0.184631  0  4.002748  0
C  C57  1  0.25444773  0.01446959  0.03452016  1  0  0.185788  0  3.779047  0  0.458497  0  0.186052  0  4.018522  0  0  0.188287  0  4.041699  0  0  0.113633  0.184601  0  4.002797  0
C  C58  1  0.25444778  0.48553270  0.53451894  1  0  0.185945  0  3.778874  0  0.458519  0  0.186095  0  4.01846  0  0  0.188338  0  4.041603  0  0  0.113641  0.184641  0  4.002747  0
C  C59  1  0.74555205  0.98553401  0.96548014  1  0  0.18598  0  3.778807  0  0.45855  0  0.18612  0  4.018426  0  0  0.188366  0  4.041571  0  0  0.11366  0.184666  0  4.002701  0
C  C60  1  0.67221116  0.62202123  0.48101298  1  0  0.148075  0  3.579124  0  0.66183  0  0.110374  0  3.824611  0  0  0.123979  0  3.831968  0  0  0.103832  0.101123  0  3.819719  0
C  C61  1  0.32778757  0.12202432  0.01898850  1  0  0.14817  0  3.579228  0  0.661831  0  0.110215  0  3.824808  0  0  0.123802  0  3.832182  0  0  0.103794  0.100956  0  3.819935  0
C  C62  1  0.32779059  0.37797704  0.51898684  1  0  0.14799  0  3.579221  0  0.661825  0  0.110253  0  3.824715  0  0  0.123869  0  3.832066  0  0  0.103782  0.100997  0  3.819827  0
C  C63  1  0.67220924  0.87797750  0.98101216  1  0  0.148155  0  3.579073  0  0.661867  0  0.110328  0  3.824667  0  0  0.123932  0  3.832029  0  0  0.103841  0.10107  0  3.819766  0
C  C64  1  0.51803432  0.76806461  0.41692594  1  0  0.167029  0  3.810398  0  0.406649  0  0.171306  0  4.055076  0  0  0.17113  0  4.081131  0  0  0.096785  0.171064  0  4.037619  0
C  C65  1  0.48196736  0.26806508  0.08307460  1  0  0.167045  0  3.810344  0  0.406687  0  0.171328  0  4.055014  0  0  0.171147  0  4.081063  0  0  0.096772  0.171087  0  4.037558  0
C  C66  1  0.48196742  0.23193544  0.58307605  1  0  0.167022  0  3.8104  0  0.406821  0  0.171266  0  4.055105  0  0  0.171091  0  4.08116  0  0  0.096745  0.171022  0  4.037653  0
C  C67  1  0.51803143  0.73193586  0.91692414  1  0  0.166947  0  3.810497  0  0.406819  0  0.171193  0  4.055183  0  0  0.171017  0  4.081233  0  0  0.09674  0.17095  0  4.037727  0
C  C68  1  0.44772158  0.78087909  0.49476289  1  0  -0.063817  0  3.639588  0  -0.06712  0  -0.092725  0  3.891522  0  0  -0.091165  0  3.910618  0  0  -0.057738  -0.09333  0  3.878528  0
C  C69  1  0.55228012  0.28087945  0.00523550  1  0  -0.063852  0  3.639658  0  -0.067673  0  -0.092779  0  3.891597  0  0  -0.09121  0  3.910698  0  0  -0.057728  -0.093384  0  3.878615  0
C  C70  1  0.55228018  0.21912006  0.50523693  1  0  -0.063878  0  3.639595  0  -0.067898  0  -0.092784  0  3.891525  0  0  -0.091229  0  3.910617  0  0  -0.057748  -0.093389  0  3.878531  0
C  C71  1  0.44771967  0.71912149  0.99476265  1  0  -0.063741  0  3.639692  0  -0.067809  0  -0.092663  0  3.89162  0  0  -0.091085  0  3.910723  0  0  -0.05771  -0.093269  0  3.878626  0
C  C72  1  0.36163750  0.87660310  0.49387263  1  0  -0.098111  0  3.747728  0  0.037509  0  -0.111144  0  4.004303  0  0  -0.117796  0  4.027345  0  0  -0.080263  -0.106967  0  3.989078  0
C  C73  1  0.63836221  0.37660166  0.00612559  1  0  -0.098077  0  3.747829  0  0.038387  0  -0.111112  0  4.004423  0  0  -0.117762  0  4.027461  0  0  -0.08029  -0.106934  0  3.989198  0
C  C74  1  0.63836426  0.12339427  0.50612719  1  0  -0.09804  0  3.747744  0  0.038103  0  -0.11106  0  4.004308  0  0  -0.117712  0  4.027351  0  0  -0.080247  -0.106885  0  3.989083  0
C  C75  1  0.36163659  0.62339839  0.99387315  1  0  -0.09812  0  3.747783  0  0.037982  0  -0.111155  0  4.004379  0  0  -0.117806  0  4.027413  0  0  -0.080262  -0.106975  0  3.989152  0
C  C76  1  0.34904542  0.95711303  0.41699888  1  0  0.114797  0  3.694533  0  0.409561  0  0.082903  0  3.944535  0  0  0.088191  0  3.96487  0  0  0.043783  0.079447  0  3.930763  0
C  C77  1  0.65095527  0.45711168  0.08299881  1  0  0.114943  0  3.694585  0  0.409412  0  0.083024  0  3.944597  0  0  0.088315  0  3.96493  0  0  0.043825  0.079567  0  3.930826  0
C  C78  1  0.65095535  0.04288790  0.58300011  1  0  0.114809  0  3.694656  0  0.409577  0  0.082884  0  3.944674  0  0  0.088178  0  3.965004  0  0  0.043751  0.079428  0  3.930902  0
C  C79  1  0.34904353  0.54288836  0.91699921  1  0  0.114853  0  3.694529  0  0.409587  0  0.082931  0  3.944565  0  0  0.088225  0  3.964893  0  0  0.043779  0.079473  0  3.930822  0
C  C80  1  0.49873207  0.85229577  0.34139914  1  0  0.062986  0  3.634714  0  0.535036  0  0.022584  0  3.887296  0  0  0.028534  0  3.903747  0  0  0.05051  0.018462  0  3.876556  0
C  C81  1  0.50126961  0.35229545  0.15860147  1  0  0.063019  0  3.634753  0  0.535235  0  0.022572  0  3.887365  0  0  0.02852  0  3.90382  0  0  0.050528  0.01845  0  3.876622  0
C  C82  1  0.50126869  0.14770605  0.65860200  1  0  0.063049  0  3.634769  0  0.535065  0  0.02267  0  3.887313  0  0  0.028619  0  3.903765  0  0  0.050552  0.018546  0  3.876583  0
C  C83  1  0.49873215  0.64770637  0.84139764  1  0  0.063022  0  3.634814  0  0.535055  0  0.02267  0  3.887327  0  0  0.02862  0  3.90378  0  0  0.05055  0.018548  0  3.876589  0
N  N84  1  0.72479450  0.46876919  0.37376225  1  0  -0.355934  0  3.300048  0  -1.286064  0  -0.278023  0  3.564645  0  0  -0.297072  0  3.582152  0  0  -0.320265  -0.26511  0  3.552636  0
N  N85  1  0.27520519  0.96877196  0.12623821  1  0  -0.355716  0  3.299844  0  -1.286078  0  -0.27788  0  3.564426  0  0  -0.296926  0  3.58194  0  0  -0.320196  -0.264966  0  3.552414  0
N  N86  1  0.27520430  0.53122908  0.62623649  1  0  -0.355907  0  3.300024  0  -1.286044  0  -0.278061  0  3.564677  0  0  -0.297112  0  3.582187  0  0  -0.320275  -0.265148  0  3.552699  0
N  N87  1  0.72479557  0.03122987  0.87376293  1  0  -0.355957  0  3.300122  0  -1.286062  0  -0.278076  0  3.564747  0  0  -0.297126  0  3.582255  0  0  -0.320293  -0.265162  0  3.552739  0
N  N88  1  0.60015755  0.67094335  0.40678094  1  0  -0.340593  0  3.300798  0  -1.294601  0  -0.267976  0  3.563628  0  0  -0.288163  0  3.580722  0  0  -0.313159  -0.254355  0  3.552001  0
N  N89  1  0.39984218  0.17094385  0.09321855  1  0  -0.340519  0  3.300852  0  -1.294642  0  -0.267825  0  3.563689  0  0  -0.287988  0  3.580778  0  0  -0.313127  -0.254206  0  3.552063  0
N  N90  1  0.39984322  0.32905759  0.59321877  1  0  -0.340492  0  3.300771  0  -1.294629  0  -0.267848  0  3.563604  0  0  -0.288039  0  3.580698  0  0  -0.313108  -0.25423  0  3.552007  0
N  N91  1  0.60015662  0.82905797  0.90678019  1  0  -0.340556  0  3.300767  0  -1.29466  0  -0.26788  0  3.563611  0  0  -0.288069  0  3.58071  0  0  -0.313148  -0.254259  0  3.551985  0
N  N92  1  0.41726368  0.94531157  0.34220314  1  0  -0.313495  0  3.320953  0  -1.298603  0  -0.230856  0  3.589825  0  0  -0.249942  0  3.609017  0  0  -0.324963  -0.21804  0  3.576887  0
N  N93  1  0.58273997  0.44531211  0.15779562  1  0  -0.313562  0  3.321083  0  -1.298825  0  -0.230884  0  3.589945  0  0  -0.249967  0  3.609131  0  0  -0.324949  -0.218069  0  3.577008  0
N  N94  1  0.58273808  0.05468847  0.65779668  1  0  -0.31348  0  3.320937  0  -1.298522  0  -0.230826  0  3.589799  0  0  -0.249913  0  3.608989  0  0  -0.324922  -0.21801  0  3.57686  0
N  N95  1  0.41726080  0.55468793  0.84220192  1  0  -0.313481  0  3.32091  0  -1.298549  0  -0.230841  0  3.589786  0  0  -0.249928  0  3.608975  0  0  -0.324924  -0.218027  0  3.576868  0
N  N96  1  0.33305496  0.57385584  0.25905095  1  0  0.710103  0  4.085349  0  0.847011  0  0.725157  0  4.39899  0  0  0.753937  0  4.404453  0  0  0.096247  0.705868  0  4.394513  0
N  N97  1  0.66694477  0.07385647  0.24094989  1  0  0.71014  0  4.085364  0  0.846979  0  0.725217  0  4.398981  0  0  0.753998  0  4.404442  0  0  0.096236  0.705927  0  4.394503  0
N  N98  1  0.66694580  0.42614242  0.74094947  1  0  0.710128  0  4.085414  0  0.846981  0  0.72519  0  4.399046  0  0  0.753972  0  4.40451  0  0  0.096243  0.7059  0  4.39457  0
N  N99  1  0.33305303  0.92614357  0.75905160  1  0  0.710083  0  4.085374  0  0.846995  0  0.725142  0  4.399013  0  0  0.753926  0  4.404475  0  0  0.096259  0.705852  0  4.394538  0
N  N100  1  0.81188415  0.72417716  0.22431576  1  0  0.690585  0  4.136116  0  0.832679  0  0.724855  0  4.428386  0  0  0.751429  0  4.434007  0  0  0.103643  0.717897  0  4.406892  0
N  N101  1  0.18811655  0.22417707  0.27568534  1  0  0.690565  0  4.136209  0  0.832639  0  0.724963  0  4.428336  0  0  0.751559  0  4.433949  0  0  0.103585  0.717891  0  4.407005  0
N  N102  1  0.18811760  0.27582289  0.77568407  1  0  0.690473  0  4.13627  0  0.832628  0  0.724884  0  4.428371  0  0  0.751486  0  4.433976  0  0  0.103534  0.705476  0  4.424644  0
N  N103  1  0.81188323  0.77582298  0.72431497  1  0  0.690598  0  4.136101  0  0.832641  0  0.725012  0  4.428208  0  0  0.751609  0  4.433819  0  0  0.103586  0.717927  0  4.406895  0
O  O104  1  0.41100586  0.64174524  0.21782253  1  0  -0.514463  0  1.842298  0  -0.613985  0  -0.476499  0  2.094342  0  0  -0.497662  0  2.087108  0  0  -0.203942  -0.461516  0  2.098653  0
O  O105  1  0.58899683  0.14174594  0.28217802  1  0  -0.514415  0  1.842287  0  -0.613967  0  -0.4765  0  2.094359  0  0  -0.497658  0  2.087113  0  0  -0.203929  -0.461518  0  2.098665  0
O  O106  1  0.58899688  0.35825302  0.78217741  1  0  -0.514438  0  1.842321  0  -0.613978  0  -0.476485  0  2.094368  0  0  -0.497646  0  2.087119  0  0  -0.203928  -0.461502  0  2.098687  0
O  O107  1  0.41100394  0.85825410  0.71782241  1  0  -0.514437  0  1.842192  0  -0.613989  0  -0.476494  0  2.094265  0  0  -0.497664  0  2.087027  0  0  -0.203935  -0.461512  0  2.098572  0
O  O108  1  0.38688164  0.49471468  0.31761130  1  0  -0.478397  0  1.743524  0  -0.553855  0  -0.461678  0  1.970259  0  0  -0.478355  0  1.964601  0  0  -0.188388  -0.449884  0  1.973686  0
O  O109  1  0.61311904  0.99471565  0.18238858  1  0  -0.478403  0  1.743459  0  -0.553833  0  -0.461707  0  1.970208  0  0  -0.478385  0  1.96455  0  0  -0.188394  -0.449913  0  1.973635  0
O  O110  1  0.61312011  0.50528448  0.68238996  1  0  -0.478388  0  1.743491  0  -0.553804  0  -0.461673  0  1.970225  0  0  -0.478348  0  1.964562  0  0  -0.188394  -0.449879  0  1.973648  0
O  O111  1  0.38688173  0.00528528  0.81761112  1  0  -0.478364  0  1.743486  0  -0.553859  0  -0.46166  0  1.970249  0  0  -0.478335  0  1.964584  0  0  -0.188383  -0.449872  0  1.973692  0
O  O112  1  0.21174620  0.58841349  0.23984299  1  0  -0.408529  0  1.698699  0  -0.509177  0  -0.401994  0  1.895206  0  0  -0.413371  0  1.88931  0  0  -0.163531  -0.393974  0  1.899046  0
O  O113  1  0.78825353  0.08841323  0.26015715  1  0  -0.408561  0  1.698721  0  -0.509175  0  -0.402011  0  1.895208  0  0  -0.41339  0  1.889311  0  0  -0.163523  -0.393992  0  1.899049  0
O  O114  1  0.78825357  0.41158566  0.76015803  1  0  -0.408563  0  1.698732  0  -0.509203  0  -0.402028  0  1.895238  0  0  -0.413407  0  1.889343  0  0  -0.163527  -0.394011  0  1.899084  0
O  O115  1  0.21174624  0.91158415  0.73984531  1  0  -0.40855  0  1.698802  0  -0.509191  0  -0.402003  0  1.895298  0  0  -0.413381  0  1.889406  0  0  -0.163545  -0.393985  0  1.899144  0
O  O116  1  0.68839791  0.69520060  0.18882072  1  0  -0.527609  0  1.834  0  -0.653586  0  -0.489764  0  2.088902  0  0  -0.509848  0  2.076208  0  0  -0.225363  -0.478853  0  2.09268  0
O  O117  1  0.31160082  0.19520053  0.31117938  1  0  -0.527566  0  1.834016  0  -0.653581  0  -0.489754  0  2.088857  0  0  -0.509845  0  2.076162  0  0  -0.225334  -0.478809  0  2.092677  0
O  O118  1  0.31159990  0.30479944  0.81117862  1  0  -0.527543  0  1.834075  0  -0.653569  0  -0.489693  0  2.088863  0  0  -0.509786  0  2.076169  0  0  -0.225299  -0.474817  0  2.0971  0
O  O119  1  0.68839994  0.80479863  0.68882176  1  0  -0.527596  0  1.834059  0  -0.653559  0  -0.489762  0  2.08887  0  0  -0.509858  0  2.076179  0  0  -0.225328  -0.478812  0  2.092692  0
O  O120  1  0.87370100  0.78410823  0.17155723  1  0  -0.414348  0  1.751102  0  -0.488715  0  -0.416837  0  1.957031  0  0  -0.428648  0  1.95041  0  0  -0.167365  -0.412046  0  1.956305  0
O  O121  1  0.12629971  0.28410911  0.32844103  1  0  -0.414404  0  1.751152  0  -0.488693  0  -0.416925  0  1.957025  0  0  -0.428744  0  1.950402  0  0  -0.167383  -0.4121  0  1.95635  0
O  O122  1  0.12629879  0.21589359  0.82844163  1  0  -0.41436  0  1.751192  0  -0.488685  0  -0.416893  0  1.957066  0  0  -0.428717  0  1.950441  0  0  -0.167361  -0.407857  0  1.961568  0
O  O123  1  0.87370007  0.71589182  0.67155783  1  0  -0.414391  0  1.751099  0  -0.488696  0  -0.416927  0  1.956973  0  0  -0.428747  0  1.950352  0  0  -0.167359  -0.412094  0  1.956299  0
O  O124  1  0.85895555  0.68939290  0.30814937  1  0  -0.433373  0  1.76435  0  -0.517225  0  -0.43276  0  1.966317  0  0  -0.445254  0  1.960193  0  0  -0.176291  -0.427581  0  1.96515  0
O  O125  1  0.14104614  0.18939538  0.19185037  1  0  -0.433346  0  1.764388  0  -0.517209  0  -0.432788  0  1.96631  0  0  -0.445291  0  1.960187  0  0  -0.176256  -0.427568  0  1.965191  0
O  O126  1  0.14104521  0.31060537  0.69185033  1  0  -0.433321  0  1.764359  0  -0.517232  0  -0.432785  0  1.966289  0  0  -0.445292  0  1.960159  0  0  -0.176262  -0.423337  0  1.970301  0
O  O127  1  0.85895561  0.81060645  0.80814945  1  0  -0.433377  0  1.764325  0  -0.517226  0  -0.432822  0  1.966241  0  0  -0.445328  0  1.960115  0  0  -0.176283  -0.427598  0  1.965126  0
