# generated using pymatgen
data_Zn4H18C18O13
_symmetry_space_group_name_H-M   'P 1'
_cell_length_a   12.24024829
_cell_length_b   13.71955269
_cell_length_c   15.07838223
_cell_angle_alpha   69.66611702
_cell_angle_beta   70.88421972
_cell_angle_gamma   68.19491740
_symmetry_Int_Tables_number   1
_chemical_formula_structural   Zn4H18C18O13
_chemical_formula_sum   'Zn8 H36 C36 O26'
_cell_volume   2146.44659242
_cell_formula_units_Z   2
loop_
 _symmetry_equiv_pos_site_id
 _symmetry_equiv_pos_as_xyz
  1  'x, y, z'
loop_
 _atom_site_type_symbol
 _atom_site_label
 _atom_site_symmetry_multiplicity
 _atom_site_fract_x
 _atom_site_fract_y
 _atom_site_fract_z
 _atom_site_occupancy
 _atom_site_pbe_bader_charge
 _atom_site_pbe_bader_spin_density
 _atom_site_pbe_cm5_charge
 _atom_site_pbe_ddec_charge
 _atom_site_pbe_ddec_spin_density
 _atom_site_pbe_ddec_sum_bond_order
 _atom_site_pbe_magmom
Zn  Zn0  1  0.93736066  0.07610150  0.92153708  1  1.310974  0  0.666154  0.958083  0  2.353992  0
Zn  Zn1  1  0.18509247  0.05287428  0.96271653  1  1.306556  0  0.666813  0.947187  0  2.40369  0
Zn  Zn2  1  0.94497260  0.08879160  0.12955161  1  1.313612  0  0.670509  0.959649  0  2.387366  0
Zn  Zn3  1  0.98554593  0.28300634  0.93995298  1  1.315302  0  0.671706  0.965782  0  2.386356  0
Zn  Zn4  1  0.61255629  0.71362187  0.51314876  1  1.308871  0  0.665024  0.9511  0  2.375232  0
Zn  Zn5  1  0.34875344  0.69040768  0.55494242  1  1.314498  0  0.670935  0.964484  0  2.371068  0
Zn  Zn6  1  0.58019384  0.47958116  0.55070995  1  1.315287  0  0.671248  0.964332  0  2.379685  0
Zn  Zn7  1  0.54065848  0.66307683  0.35353494  1  1.311036  0  0.668473  0.955949  0  2.392761  0
H  H8  1  0.18383065  0.81277919  0.77828467  1  0.105706  0  0.107844  0.108475  0  0.967194  0
H  H9  1  0.29796004  0.66033081  0.88725795  1  0.04539  0  0.090985  0.088658  0  1.019087  0
H  H10  1  0.26059646  0.74602101  0.96548318  1  0.050255  0  0.089889  0.090664  0  1.002055  0
H  H11  1  0.49953955  0.69548995  0.82309086  1  0.051066  0  0.091131  0.093514  0  0.998046  0
H  H12  1  0.44189413  0.80948843  0.87381666  1  0.045404  0  0.097107  0.102332  0  0.978678  0
H  H13  1  0.37543215  0.92164849  0.72615945  1  0.094876  0  0.113713  0.112698  0  0.955153  0
H  H14  1  0.64531838  0.92528413  0.12174637  1  0.085571  0  0.115516  0.117143  0  0.948365  0
H  H15  1  0.48158730  0.09003864  0.07268018  1  0.025152  0  0.095615  0.099837  0  0.997147  0
H  H16  1  0.53084359  0.16724366  0.11784652  1  0.008597  0  0.093217  0.091088  0  0.985599  0
H  H17  1  0.41191420  0.98537556  0.24219685  1  0.043626  0  0.095693  0.100208  0  0.985335  0
H  H18  1  0.40340298  0.09840183  0.28053065  1  0.023619  0  0.092285  0.090877  0  0.99225  0
H  H19  1  0.62158540  0.02130326  0.28564023  1  0.070563  0  0.107944  0.10677  0  0.963211  0
H  H20  1  0.91140066  0.29702520  0.62733616  1  0.072851  0  0.109804  0.108012  0  0.958838  0
H  H21  1  0.13092278  0.28373286  0.57262233  1  0.068926  0  0.093642  0.093925  0  0.987613  0
H  H22  1  0.11840008  0.34140043  0.66662033  1  0.044036  0  0.095604  0.100937  0  0.986369  0
H  H23  1  0.01708181  0.46598218  0.48287741  1  0.010969  0  0.090925  0.087138  0  0.994942  0
H  H24  1  0.06062226  0.52299827  0.55120520  1  0.018037  0  0.095221  0.098061  0  0.992479  0
H  H25  1  0.88479944  0.49835426  0.68703851  1  0.098609  0  0.118085  0.120603  0  0.944156  0
H  H26  1  0.29317600  0.74732657  0.18777616  1  0.082652  0  0.108671  0.110231  0  0.963898  0
H  H27  1  0.14957192  0.65795572  0.18729447  1  0.016758  0  0.09037  0.087504  0  0.99492  0
H  H28  1  0.02374538  0.76483077  0.22708424  1  0.062949  0  0.09781  0.102522  0  0.980374  0
H  H29  1  0.19863011  0.59086980  0.35126349  1  0.043455  0  0.09418  0.093429  0  0.982332  0
H  H30  1  0.04446083  0.66029193  0.39617768  1  0.052059  0  0.096196  0.099505  0  1.001793  0
H  H31  1  0.09638049  0.83145998  0.35457843  1  0.095886  0  0.113854  0.116116  0  0.951793  0
H  H32  1  0.42340843  0.26552675  0.79493244  1  0.108559  0  0.116737  0.119226  0  0.94949  0
H  H33  1  0.49560692  0.25497769  0.93259136  1  0.059041  0  0.097548  0.099852  0  0.992294  0
H  H34  1  0.34442353  0.29717563  0.00030888  1  0.027201  0  0.092178  0.088404  0  0.98945  0
H  H35  1  0.48198620  0.44473283  0.83453364  1  0.047282  0  0.097402  0.101068  0  0.981746  0
H  H36  1  0.34876534  0.48806217  0.92283228  1  0.000363  0  0.090668  0.085989  0  1.016129  0
H  H37  1  0.22129923  0.46930453  0.83528538  1  0.084978  0  0.108553  0.110143  0  0.963664  0
H  H38  1  0.76787406  0.47404681  0.15994817  1  0.082035  0  0.109148  0.109282  0  0.964331  0
H  H39  1  0.91886840  0.49985971  0.21508061  1  0.04911  0  0.098362  0.102471  0  0.979988  0
H  H40  1  0.02640322  0.38900089  0.16839970  1  0.037109  0  0.090713  0.089124  0  0.993428  0
H  H41  1  0.91134443  0.36789844  0.38025684  1  0.035812  0  0.090178  0.089672  0  0.995928  0
H  H42  1  0.96692760  0.25671250  0.32591724  1  0.066842  0  0.099076  0.104186  0  0.977789  0
H  H43  1  0.75844528  0.28005220  0.32964153  1  0.083699  0  0.110887  0.111459  0  0.959405  0
C  C44  1  0.16255399  0.93064656  0.85070460  1  1.5585  0  0.228745  0.636811  0  4.109531  0
C  C45  1  0.23715639  0.83367499  0.81088030  1  -0.043787  0  -0.084893  -0.132928  0  3.779724  0
C  C46  1  0.29814777  0.73887610  0.89045812  1  -0.060082  0  -0.155226  -0.158639  0  3.816164  0
C  C47  1  0.42029035  0.76392438  0.83812749  1  -0.032864  0  -0.159291  -0.163619  0  3.832789  0
C  C48  1  0.36490716  0.83960951  0.74978438  1  -0.008316  0  -0.081303  -0.122781  0  3.797439  0
C  C49  1  0.41008361  0.79597880  0.66118389  1  1.536714  0  0.229669  0.634573  0  4.110919  0
C  C50  1  0.75510029  0.02523341  0.10039604  1  1.552286  0  0.227997  0.629831  0  4.135896  0
C  C51  1  0.63916010  0.99454110  0.14566540  1  -0.00573  0  -0.081615  -0.127635  0  3.806964  0
C  C52  1  0.52041210  0.08717883  0.12976985  1  0.012461  0  -0.154667  -0.164415  0  3.842218  0
C  C53  1  0.46074159  0.04086138  0.23659686  1  -0.018473  0  -0.153948  -0.158512  0  3.836957  0
C  C54  1  0.58949269  0.97662015  0.25663218  1  0.022972  0  -0.086619  -0.133455  0  3.80134  0
C  C55  1  0.60395312  0.86209179  0.31960654  1  1.534237  0  0.229016  0.638454  0  4.109066  0
C  C56  1  0.92116272  0.28291076  0.77067594  1  1.54733  0  0.229915  0.640542  0  4.112799  0
C  C57  1  0.94084094  0.33657194  0.66346064  1  0.009471  0  -0.087063  -0.136214  0  3.805415  0
C  C58  1  0.07288934  0.34377745  0.61379746  1  -0.063551  0  -0.153046  -0.159176  0  3.822618  0
C  C59  1  0.02043267  0.46153651  0.55612944  1  0.008682  0  -0.15702  -0.164039  0  3.851844  0
C  C60  1  0.89657755  0.46165148  0.62897332  1  0.005889  0  -0.081989  -0.127577  0  3.815259  0
C  C61  1  0.78448424  0.51320290  0.58927007  1  1.55336  0  0.226957  0.627048  0  4.133605  0
C  C62  1  0.15979406  0.90105582  0.15612383  1  1.552464  0  0.228434  0.63368  0  4.118876  0
C  C63  1  0.19820533  0.78646138  0.21702927  1  -0.008924  0  -0.086375  -0.134904  0  3.799039  0
C  C64  1  0.11606724  0.71472438  0.23309934  1  -0.038491  0  -0.153507  -0.159265  0  3.830614  0
C  C65  1  0.12668366  0.66812704  0.34018895  1  -0.036118  0  -0.152261  -0.159831  0  3.826419  0
C  C66  1  0.17126250  0.76588529  0.32851096  1  0.004882  0  -0.082864  -0.129039  0  3.794789  0
C  C67  1  0.27478520  0.73692590  0.37485939  1  1.553821  0  0.229347  0.632484  0  4.13137  0
C  C68  1  0.25221610  0.25251252  0.88739559  1  1.554725  0  0.228457  0.628708  0  4.134323  0
C  C69  1  0.35221046  0.30552670  0.84849786  1  -0.020089  0  -0.082655  -0.128761  0  3.79691  0
C  C70  1  0.40490072  0.30992353  0.92786919  1  -0.035703  0  -0.152632  -0.157  0  3.829331  0
C  C71  1  0.39465894  0.43115455  0.87687246  1  -0.004555  0  -0.152705  -0.156035  0  3.816543  0
C  C72  1  0.31801205  0.43065811  0.81161313  1  -0.019608  0  -0.086768  -0.133446  0  3.787  0
C  C73  1  0.36150459  0.48090163  0.70544374  1  1.573294  0  0.227608  0.631739  0  4.125168  0
C  C74  1  0.87289333  0.31765496  0.13592048  1  1.5495  0  0.231649  0.635802  0  4.11366  0
C  C75  1  0.82832443  0.39928106  0.19535233  1  0.002614  0  -0.084949  -0.131346  0  3.78922  0
C  C76  1  0.93750183  0.41498648  0.21589598  1  -0.040285  0  -0.154086  -0.160398  0  3.828239  0
C  C77  1  0.91069850  0.34125148  0.31977155  1  -0.04913  0  -0.15445  -0.159577  0  3.823065  0
C  C78  1  0.78372395  0.35541143  0.30601822  1  0.001879  0  -0.083662  -0.131433  0  3.788375  0
C  C79  1  0.68683768  0.43734737  0.35737904  1  1.567823  0  0.230142  0.633479  0  4.110766  0
O  O80  1  0.01091299  0.12643705  0.98983787  1  -1.233793  0  -0.57635  -1.034725  0  2.558629  0
O  O81  1  0.21832297  0.99235987  0.85239088  1  -1.18594  0  -0.325695  -0.566958  0  2.321435  0
O  O82  1  0.04944261  0.94223704  0.88411261  1  -1.164187  0  -0.321822  -0.552733  0  2.271902  0
O  O83  1  0.33244041  0.79947871  0.61970568  1  -1.1756  0  -0.323665  -0.561953  0  2.307688  0
O  O84  1  0.52466161  0.76004455  0.63363251  1  -1.159106  0  -0.320553  -0.55225  0  2.306341  0
O  O85  1  0.80813618  0.03195131  0.15721017  1  -1.179375  0  -0.316066  -0.553634  0  2.340004  0
O  O86  1  0.78837878  0.04443224  0.00798932  1  -1.163104  0  -0.319856  -0.549789  0  2.303674  0
O  O87  1  0.59562834  0.79353743  0.28422661  1  -1.184058  0  -0.322354  -0.565867  0  2.320431  0
O  O88  1  0.61970971  0.84327660  0.40431672  1  -1.163837  0  -0.318524  -0.54966  0  2.299728  0
O  O89  1  0.91519835  0.33811732  0.82619310  1  -1.18717  0  -0.32729  -0.570126  0  2.321157  0
O  O90  1  0.91766027  0.18498082  0.79722244  1  -1.173353  0  -0.316478  -0.548026  0  2.296943  0
O  O91  1  0.71544489  0.45468027  0.60837850  1  -1.170039  0  -0.316316  -0.554191  0  2.322494  0
O  O92  1  0.76853128  0.61197106  0.53891075  1  -1.184929  0  -0.323485  -0.554274  0  2.295017  0
O  O93  1  0.06492779  0.96657195  0.19421944  1  -1.189059  0  -0.321226  -0.562162  0  2.320716  0
O  O94  1  0.22322011  0.92246311  0.06951260  1  -1.175428  0  -0.318943  -0.553418  0  2.306904  0
O  O95  1  0.38114414  0.70334083  0.32502039  1  -1.185026  0  -0.317677  -0.557589  0  2.34226  0
O  O96  1  0.24619687  0.74440895  0.46224267  1  -1.169189  0  -0.319461  -0.55036  0  2.304305  0
O  O97  1  0.14480118  0.31278967  0.88420780  1  -1.184673  0  -0.31402  -0.55694  0  2.337424  0
O  O98  1  0.28497008  0.14965503  0.92364132  1  -1.166544  0  -0.322509  -0.551747  0  2.310217  0
O  O99  1  0.45946484  0.42501268  0.66009938  1  -1.177953  0  -0.320445  -0.55693  0  2.32168  0
O  O100  1  0.30048435  0.57744503  0.67071055  1  -1.187211  0  -0.320499  -0.557316  0  2.305667  0
O  O101  1  0.88781073  0.21734607  0.18093768  1  -1.178396  0  -0.313359  -0.549482  0  2.320852  0
O  O102  1  0.89657534  0.35696774  0.04393156  1  -1.179902  0  -0.323219  -0.558459  0  2.311581  0
O  O103  1  0.65336418  0.53558502  0.30769790  1  -1.177552  0  -0.312838  -0.545524  0  2.319382  0
O  O104  1  0.64943783  0.40103489  0.44856473  1  -1.183168  0  -0.323825  -0.561199  0  2.309797  0
O  O105  1  0.51955037  0.63530706  0.49325574  1  -1.233787  0  -0.575479  -1.035506  0  2.555062  0
