# generated using pymatgen
data_CdH24C24N2O11
_symmetry_space_group_name_H-M   'P 1'
_cell_length_a   10.52667100
_cell_length_b   11.34551216
_cell_length_c   11.25709965
_cell_angle_alpha   70.58147366
_cell_angle_beta   81.92027982
_cell_angle_gamma   73.80574391
_symmetry_Int_Tables_number   1
_chemical_formula_structural   CdH24C24N2O11
_chemical_formula_sum   'Cd2 H48 C48 N4 O22'
_cell_volume   1215.95285219
_cell_formula_units_Z   2
loop_
 _symmetry_equiv_pos_site_id
 _symmetry_equiv_pos_as_xyz
  1  'x, y, z'
loop_
 _atom_site_type_symbol
 _atom_site_label
 _atom_site_symmetry_multiplicity
 _atom_site_fract_x
 _atom_site_fract_y
 _atom_site_fract_z
 _atom_site_occupancy
 _atom_site_hle17_bader_spin_density
 _atom_site_hle17_ddec_charge
 _atom_site_hle17_ddec_spin_density
 _atom_site_hle17_ddec_sum_bond_order
 _atom_site_hle17_magmom
 _atom_site_hse06_10hf_bader_spin_density
 _atom_site_hse06_10hf_ddec_charge
 _atom_site_hse06_10hf_ddec_spin_density
 _atom_site_hse06_10hf_ddec_sum_bond_order
 _atom_site_hse06_10hf_magmom
 _atom_site_hse06_bader_spin_density
 _atom_site_hse06_ddec_charge
 _atom_site_hse06_ddec_spin_density
 _atom_site_hse06_ddec_sum_bond_order
 _atom_site_hse06_magmom
 _atom_site_pbe_bader_spin_density
 _atom_site_pbe_cm5_charge
 _atom_site_pbe_ddec_charge
 _atom_site_pbe_ddec_spin_density
 _atom_site_pbe_ddec_sum_bond_order
 _atom_site_pbe_magmom
Cd  Cd0  1  0.54379475  0.41120121  0.28957236  1  0  1.182674  0  1.60044  0  0  1.001991  0  2.035815  0  0  1.059377  0  1.980182  0  0  0.761497  0.961626  0  2.07318  0
Cd  Cd1  1  0.45620299  0.58879969  0.71042758  1  0  1.182676  0  1.600489  0  0  1.001958  0  2.035884  0  0  1.059345  0  1.980248  0  0  0.761478  0.961597  0  2.073242  0
H  H2  1  0.10872189  0.56833818  0.31216630  1  0  0.301652  0  0.945001  0  0  0.271183  0  1.019154  0  0  0.282557  0  1.010624  0  0  0.300884  0.263332  0  1.024866  0
H  H3  1  0.89127387  0.43165891  0.68783523  1  0  0.301535  0  0.945066  0  0  0.271056  0  1.019261  0  0  0.282429  0  1.010738  0  0  0.300812  0.263205  0  1.024972  0
H  H4  1  0.40186885  0.99547393  0.85415508  1  0  0.119709  0  0.99206  0  0  0.130371  0  1.055239  0  0  0.133847  0  1.053637  0  0  0.10466  0.127903  0  1.056459  0
H  H5  1  0.59813389  0.00452591  0.14584269  1  0  0.119753  0  0.992036  0  0  0.130431  0  1.055181  0  0  0.133903  0  1.053576  0  0  0.104678  0.127965  0  1.056398  0
H  H6  1  0.19047485  0.38015717  0.85488213  1  0  0.146506  0  0.946602  0  0  0.155128  0  1.010386  0  0  0.159959  0  1.00726  0  0  0.110188  0.151629  0  1.01291  0
H  H7  1  0.80952283  0.61984373  0.14511515  1  0  0.146548  0  0.946611  0  0  0.155173  0  1.010388  0  0  0.160006  0  1.007259  0  0  0.110206  0.15167  0  1.012912  0
H  H8  1  0.21779959  0.05925512  0.20172489  1  0  0.122791  0  0.966116  0  0  0.13235  0  1.031097  0  0  0.136578  0  1.028565  0  0  0.101214  0.129403  0  1.032967  0
H  H9  1  0.78220604  0.94074466  0.79827246  1  0  0.122757  0  0.966231  0  0  0.132372  0  1.031123  0  0  0.1366  0  1.028594  0  0  0.101214  0.129423  0  1.032996  0
H  H10  1  0.51807701  0.83677680  0.98856589  1  0  0.082055  0  0.969896  0  0  0.092087  0  1.037403  0  0  0.092043  0  1.039167  0  0  0.105725  0.092052  0  1.036459  0
H  H11  1  0.48192551  0.16322401  0.01143159  1  0  0.082047  0  0.969864  0  0  0.092061  0  1.037405  0  0  0.092009  0  1.039155  0  0  0.105727  0.092025  0  1.036464  0
H  H12  1  0.37206565  0.80382782  0.95878090  1  0  0.077407  0  0.971263  0  0  0.088581  0  1.035495  0  0  0.088796  0  1.037322  0  0  0.104742  0.088542  0  1.034294  0
H  H13  1  0.62793402  0.19617305  0.04121876  1  0  0.077419  0  0.971259  0  0  0.088615  0  1.035478  0  0  0.088819  0  1.037305  0  0  0.10476  0.088577  0  1.034276  0
H  H14  1  0.41049987  0.08490944  0.64910889  1  0  0.079342  0  0.9146  0  0  0.09352  0  0.97386  0  0  0.095365  0  0.97146  0  0  0.105411  0.092163  0  0.975719  0
H  H15  1  0.58950215  0.91508946  0.35088931  1  0  0.079347  0  0.914561  0  0  0.093512  0  0.973823  0  0  0.095359  0  0.971422  0  0  0.105412  0.092151  0  0.975677  0
H  H16  1  0.52099084  0.13581570  0.71735994  1  0  0.098934  0  0.934978  0  0  0.106941  0  1.002816  0  0  0.109512  0  1.000253  0  0  0.111409  0.104884  0  1.004871  0
H  H17  1  0.47900736  0.86419095  0.28263352  1  0  0.098927  0  0.934861  0  0  0.106934  0  1.002688  0  0  0.109516  0  1.000115  0  0  0.111391  0.104855  0  1.004759  0
H  H18  1  0.17381158  0.21458372  0.27576166  1  0  0.073439  0  0.932914  0  0  0.085564  0  0.99648  0  0  0.08729  0  0.994205  0  0  0.104138  0.084425  0  0.998172  0
H  H19  1  0.82619433  0.78541510  0.72423776  1  0  0.073481  0  0.932933  0  0  0.085616  0  0.996508  0  0  0.087337  0  0.994223  0  0  0.104159  0.084481  0  0.998186  0
H  H20  1  0.00559081  0.24178553  0.23673540  1  0  0.074882  0  0.954005  0  0  0.08081  0  1.025636  0  0  0.081455  0  1.026982  0  0  0.097545  0.080499  0  1.024658  0
H  H21  1  0.99441690  0.75820558  0.76326548  1  0  0.07492  0  0.953935  0  0  0.08083  0  1.025603  0  0  0.081465  0  1.026952  0  0  0.097552  0.080521  0  1.024619  0
H  H22  1  0.70443502  0.12793357  0.33018967  1  0  0.090963  0  0.971196  0  0  0.099754  0  1.035633  0  0  0.102875  0  1.032368  0  0  0.113301  0.09747  0  1.037962  0
H  H23  1  0.29557416  0.87206425  0.66981671  1  0  0.090958  0  0.971042  0  0  0.099736  0  1.03551  0  0  0.102855  0  1.03225  0  0  0.113262  0.097466  0  1.037822  0
H  H24  1  0.86389807  0.98300782  0.22193453  1  0  0.093448  0  0.984703  0  0  0.103782  0  1.047265  0  0  0.105853  0  1.048642  0  0  0.098593  0.102253  0  1.046572  0
H  H25  1  0.13610991  0.01699481  0.77806772  1  0  0.093583  0  0.984568  0  0  0.103861  0  1.047187  0  0  0.10594  0  1.048555  0  0  0.098649  0.102328  0  1.046501  0
H  H26  1  0.91463968  0.32619240  0.92250434  1  0  0.115282  0  0.954481  0  0  0.12169  0  1.020045  0  0  0.125178  0  1.019195  0  0  0.107857  0.119103  0  1.021001  0
H  H27  1  0.08535949  0.67381521  0.07749931  1  0  0.115226  0  0.954516  0  0  0.121624  0  1.020113  0  0  0.12511  0  1.019266  0  0  0.107866  0.119046  0  1.021056  0
H  H28  1  0.75254986  0.45496967  0.04275900  1  0  0.100283  0  0.943502  0  0  0.10719  0  1.00717  0  0  0.110471  0  1.003824  0  0  0.122697  0.104693  0  1.00974  0
H  H29  1  0.24744684  0.54503222  0.95724786  1  0  0.100319  0  0.943495  0  0  0.10727  0  1.007094  0  0  0.110553  0  1.003746  0  0  0.122714  0.104726  0  1.009725  0
H  H30  1  0.04512488  0.11771860  0.90696046  1  0  0.087134  0  0.966646  0  0  0.097353  0  1.03169  0  0  0.099253  0  1.032333  0  0  0.099666  0.095854  0  1.031652  0
H  H31  1  0.95487532  0.88228801  0.09303626  1  0  0.087098  0  0.966681  0  0  0.097369  0  1.03168  0  0  0.099267  0  1.032328  0  0  0.099645  0.095868  0  1.031639  0
H  H32  1  0.30863450  0.39080436  0.20913043  1  0  0.417389  0  0.889394  0  0  0.382688  0  0.959233  0  0  0.394415  0  0.942331  0  0  0.279357  0.37442  0  0.971107  0
H  H33  1  0.69136539  0.60919170  0.79087261  1  0  0.417357  0  0.889433  0  0  0.382653  0  0.959277  0  0  0.394381  0  0.942373  0  0  0.279339  0.374382  0  0.971157  0
H  H34  1  0.42116763  0.37237569  0.10038315  1  0  0.42227  0  0.88191  0  0  0.38989  0  0.948364  0  0  0.401585  0  0.931534  0  0  0.280324  0.381594  0  0.960265  0
H  H35  1  0.57883129  0.62762039  0.89962004  1  0  0.42227  0  0.881891  0  0  0.389871  0  0.948376  0  0  0.401566  0  0.931546  0  0  0.280312  0.381575  0  0.960279  0
H  H36  1  0.77889618  0.44526184  0.36458835  1  0  0.431474  0  0.869436  0  0  0.399143  0  0.936325  0  0  0.409958  0  0.920534  0  0  0.288256  0.391563  0  0.947357  0
H  H37  1  0.22109949  0.55474006  0.63541511  1  0  0.431397  0  0.869534  0  0  0.39906  0  0.936433  0  0  0.409876  0  0.920641  0  0  0.288218  0.391482  0  0.947461  0
H  H38  1  0.65728509  0.52600458  0.43174815  1  0  0.434827  0  0.861759  0  0  0.398869  0  0.93338  0  0  0.410544  0  0.916442  0  0  0.287733  0.390565  0  0.945408  0
H  H39  1  0.34271006  0.47399925  0.56825207  1  0  0.434864  0  0.861704  0  0  0.398895  0  0.933347  0  0  0.41057  0  0.916408  0  0  0.287759  0.390591  0  0.945376  0
H  H40  1  0.11294016  0.37122777  0.61541863  1  0  0.113525  0  0.945106  0  0  0.113946  0  1.017855  0  0  0.118566  0  1.012658  0  0  0.131534  0.11061  0  1.021361  0
H  H41  1  0.88705707  0.62877122  0.38458203  1  0  0.113608  0  0.945079  0  0  0.11401  0  1.017846  0  0  0.118626  0  1.012662  0  0  0.131585  0.110705  0  1.021313  0
H  H42  1  0.19023957  0.18343620  0.52848205  1  0  0.119773  0  0.927643  0  0  0.132687  0  0.980076  0  0  0.135451  0  0.980091  0  0  0.118744  0.130618  0  0.980592  0
H  H43  1  0.80975346  0.81656381  0.47151357  1  0  0.119779  0  0.927615  0  0  0.132686  0  0.980039  0  0  0.135478  0  0.980016  0  0  0.118749  0.130607  0  0.980568  0
H  H44  1  0.78379942  0.14743935  0.58657825  1  0  0.12432  0  0.944733  0  0  0.134021  0  1.001973  0  0  0.137512  0  1.000835  0  0  0.117005  0.131559  0  1.002792  0
H  H45  1  0.21619917  0.85255385  0.41342330  1  0  0.12426  0  0.944757  0  0  0.133997  0  1.001976  0  0  0.137485  0  1.000839  0  0  0.116994  0.131537  0  1.002793  0
H  H46  1  0.72723246  0.32857866  0.67699180  1  0  0.123027  0  0.977207  0  0  0.128226  0  1.037991  0  0  0.132239  0  1.033917  0  0  0.133389  0.125235  0  1.04106  0
H  H47  1  0.27276692  0.67141549  0.32301197  1  0  0.122909  0  0.977375  0  0  0.128156  0  1.038117  0  0  0.13216  0  1.034059  0  0  0.133404  0.125173  0  1.041172  0
H  H48  1  0.14531306  0.00915732  0.48186898  1  0  0.097992  0  0.944485  0  0  0.110532  0  1.003577  0  0  0.11352  0  1.001665  0  0  0.111162  0.108306  0  1.00516  0
H  H49  1  0.85468389  0.99084263  0.51812873  1  0  0.097994  0  0.944535  0  0  0.110526  0  1.00362  0  0  0.113518  0  1.001719  0  0  0.111136  0.108297  0  1.005205  0
C  C50  1  0.31270014  0.01456661  0.03429554  1  0  0.319021  0  3.837536  0  0  0.310731  0  4.09916  0  0  0.326191  0  4.112542  0  0  0.080012  0.300515  0  4.089751  0
C  C51  1  0.68730531  0.98543415  0.96570329  1  0  0.319225  0  3.837337  0  0  0.310896  0  4.099013  0  0  0.326366  0  4.112379  0  0  0.080037  0.300665  0  4.089624  0
C  C52  1  0.34384491  0.06029587  0.90494897  1  0  -0.371528  0  3.782864  0  0  -0.401572  0  4.041969  0  0  -0.41217  0  4.059997  0  0  -0.144681  -0.394635  0  4.029813  0
C  C53  1  0.65615976  0.93970393  0.09504852  1  0  -0.371674  0  3.782848  0  0  -0.401715  0  4.041944  0  0  -0.412312  0  4.059962  0  0  -0.144708  -0.394785  0  4.029794  0
C  C54  1  0.29856060  0.19236135  0.84156458  1  0  0.312184  0  3.84744  0  0  0.303499  0  4.11048  0  0  0.318345  0  4.124107  0  0  0.077676  0.293405  0  4.100889  0
C  C55  1  0.70143805  0.80763953  0.15843256  1  0  0.312228  0  3.847322  0  0  0.303573  0  4.110358  0  0  0.31842  0  4.123981  0  0  0.077676  0.293479  0  4.100764  0
C  C56  1  0.22358867  0.27766819  0.90473410  1  0  -0.323718  0  3.711245  0  0  -0.363819  0  3.983092  0  0  -0.37259  0  3.99691  0  0  -0.132564  -0.357966  0  3.974249  0
C  C57  1  0.77640873  0.72232983  0.09526420  1  0  -0.323783  0  3.711148  0  0  -0.363889  0  3.983006  0  0  -0.372658  0  3.99682  0  0  -0.13258  -0.35803  0  3.974151  0
C  C58  1  0.19749144  0.23020351  0.03515071  1  0  0.317802  0  3.840204  0  0  0.309137  0  4.103153  0  0  0.324735  0  4.116283  0  0  0.082385  0.298356  0  4.094383  0
C  C59  1  0.80250936  0.76979637  0.96484645  1  0  0.317783  0  3.839931  0  0  0.309078  0  4.102948  0  0  0.324674  0  4.116079  0  0  0.082326  0.298306  0  4.094169  0
C  C60  1  0.23998893  0.09878142  0.10124776  1  0  -0.353626  0  3.74231  0  0  -0.383797  0  4.002272  0  0  -0.39373  0  4.017607  0  0  -0.139389  -0.377002  0  3.992215  0
C  C61  1  0.76001487  0.90122224  0.89875032  1  0  -0.353647  0  3.742135  0  0  -0.383844  0  4.002086  0  0  -0.393781  0  4.017416  0  0  -0.139394  -0.37705  0  3.992038  0
C  C62  1  0.42920678  0.80335732  0.03359896  1  0  -0.067473  0  3.63408  0  0  -0.121284  0  3.887919  0  0  -0.117842  0  3.89004  0  0  -0.072996  -0.123559  0  3.886086  0
C  C63  1  0.57079721  0.19664154  0.96640162  1  0  -0.06738  0  3.634117  0  0  -0.121265  0  3.888038  0  0  -0.11777  0  3.89009  0  0  -0.073045  -0.123545  0  3.886212  0
C  C64  1  0.47511964  0.66500617  0.11601955  1  0  0.660789  0  3.903229  0  0  0.606746  0  4.209378  0  0  0.639813  0  4.203488  0  0  0.197973  0.584186  0  4.212865  0
C  C65  1  0.52488073  0.33499180  0.88398188  1  0  0.660683  0  3.903527  0  0  0.606699  0  4.209582  0  0  0.639756  0  4.203694  0  0  0.197952  0.584134  0  4.213076  0
C  C66  1  0.43481786  0.16988686  0.65862330  1  0  -0.061912  0  3.631795  0  0  -0.121478  0  3.897705  0  0  -0.11757  0  3.896896  0  0  -0.068877  -0.124182  0  3.898438  0
C  C67  1  0.56518293  0.83011302  0.34137298  1  0  -0.061841  0  3.631692  0  0  -0.121327  0  3.8975  0  0  -0.117433  0  3.896695  0  0  -0.068794  -0.124007  0  3.898228  0
C  C68  1  0.47395354  0.24999099  0.52791198  1  0  0.662306  0  3.904945  0  0  0.61556  0  4.201066  0  0  0.648357  0  4.195624  0  0  0.195147  0.593214  0  4.204377  0
C  C69  1  0.52603955  0.75001287  0.47208231  1  0  0.662041  0  3.905239  0  0  0.615279  0  4.20135  0  0  0.648073  0  4.195916  0  0  0.195018  0.59294  0  4.204647  0
C  C70  1  0.09068072  0.28458574  0.22060880  1  0  -0.063008  0  3.631958  0  0  -0.120094  0  3.893229  0  0  -0.116257  0  3.894292  0  0  -0.070113  -0.123046  0  3.892619  0
C  C71  1  0.90932368  0.71541119  0.77938972  1  0  -0.063057  0  3.632125  0  0  -0.1202  0  3.893457  0  0  -0.116322  0  3.894464  0  0  -0.070179  -0.12314  0  3.892821  0
C  C72  1  0.05534297  0.40528493  0.26335150  1  0  0.673873  0  3.861643  0  0  0.622051  0  4.170941  0  0  0.654158  0  4.163402  0  0  0.211448  0.600478  0  4.175435  0
C  C73  1  0.94465784  0.59471111  0.73664963  1  0  0.673868  0  3.861762  0  0  0.622049  0  4.171087  0  0  0.654144  0  4.163549  0  0  0.211508  0.600485  0  4.17556  0
C  C74  1  0.75448952  0.16639032  0.23961223  1  0  0.100529  0  3.744286  0  0  0.071551  0  3.993128  0  0  0.078141  0  4.011563  0  0  0.034349  0.066884  0  3.981484  0
C  C75  1  0.24551847  0.83360848  0.76039399  1  0  0.100623  0  3.743913  0  0  0.071635  0  3.992761  0  0  0.078222  0  4.011204  0  0  0.034426  0.066955  0  3.981115  0
C  C76  1  0.84269571  0.08698071  0.17816765  1  0  -0.170778  0  3.735696  0  0  -0.185547  0  3.980424  0  0  -0.193636  0  4.002534  0  0  -0.089598  -0.180473  0  3.965683  0
C  C77  1  0.15731254  0.91302097  0.82183666  1  0  -0.170868  0  3.735492  0  0  -0.185569  0  3.980277  0  0  -0.193664  0  4.002381  0  0  -0.089631  -0.180494  0  3.965549  0
C  C78  1  0.90228706  0.14140646  0.05997151  1  0  0.132992  0  3.798831  0  0  0.14766  0  4.028722  0  0  0.153394  0  4.04977  0  0  0.006938  0.144215  0  4.014574  0
C  C79  1  0.09771491  0.85859725  0.94003127  1  0  0.133011  0  3.798828  0  0  0.147615  0  4.028805  0  0  0.15335  0  4.049854  0  0  0.006969  0.144171  0  4.014657  0
C  C80  1  0.87062333  0.27684692  0.01221815  1  0  -0.146958  0  3.657272  0  0  -0.165792  0  3.907288  0  0  -0.172996  0  3.925748  0  0  -0.078138  -0.161564  0  3.89559  0
C  C81  1  0.12937773  0.72315681  0.98778743  1  0  -0.146794  0  3.657358  0  0  -0.165608  0  3.907408  0  0  -0.172808  0  3.925861  0  0  -0.078127  -0.161383  0  3.895688  0
C  C82  1  0.78068124  0.35005578  0.07926978  1  0  0.141658  0  3.675263  0  0  0.108639  0  3.931316  0  0  0.117435  0  3.946543  0  0  0.05154  0.102879  0  3.921512  0
C  C83  1  0.21931714  0.64994704  0.92073563  1  0  0.14148  0  3.675437  0  0  0.108429  0  3.931467  0  0  0.117224  0  3.946693  0  0  0.051445  0.102693  0  3.921685  0
C  C84  1  0.99118397  0.06418141  0.98745946  1  0  -0.086199  0  3.701527  0  0  -0.106649  0  3.950465  0  0  -0.109337  0  3.970748  0  0  -0.079432  -0.105358  0  3.937676  0
C  C85  1  0.00881674  0.93582712  0.01253654  1  0  -0.086372  0  3.701629  0  0  -0.106847  0  3.950585  0  0  -0.10954  0  3.970871  0  0  -0.079536  -0.105554  0  3.937793  0
C  C86  1  0.04699251  0.31606978  0.60682845  1  0  0.15266  0  3.620082  0  0  0.105458  0  3.888122  0  0  0.115662  0  3.900851  0  0  0.067647  0.099227  0  3.879192  0
C  C87  1  0.95300445  0.68393017  0.39317015  1  0  0.152558  0  3.620146  0  0  0.105359  0  3.888179  0  0  0.115552  0  3.90093  0  0  0.06759  0.099113  0  3.879226  0
C  C88  1  0.08695661  0.21237114  0.56024973  1  0  -0.159106  0  3.677689  0  0  -0.177843  0  3.934092  0  0  -0.187202  0  3.9544  0  0  -0.072721  -0.173045  0  3.921294  0
C  C89  1  0.91304009  0.78762977  0.43974681  1  0  -0.159176  0  3.677667  0  0  -0.177859  0  3.934045  0  0  -0.187244  0  3.954358  0  0  -0.072754  -0.173059  0  3.921256  0
C  C90  1  0.99434873  0.14602718  0.55326004  1  0  0.137531  0  3.78679  0  0  0.150089  0  4.020781  0  0  0.156945  0  4.04307  0  0  0.016807  0.145963  0  4.005526  0
C  C91  1  0.00565056  0.85397080  0.44673621  1  0  0.137697  0  3.786721  0  0  0.150209  0  4.020767  0  0  0.157065  0  4.043064  0  0  0.016857  0.146086  0  4.005509  0
C  C92  1  0.86221510  0.18998782  0.59360296  1  0  -0.130116  0  3.626624  0  0  -0.147024  0  3.871789  0  0  -0.156111  0  3.89109  0  0  -0.062198  -0.140365  0  3.857957  0
C  C93  1  0.13778043  0.81001024  0.40639828  1  0  -0.130016  0  3.626549  0  0  -0.146969  0  3.871818  0  0  -0.156037  0  3.891085  0  0  -0.062189  -0.140315  0  3.85799  0
C  C94  1  0.82756789  0.29328117  0.64084009  1  0  0.170093  0  3.578441  0  0  0.128384  0  3.830921  0  0  0.139312  0  3.842292  0  0  0.07735  0.12123  0  3.822739  0
C  C95  1  0.17242789  0.70671593  0.35916232  1  0  0.170131  0  3.578389  0  0  0.128361  0  3.83094  0  0  0.139294  0  3.842309  0  0  0.077323  0.121201  0  3.82276  0
C  C96  1  0.03919979  0.03537728  0.50644297  1  0  -0.090795  0  3.703892  0  0  -0.112988  0  3.958554  0  0  -0.116119  0  3.979092  0  0  -0.069872  -0.111086  0  3.94483  0
C  C97  1  0.96079763  0.96462458  0.49355225  1  0  -0.091052  0  3.703951  0  0  -0.113207  0  3.958618  0  0  -0.116354  0  3.979168  0  0  -0.069907  -0.1113  0  3.944893  0
N  N98  1  0.72221707  0.29617705  0.19092205  1  0  -0.33856  0  3.244367  0  0  -0.259322  0  3.507076  0  0  -0.27944  0  3.524989  0  0  -0.330017  -0.245994  0  3.494898  0
N  N99  1  0.27778707  0.70382182  0.80908472  1  0  -0.338625  0  3.244317  0  0  -0.259351  0  3.507035  0  0  -0.27947  0  3.524949  0  0  -0.330014  -0.246021  0  3.494846  0
N  N100  1  0.91977999  0.35262624  0.64704893  1  0  -0.21579  0  3.423544  0  0  -0.140575  0  3.652016  0  0  -0.157028  0  3.666396  0  0  -0.329981  -0.12919  0  3.641658  0
N  N101  1  0.08021671  0.64737084  0.35295158  1  0  -0.215831  0  3.423597  0  0  -0.140586  0  3.652037  0  0  -0.157039  0  3.666416  0  0  -0.329993  -0.129205  0  3.64169  0
O  O102  1  0.35055982  0.88658798  0.10275579  1  0  -0.267738  0  2.318506  0  0  -0.197321  0  2.55122  0  0  -0.215451  0  2.55396  0  0  -0.179133  -0.183957  0  2.548265  0
O  O103  1  0.64944635  0.11341372  0.89724171  1  0  -0.267874  0  2.318519  0  0  -0.197406  0  2.551218  0  0  -0.215551  0  2.553931  0  0  -0.179116  -0.184033  0  2.54827  0
O  O104  1  0.32559050  0.24427767  0.71497253  1  0  -0.279064  0  2.356243  0  0  -0.204089  0  2.588931  0  0  -0.222001  0  2.591685  0  0  -0.181015  -0.19162  0  2.586569  0
O  O105  1  0.67440263  0.75572619  0.28502354  1  0  -0.279023  0  2.356225  0  0  -0.204122  0  2.58894  0  0  -0.22203  0  2.591696  0  0  -0.18099  -0.191652  0  2.586569  0
O  O106  1  0.13004381  0.32294319  0.08952122  1  0  -0.262669  0  2.330889  0  0  -0.190917  0  2.559  0  0  -0.208171  0  2.560419  0  0  -0.176752  -0.178513  0  2.557527  0
O  O107  1  0.86995815  0.67705186  0.91047830  1  0  -0.262723  0  2.330906  0  0  -0.190896  0  2.558991  0  0  -0.208163  0  2.560397  0  0  -0.176721  -0.178506  0  2.557519  0
O  O108  1  0.44211200  0.63189711  0.23321391  1  0  -0.61813  0  1.997657  0  0  -0.551037  0  2.234349  0  0  -0.579041  0  2.223717  0  0  -0.318441  -0.531583  0  2.241013  0
O  O109  1  0.55788534  0.36810572  0.76678809  1  0  -0.618134  0  1.997782  0  0  -0.551009  0  2.234409  0  0  -0.579019  0  2.223782  0  0  -0.318418  -0.531552  0  2.241078  0
O  O110  1  0.54682853  0.58782493  0.05964113  1  0  -0.645662  0  2.004428  0  0  -0.585612  0  2.239154  0  0  -0.614156  0  2.231751  0  0  -0.315142  -0.565558  0  2.243716  0
O  O111  1  0.45317086  0.41217305  0.94035956  1  0  -0.645605  0  2.004523  0  0  -0.585608  0  2.239257  0  0  -0.614145  0  2.231837  0  0  -0.315131  -0.565543  0  2.243814  0
O  O112  1  0.57250591  0.19329934  0.47231640  1  0  -0.653237  0  1.920171  0  0  -0.604637  0  2.150435  0  0  -0.631928  0  2.140835  0  0  -0.340765  -0.585362  0  2.156453  0
O  O113  1  0.42748717  0.80670451  0.52767790  1  0  -0.653127  0  1.920169  0  0  -0.604531  0  2.150442  0  0  -0.63182  0  2.14084  0  0  -0.340752  -0.585265  0  2.156459  0
O  O114  1  0.40782273  0.36638764  0.48110948  1  0  -0.634327  0  1.966079  0  0  -0.562091  0  2.190514  0  0  -0.590799  0  2.179871  0  0  -0.320035  -0.542278  0  2.197257  0
O  O115  1  0.59216727  0.63361724  0.51888670  1  0  -0.634227  0  1.966259  0  0  -0.561983  0  2.190685  0  0  -0.590692  0  2.180044  0  0  -0.319973  -0.542179  0  2.197429  0
O  O116  1  0.94249482  0.44030093  0.31244592  1  0  -0.638613  0  1.9662  0  0  -0.587305  0  2.195866  0  0  -0.611778  0  2.188123  0  0  -0.320772  -0.570453  0  2.200873  0
O  O117  1  0.05750448  0.55969321  0.68755431  1  0  -0.638582  0  1.966228  0  0  -0.587249  0  2.195852  0  0  -0.611722  0  2.188115  0  0  -0.32082  -0.570397  0  2.20085  0
O  O118  1  0.14890547  0.46234478  0.24804275  1  0  -0.623371  0  2.003652  0  0  -0.559891  0  2.222908  0  0  -0.586823  0  2.213934  0  0  -0.310815  -0.541014  0  2.228259  0
O  O119  1  0.85109294  0.53765322  0.75195719  1  0  -0.623367  0  2.003667  0  0  -0.559881  0  2.222925  0  0  -0.586812  0  2.213959  0  0  -0.310783  -0.541005  0  2.228273  0
O  O120  1  0.40313934  0.34752361  0.19400056  1  0  -0.853532  0  1.840881  0  0  -0.792703  0  2.033426  0  0  -0.815837  0  1.997789  0  0  -0.603088  -0.776138  0  2.057927  0
O  O121  1  0.59686076  0.65247149  0.80600189  1  0  -0.853479  0  1.840899  0  0  -0.792621  0  2.033451  0  0  -0.815757  0  1.997814  0  0  -0.603048  -0.776053  0  2.057954  0
O  O122  1  0.68826748  0.44807817  0.40312375  1  0  -0.856376  0  1.868318  0  0  -0.794183  0  2.06895  0  0  -0.818438  0  2.035238  0  0  -0.589665  -0.776678  0  2.092022  0
O  O123  1  0.31173011  0.55192370  0.59687944  1  0  -0.856352  0  1.868375  0  0  -0.794149  0  2.069035  0  0  -0.818407  0  2.035323  0  0  -0.589652  -0.776645  0  2.092106  0
