# generated using pymatgen
data_Cu2H12C10S(N2O3)2
_symmetry_space_group_name_H-M   'P 1'
_cell_length_a   9.20671918
_cell_length_b   9.29645182
_cell_length_c   10.77423614
_cell_angle_alpha   84.14179404
_cell_angle_beta   84.56622534
_cell_angle_gamma   83.85305943
_symmetry_Int_Tables_number   1
_chemical_formula_structural   Cu2H12C10S(N2O3)2
_chemical_formula_sum   'Cu4 H24 C20 S2 N8 O12'
_cell_volume   908.79774650
_cell_formula_units_Z   2
loop_
 _symmetry_equiv_pos_site_id
 _symmetry_equiv_pos_as_xyz
  1  'x, y, z'
loop_
 _atom_site_type_symbol
 _atom_site_label
 _atom_site_symmetry_multiplicity
 _atom_site_fract_x
 _atom_site_fract_y
 _atom_site_fract_z
 _atom_site_occupancy
 _atom_site_pbe_cm5_charge
 _atom_site_pbe_ddec_charge
 _atom_site_pbe_ddec_spin_density
 _atom_site_pbe_ddec_sum_bond_order
 _atom_site_pbe_magmom
Cu  Cu0  1  0.34482445  0.14554793  0.94276075  1  0.753709  0.750958  0.000124  2.3072  0.002
Cu  Cu1  1  0.64167087  0.87163966  0.07236473  1  0.720705  0.639307  -0.000121  2.367  -0.002
Cu  Cu2  1  0.06991500  0.92837160  0.66168613  1  0.740716  0.729624  0.000214  2.366394  0.001
Cu  Cu3  1  0.91806781  0.07452880  0.34933013  1  0.739197  0.721552  -0.000219  2.377092  -0.001
H  H4  1  0.57472010  0.27475939  0.04490399  1  0.295894  0.362371  1e-06  0.957319  0.0
H  H5  1  0.51320003  0.68835792  0.94873190  1  0.303318  0.359585  1e-06  0.960805  0.0
H  H6  1  0.51885388  0.43106155  0.99537868  1  0.284485  0.400758  1e-06  0.921245  0.0
H  H7  1  0.67965090  0.64063949  0.95873882  1  0.296758  0.388897  0.0  0.934383  0.0
H  H8  1  0.81262002  0.08346210  0.64327888  1  0.106457  0.121704  -1e-06  1.069558  0.0
H  H9  1  0.16531842  0.91172879  0.36169841  1  0.105119  0.120192  -1e-06  1.074023  0.0
H  H10  1  0.53739165  0.22021901  0.68969990  1  0.119384  0.113955  -0.0  1.012009  0.0
H  H11  1  0.44284086  0.77892543  0.31648281  1  0.116755  0.110661  0.0  1.017522  0.0
H  H12  1  0.17465723  0.44742836  0.54689774  1  0.111335  0.137098  -1e-06  1.016591  0.0
H  H13  1  0.82573446  0.55117262  0.45761523  1  0.111675  0.138115  -1e-06  1.014643  0.0
H  H14  1  0.03030699  0.38004514  0.34876710  1  0.125646  0.12058  0.0  0.988678  0.0
H  H15  1  0.97216491  0.61766191  0.65476134  1  0.125075  0.119947  -1e-06  0.99069  0.0
H  H16  1  0.53378111  0.90019698  0.63664725  1  0.102244  0.168115  -0.0  0.990879  0.0
H  H17  1  0.45456561  0.10251906  0.35291731  1  0.101775  0.166652  -0.0  0.994837  0.0
H  H18  1  0.56321864  0.74423942  0.54722262  1  0.100426  0.157157  -1e-06  1.002613  0.0
H  H19  1  0.41068653  0.26549373  0.43188203  1  0.097042  0.15232  -0.0  1.012211  0.0
H  H20  1  0.63345150  0.73622779  0.69857941  1  0.100644  0.157166  -0.0  1.012174  0.0
H  H21  1  0.37043846  0.26309381  0.27111832  1  0.105855  0.170247  1e-06  0.991699  0.0
H  H22  1  0.32606364  0.47365205  0.74326599  1  0.109271  0.184349  0.0  0.998037  0.0
H  H23  1  0.67850506  0.52104449  0.25785235  1  0.106425  0.178586  0.0  0.99867  0.0
H  H24  1  0.51406890  0.49354364  0.76082962  1  0.10512  0.170156  0.0  1.000834  0.0
H  H25  1  0.49628100  0.50256006  0.22094871  1  0.106559  0.166889  1e-06  0.996305  0.0
H  H26  1  0.44892673  0.51023136  0.60588425  1  0.098331  0.150341  -0.0  1.001659  0.0
H  H27  1  0.53768558  0.49232795  0.38297065  1  0.098388  0.150495  -0.0  1.000149  0.0
C  C28  1  0.86399173  0.84743931  0.87579970  1  0.212538  0.558315  0.0  4.187753  0.0
C  C29  1  0.11505619  0.15118359  0.13047876  1  0.213193  0.55677  1e-06  4.185893  0.0
C  C30  1  0.75484608  0.96613704  0.83210932  1  0.065063  0.004088  0.0  4.041209  0.0
C  C31  1  0.22602515  0.03539138  0.17634326  1  0.072014  0.011144  0.0  4.031945  0.0
C  C32  1  0.73766704  0.06538926  0.72571559  1  -0.108192  -0.206237  -1e-06  3.980981  0.0
C  C33  1  0.24197095  0.93321894  0.28110793  1  -0.110298  -0.210104  -1e-06  3.989499  0.0
C  C34  1  0.59760626  0.13635259  0.74733217  1  0.00829  0.0038  0.0  3.947079  0.0
C  C35  1  0.38275025  0.86420632  0.26014342  1  0.003829  -0.001332  0.0  3.967764  0.0
C  C36  1  0.20707051  0.16019129  0.72859869  1  0.209171  0.547987  0.0  4.209846  0.0
C  C37  1  0.78070705  0.84202813  0.28267780  1  0.205481  0.546551  -1e-06  4.211351  0.0
C  C38  1  0.14665950  0.21348630  0.60940129  1  0.068303  0.022148  1e-06  4.045732  0.0
C  C39  1  0.84484495  0.78772760  0.39969599  1  0.066541  0.01837  -1e-06  4.051399  0.0
C  C40  1  0.13605077  0.34482479  0.53209067  1  -0.107447  -0.212028  -2e-06  3.978413  0.0
C  C41  1  0.86134947  0.65460664  0.47397996  1  -0.105406  -0.207607  -0.0  3.969571  0.0
C  C42  1  0.06274860  0.31333664  0.43202488  1  0.011809  -0.00289  -1e-06  3.951465  0.0
C  C43  1  0.93524157  0.68582312  0.57374928  1  0.010437  -0.004315  -1e-06  3.950216  0.0
C  C44  1  0.54413295  0.78134461  0.64130763  1  -0.238256  -0.494553  -1e-06  3.831544  0.0
C  C45  1  0.44609954  0.22146510  0.34208211  1  -0.237215  -0.489464  0.0  3.818066  0.0
C  C46  1  0.42144105  0.52967453  0.70460030  1  -0.236835  -0.504251  0.0  3.835025  0.0
C  C47  1  0.57887951  0.46780082  0.28764724  1  -0.237504  -0.505204  0.0  3.849741  0.0
S  S48  1  0.37495505  0.72086729  0.71436387  1  0.279585  0.666602  0.0  4.048921  0.0
S  S49  1  0.62430226  0.27519527  0.28723474  1  0.28032  0.667527  -0.0  4.094326  0.0
N  N50  1  0.63026138  0.98158046  0.91035528  1  -0.291414  -0.216578  -9e-06  3.759282  0.0
N  N51  1  0.35190984  0.02410621  0.10005825  1  -0.280808  -0.196325  1.1e-05  3.71876  0.0
N  N52  1  0.53587886  0.08247512  0.86011633  1  -0.270774  -0.154231  1e-05  3.699296  0.0
N  N53  1  0.44613701  0.92216898  0.14927418  1  -0.283216  -0.169573  -9e-06  3.734039  0.0
N  N54  1  0.08261615  0.11280484  0.55626473  1  -0.275643  -0.212516  1.2e-05  3.711965  0.0
N  N55  1  0.90612311  0.88927861  0.45418554  1  -0.274915  -0.208069  -1.4e-05  3.707684  0.0
N  N56  1  0.03270292  0.17201006  0.45056015  1  -0.268458  -0.127533  -1.7e-05  3.690669  0.0
N  N57  1  0.95987160  0.82879919  0.55790694  1  -0.268412  -0.130171  1.5e-05  3.689554  0.0
O  O58  1  0.82390538  0.77435100  0.97999822  1  -0.323362  -0.508676  -8e-06  2.248189  0.0
O  O59  1  0.15058516  0.21791869  0.02345336  1  -0.309252  -0.467082  1.4e-05  2.222179  0.0
O  O60  1  0.98602952  0.81397018  0.81637510  1  -0.303937  -0.475023  1.3e-05  2.322639  0.0
O  O61  1  0.99384608  0.18668227  0.19171917  1  -0.311899  -0.488894  -1.5e-05  2.321776  0.0
O  O62  1  0.48483194  0.33568609  0.02708683  1  -0.595363  -0.784004  3e-06  1.983395  0.0
O  O63  1  0.58640501  0.60470974  0.94378289  1  -0.568237  -0.743445  2e-06  1.996031  0.0
O  O64  1  0.27865694  0.24262583  0.78266470  1  -0.300557  -0.473188  1.3e-05  2.332714  0.0
O  O65  1  0.70749033  0.76133900  0.22848830  1  -0.30846  -0.472419  -1.1e-05  2.334359  0.0
O  O66  1  0.18621252  0.02967651  0.77175666  1  -0.314767  -0.536924  1.8e-05  2.332063  0.0
O  O67  1  0.79946801  0.97322400  0.23980138  1  -0.316108  -0.537478  -1.7e-05  2.34659  0.0
O  O68  1  0.26270385  0.76561193  0.61911801  1  -0.372033  -0.584065  -0.0  2.213348  0.0
O  O69  1  0.72037150  0.23262331  0.39533035  1  -0.37611  -0.586899  -4e-06  2.185347  0.0
