# generated using pymatgen
data_ZnH27C28N5O4
_symmetry_space_group_name_H-M   'P 1'
_cell_length_a   7.76902720
_cell_length_b   17.67056817
_cell_length_c   23.01079049
_cell_angle_alpha   89.99967978
_cell_angle_beta   90.00026837
_cell_angle_gamma   94.71714078
_symmetry_Int_Tables_number   1
_chemical_formula_structural   ZnH27C28N5O4
_chemical_formula_sum   'Zn4 H108 C112 N20 O16'
_cell_volume   3148.29317261
_cell_formula_units_Z   4
loop_
 _symmetry_equiv_pos_site_id
 _symmetry_equiv_pos_as_xyz
  1  'x, y, z'
loop_
 _atom_site_type_symbol
 _atom_site_label
 _atom_site_symmetry_multiplicity
 _atom_site_fract_x
 _atom_site_fract_y
 _atom_site_fract_z
 _atom_site_occupancy
 _atom_site_pbe_bader_charge
 _atom_site_pbe_bader_spin_density
 _atom_site_pbe_cm5_charge
 _atom_site_pbe_ddec_charge
 _atom_site_pbe_ddec_spin_density
 _atom_site_pbe_ddec_sum_bond_order
 _atom_site_pbe_magmom
Zn  Zn0  1  0.54235594  0.08011816  0.22579824  1  1.245008  0  0.681399  0.733013  0  2.413009  0
Zn  Zn1  1  0.45764448  0.91987724  0.72579787  1  1.245009  0  0.681348  0.732982  0  2.413081  0
Zn  Zn2  1  0.04685759  0.58113443  0.27383988  1  1.254427  0  0.674985  0.728856  0  2.368914  0
Zn  Zn3  1  0.95313442  0.41886587  0.77383768  1  1.254204  0  0.674989  0.728812  0  2.368977  0
H  H4  1  0.61958934  0.99371102  0.33212297  1  0.113354  0  0.121952  0.100972  0  0.989652  0
H  H5  1  0.38041040  0.00628596  0.83212077  1  0.113414  0  0.121924  0.100963  0  0.989595  0
H  H6  1  0.86825930  0.98377300  0.40136201  1  0.101198  0  0.114876  0.125289  0  0.994813  0
H  H7  1  0.13174527  0.01622915  0.90135807  1  0.101257  0  0.114881  0.125231  0  0.994928  0
H  H8  1  0.16086052  0.15163512  0.29626298  1  0.178343  0  0.113373  0.131957  0  1.033347  0
H  H9  1  0.83913763  0.84836268  0.79626441  1  0.178334  0  0.113359  0.131996  0  1.033299  0
H  H10  1  0.90466704  0.15334689  0.23195896  1  0.102654  0  0.123723  0.092496  0  0.975435  0
H  H11  1  0.09533075  0.84664793  0.73196181  1  0.102696  0  0.123757  0.092493  0  0.975473  0
H  H12  1  0.59571382  0.21294783  0.38641960  1  0.069583  0  0.105471  0.115877  0  1.041455  0
H  H13  1  0.40429368  0.78705667  0.88642015  1  0.069504  0  0.105424  0.115844  0  1.041658  0
H  H14  1  0.89860525  0.26166593  0.40372336  1  0.050194  0  0.104044  0.065277  0  1.005485  0
H  H15  1  0.10141190  0.73833492  0.90372190  1  0.050162  0  0.104021  0.065289  0  1.005561  0
H  H16  1  0.96727351  0.09746386  0.52777818  1  0.077185  0  0.109413  0.080861  0  0.983306  0
H  H17  1  0.03272478  0.90252889  0.02778026  1  0.076991  0  0.10941  0.080861  0  0.983301  0
H  H18  1  0.67164479  0.03843839  0.51388154  1  0.057508  0  0.104192  0.112306  0  1.015068  0
H  H19  1  0.32835173  0.96155846  0.01388168  1  0.057486  0  0.104233  0.112484  0  1.015062  0
H  H20  1  0.42566944  0.12054491  0.56832780  1  0.126574  0  0.115323  0.126303  0  0.999882  0
H  H21  1  0.57432601  0.87946013  0.06832477  1  0.126622  0  0.115326  0.126281  0  0.999991  0
H  H22  1  0.46526689  0.06815669  0.66804333  1  0.097761  0  0.118172  0.080659  0  1.026112  0
H  H23  1  0.53474506  0.93184693  0.16804219  1  0.097744  0  0.118171  0.080618  0  1.026245  0
H  H24  1  0.29417909  0.85075643  0.61591814  1  0.127932  0  0.125031  0.097553  0  0.975811  0
H  H25  1  0.70584948  0.14924450  0.11591804  1  0.127816  0  0.124993  0.097399  0  0.976016  0
H  H26  1  0.24306191  0.89453351  0.51373116  1  0.096284  0  0.117276  0.130188  0  0.976911  0
H  H27  1  0.75695725  0.10547162  0.01373133  1  0.096335  0  0.117271  0.130162  0  0.976879  0
H  H28  1  0.25368800  0.38972641  0.25041536  1  0.002296  0  0.086101  0.116561  0  1.02953  0
H  H29  1  0.74630302  0.61027121  0.75041592  1  0.002257  0  0.086092  0.116517  0  1.029635  0
H  H30  1  0.17951756  0.29763202  0.22658928  1  0.020658  0  0.087407  0.122348  0  0.994791  0
H  H31  1  0.82048302  0.70236394  0.72659044  1  0.020702  0  0.087421  0.122361  0  0.994821  0
H  H32  1  0.24038796  0.31193844  0.30052201  1  0.004372  0  0.085132  0.11993  0  1.023503  0
H  H33  1  0.75961496  0.68805756  0.80052139  1  0.004235  0  0.085132  0.119914  0  1.023582  0
H  H34  1  0.37745476  0.35738778  0.15627057  1  0.043785  0  0.084252  0.083944  0  0.995764  0
H  H35  1  0.62254637  0.64260921  0.65627340  1  0.043298  0  0.084238  0.08395  0  0.995718  0
H  H36  1  0.52898310  0.28877509  0.14895340  1  0.060113  0  0.086551  0.093034  0  1.017616  0
H  H37  1  0.47102349  0.71122359  0.64895047  1  0.060207  0  0.086546  0.093029  0  1.017588  0
H  H38  1  0.76775773  0.38119962  0.17081053  1  0.020946  0  0.085495  0.085303  0  1.002833  0
H  H39  1  0.23224057  0.61880072  0.67081023  1  0.020922  0  0.085492  0.085324  0  1.002804  0
H  H40  1  0.62484844  0.44375198  0.14228453  1  0.04059  0  0.081234  0.079849  0  1.052957  0
H  H41  1  0.37514880  0.55624571  0.64228734  1  0.040544  0  0.081246  0.079887  0  1.052941  0
H  H42  1  0.50556429  0.46363186  0.24125709  1  0.010623  0  0.097078  0.085836  0  0.995897  0
H  H43  1  0.49442335  0.53636302  0.74126061  1  0.010627  0  0.097047  0.085825  0  0.995949  0
H  H44  1  0.81410726  0.30529510  0.23800964  1  0.015743  0  0.087516  0.123109  0  1.019522  0
H  H45  1  0.18589444  0.69470475  0.73801024  1  0.015747  0  0.087533  0.123141  0  1.019505  0
H  H46  1  0.86775758  0.35856822  0.30154237  1  0.000333  0  0.082114  0.112788  0  1.047221  0
H  H47  1  0.13224761  0.64143174  0.80154355  1  0.000271  0  0.082114  0.112802  0  1.047231  0
H  H48  1  0.74548140  0.26969611  0.30687561  1  -0.007262  0  0.084229  0.114379  0  1.044193  0
H  H49  1  0.25451987  0.73030330  0.80687530  1  -0.00725  0  0.084246  0.114399  0  1.044189  0
H  H50  1  0.43153490  0.41585577  0.33814603  1  0.033436  0  0.08149  0.114068  0  1.037941  0
H  H51  1  0.56846491  0.58414117  0.83814728  1  0.033346  0  0.081476  0.114052  0  1.037946  0
H  H52  1  0.50417613  0.32830131  0.36256525  1  0.029302  0  0.083744  0.117137  0  1.030387  0
H  H53  1  0.49582569  0.67169714  0.86256601  1  0.029367  0  0.083746  0.11716  0  1.030373  0
H  H54  1  0.64710785  0.41263072  0.36128187  1  0.002981  0  0.085158  0.123836  0  1.010142  0
H  H55  1  0.35289410  0.58736832  0.86128364  1  0.002974  0  0.085162  0.123826  0  1.010131  0
H  H56  1  0.70718334  0.79031797  0.28294351  1  0.009767  0  0.086654  0.119131  0  1.002129  0
H  H57  1  0.29280806  0.20968455  0.78294724  1  0.009762  0  0.086633  0.119118  0  1.002184  0
H  H58  1  0.86804295  0.80113809  0.33784873  1  0.033195  0  0.090716  0.130122  0  1.004209  0
H  H59  1  0.13195270  0.19886288  0.83785181  1  0.033538  0  0.09074  0.130136  0  1.004163  0
H  H60  1  0.80811527  0.88170729  0.29815669  1  0.012475  0  0.083629  0.114597  0  1.041291  0
H  H61  1  0.19188187  0.11829677  0.79815935  1  0.012217  0  0.083585  0.114515  0  1.041386  0
H  H62  1  0.95274985  0.80305534  0.15373691  1  0.030203  0  0.084258  0.0793  0  1.036735  0
H  H63  1  0.04725137  0.19694736  0.65373639  1  0.03014  0  0.084302  0.079361  0  1.036777  0
H  H64  1  0.76701166  0.83368283  0.18638094  1  -0.020434  0  0.083516  0.081536  0  1.002555  0
H  H65  1  0.23298567  0.16632311  0.68638390  1  -0.020396  0  0.083568  0.081584  0  1.002495  0
H  H66  1  0.89138327  0.96212032  0.18015716  1  0.000986  0  0.080909  0.077616  0  1.032784  0
H  H67  1  0.10862768  0.03788380  0.68015830  1  0.001107  0  0.080907  0.077628  0  1.032728  0
H  H68  1  0.06737796  0.92847926  0.14389967  1  0.021913  0  0.084848  0.083134  0  1.004142  0
H  H69  1  0.93263070  0.07152285  0.64390025  1  0.021951  0  0.08486  0.083154  0  1.004145  0
H  H70  1  0.02422191  0.96062395  0.27164442  1  0.037424  0  0.09634  0.079541  0  1.032656  0
H  H71  1  0.97578462  0.03937790  0.77164694  1  0.037357  0  0.096333  0.079507  0  1.032657  0
H  H72  1  0.26082595  0.82924540  0.17632396  1  0.020413  0  0.085583  0.119725  0  1.017727  0
H  H73  1  0.73916415  0.17075273  0.67632597  1  0.020549  0  0.085629  0.119768  0  1.017681  0
H  H74  1  0.41144034  0.85952723  0.23171759  1  0.042704  0  0.083458  0.116188  0  1.039455  0
H  H75  1  0.58856117  0.14046698  0.73172123  1  0.042946  0  0.083427  0.11616  0  1.0394  0
H  H76  1  0.30608453  0.76674505  0.23374111  1  -0.003767  0  0.082485  0.111976  0  1.050331  0
H  H77  1  0.69390215  0.23325159  0.73374277  1  -0.00375  0  0.082513  0.112006  0  1.050314  0
H  H78  1  0.32509856  0.89278726  0.32833734  1  0.041405  0  0.081717  0.124104  0  1.025831  0
H  H79  1  0.67490029  0.10720633  0.82833778  1  0.041253  0  0.081745  0.124131  0  1.025741  0
H  H80  1  0.10786331  0.88476681  0.35202911  1  -0.00511  0  0.080781  0.114908  0  1.028788  0
H  H81  1  0.89214052  0.11522998  0.85203204  1  -0.005207  0  0.080791  0.114964  0  1.028772  0
H  H82  1  0.21525206  0.80092028  0.34000980  1  0.059851  0  0.08042  0.118011  0  1.029065  0
H  H83  1  0.78474735  0.19907494  0.84001176  1  0.05994  0  0.080399  0.117962  0  1.029135  0
H  H84  1  0.18188348  0.64518582  0.39030955  1  0.139452  0  0.125469  0.099621  0  0.978555  0
H  H85  1  0.81812153  0.35481355  0.89031394  1  0.139503  0  0.125486  0.099677  0  0.978563  0
H  H86  1  0.23266261  0.59215069  0.48999772  1  0.114252  0  0.117026  0.129068  0  0.976778  0
H  H87  1  0.76734378  0.40784857  0.98999876  1  0.114233  0  0.117039  0.129079  0  0.976795  0
H  H88  1  0.10314684  0.36861446  0.41925390  1  0.066862  0  0.11703  0.128957  0  0.986692  0
H  H89  1  0.89684868  0.63138654  0.91925418  1  0.066845  0  0.116988  0.128956  0  0.986667  0
H  H90  1  0.06729789  0.43060875  0.32222317  1  0.111987  0  0.11799  0.082019  0  1.04139  0
H  H91  1  0.93269830  0.56939004  0.82222160  1  0.111845  0  0.117973  0.081999  0  1.041412  0
H  H92  1  0.63872572  0.49269134  0.59009217  1  0.112109  0  0.113421  0.121342  0  1.000119  0
H  H93  1  0.36126401  0.50731021  0.09009432  1  0.1122  0  0.113418  0.121396  0  1.000128  0
H  H94  1  0.87851842  0.49206386  0.66386297  1  0.138605  0  0.120767  0.10415  0  1.000999  0
H  H95  1  0.12147452  0.50793602  0.16386647  1  0.138473  0  0.120779  0.104142  0  1.001013  0
H  H96  1  0.57824588  0.34848682  0.77234345  1  0.094783  0  0.122505  0.090718  0  0.974918  0
H  H97  1  0.42175641  0.65150824  0.27234116  1  0.094807  0  0.122452  0.090644  0  0.975145  0
H  H98  1  0.33073480  0.34134471  0.70375154  1  0.130901  0  0.111617  0.127787  0  1.030927  0
H  H99  1  0.66926647  0.65865538  0.20375222  1  0.130859  0  0.111609  0.127788  0  1.030917  0
H  H100  1  0.90410214  0.27331173  0.61104825  1  0.090036  0  0.103295  0.107914  0  1.048952  0
H  H101  1  0.09588699  0.72669139  0.11104772  1  0.089936  0  0.103261  0.107851  0  1.049003  0
H  H102  1  0.60133422  0.22512559  0.59522423  1  0.053753  0  0.101951  0.0617  0  1.012797  0
H  H103  1  0.39865829  0.77487646  0.09522484  1  0.053701  0  0.101956  0.061681  0  1.012772  0
H  H104  1  0.53635445  0.38182966  0.46537736  1  0.074272  0  0.110352  0.082154  0  0.991503  0
H  H105  1  0.46363321  0.61817340  0.96538004  1  0.074437  0  0.110401  0.08219  0  0.991644  0
H  H106  1  0.83446947  0.43893398  0.47617893  1  0.084138  0  0.102166  0.108648  0  1.023864  0
H  H107  1  0.16551818  0.56106844  0.97618051  1  0.084409  0  0.1022  0.108757  0  1.023841  0
H  H108  1  0.37655416  0.13671976  0.35611120  1  0.570274  0  0.315044  0.300348  0  0.988059  0
H  H109  1  0.62344770  0.86328443  0.85611221  1  0.569959  0  0.315022  0.300367  0  0.98795  0
H  H110  1  0.12495787  0.34582338  0.63729863  1  0.559169  0  0.315411  0.301366  0  0.994065  0
H  H111  1  0.87503031  0.65417957  0.13729618  1  0.558955  0  0.315428  0.301368  0  0.994139  0
C  C112  1  0.74282772  0.02704346  0.32624531  1  0.436866  0  0.044072  0.081417  0  3.960976  0
C  C113  1  0.25717053  0.97295301  0.82624613  1  0.436892  0  0.044098  0.081391  0  3.960879  0
C  C114  1  0.87979861  0.02162011  0.36403900  1  0.036363  0  -0.075303  -0.159549  0  3.95308  0
C  C115  1  0.12020078  0.97838406  0.86403740  1  0.035958  0  -0.075329  -0.159466  0  3.953272  0
C  C116  1  0.03534785  0.06649615  0.35437233  1  -0.010401  0  0.022859  0.071396  0  3.987662  0
C  C117  1  0.96465426  0.93350919  0.85436967  1  -0.009721  0  0.022793  0.071384  0  3.987579  0
C  C118  1  0.04410940  0.11544938  0.30611704  1  -0.087867  0  -0.076466  -0.15513  0  3.899976  0
C  C119  1  0.95589214  0.88455116  0.80611676  1  -0.088217  0  -0.076473  -0.155168  0  3.899906  0
C  C120  1  0.90149176  0.11671600  0.27011679  1  0.49778  0  0.052923  0.103938  0  3.944671  0
C  C121  1  0.09850735  0.88328197  0.77011644  1  0.497649  0  0.052905  0.103945  0  3.94472  0
C  C122  1  0.17667544  0.06218230  0.39494342  1  0.999674  0  0.217853  0.28211  0  4.02161  0
C  C123  1  0.82332433  0.93782166  0.89494312  1  0.999525  0  0.217788  0.281906  0  4.021711  0
C  C124  1  0.42597122  0.08997100  0.44041309  1  0.430289  0  0.103547  0.08762  0  3.932218  0
C  C125  1  0.57403824  0.91003311  0.94041382  1  0.430511  0  0.103635  0.087708  0  3.932127  0
C  C126  1  0.60299495  0.12163437  0.44967317  1  -0.057973  0  0.002866  0.081593  0  4.046616  0
C  C127  1  0.39700951  0.87836462  0.94967375  1  -0.058349  0  0.00295  0.081745  0  4.046585  0
C  C128  1  0.67289273  0.18508069  0.41824523  1  0.01346  0  -0.08952  -0.17442  0  3.924614  0
C  C129  1  0.32712617  0.81492118  0.91824423  1  0.013489  0  -0.089555  -0.174375  0  3.924538  0
C  C130  1  0.84333407  0.21267176  0.42838837  1  0.498993  0  0.036635  0.092783  0  4.024596  0
C  C131  1  0.15667900  0.78732157  0.92839070  1  0.499499  0  0.036656  0.092669  0  4.024673  0
C  C132  1  0.88111539  0.12230556  0.49692036  1  0.509574  0  0.037907  0.095028  0  4.021194  0
C  C133  1  0.11887785  0.87768698  0.99691963  1  0.510007  0  0.037915  0.095048  0  4.020918  0
C  C134  1  0.71372116  0.08931940  0.48939209  1  -0.008126  0  -0.091757  -0.190769  0  3.969926  0
C  C135  1  0.28629163  0.91067979  0.98939539  1  -0.007872  0  -0.091899  -0.191188  0  3.969757  0
C  C136  1  0.31523687  0.03896380  0.47322642  1  0.464287  0  0.091941  0.074076  0  4.025285  0
C  C137  1  0.68477070  0.96104126  0.97322536  1  0.463839  0  0.091894  0.073975  0  4.025359  0
C  C138  1  0.33691297  0.01082769  0.53232225  1  0.003897  0  0.024348  0.120489  0  3.99454  0
C  C139  1  0.66309945  0.98917512  0.03232237  1  0.003971  0  0.024368  0.120502  0  3.994496  0
C  C140  1  0.39691552  0.06023511  0.57706989  1  -0.073989  0  -0.074983  -0.169485  0  3.928162  0
C  C141  1  0.60309459  0.93976629  0.07706969  1  -0.073804  0  -0.075019  -0.169358  0  3.92818  0
C  C142  1  0.41778279  0.03160234  0.63237315  1  0.481413  0  0.051161  0.10077  0  3.955594  0
C  C143  1  0.58223457  0.96839918  0.13237280  1  0.480435  0  0.05112  0.100594  0  3.955559  0
C  C144  1  0.31981506  0.91014498  0.60333828  1  0.431699  0  0.056839  0.102663  0  3.935524  0
C  C145  1  0.68021135  0.08985832  0.10333709  1  0.431562  0  0.056697  0.102546  0  3.935475  0
C  C146  1  0.29347027  0.93448143  0.54683602  1  0.054837  0  -0.074377  -0.165806  0  3.921571  0
C  C147  1  0.70654860  0.06552063  0.04683541  1  0.054752  0  -0.074344  -0.165696  0  3.921377  0
C  C148  1  0.47469944  0.22815840  0.25083786  1  1.537896  0  0.21785  0.592489  0  4.097939  0
C  C149  1  0.52530144  0.77183739  0.75083433  1  1.536464  0  0.218021  0.592763  0  4.097568  0
C  C150  1  0.45728254  0.31272189  0.23942085  1  0.031585  0  -0.009227  0.017557  0  3.679961  0
C  C151  1  0.54271761  0.68727683  0.73942118  1  0.0319  0  -0.009195  0.01755  0  3.679978  0
C  C152  1  0.27192279  0.32913498  0.25574431  1  -0.006361  0  -0.244192  -0.401738  0  3.939192  0
C  C153  1  0.72808086  0.67086132  0.75574501  1  -0.006269  0  -0.244192  -0.401676  0  3.939282  0
C  C154  1  0.49518560  0.33701722  0.17521660  1  -0.076559  0  -0.16974  -0.188665  0  3.871782  0
C  C155  1  0.50480962  0.66298085  0.67521654  1  -0.076179  0  -0.169662  -0.188579  0  3.871529  0
C  C156  1  0.63939973  0.40187526  0.17658897  1  -0.033124  0  -0.176243  -0.168143  0  3.942927  0
C  C157  1  0.36059708  0.59812392  0.67658940  1  -0.033019  0  -0.176279  -0.168247  0  3.942855  0
C  C158  1  0.62521173  0.43454693  0.23772630  1  0.022313  0  -0.089243  -0.159255  0  3.814332  0
C  C159  1  0.37478469  0.56545241  0.73772732  1  0.022376  0  -0.089243  -0.159303  0  3.814397  0
C  C160  1  0.59853211  0.36210971  0.27661427  1  0.056871  0  -0.003308  0.199779  0  3.684269  0
C  C161  1  0.40146722  0.63788878  0.77661633  1  0.057027  0  -0.003387  0.1998  0  3.684148  0
C  C162  1  0.76594480  0.32152008  0.28062696  1  -0.008743  0  -0.249826  -0.42229  0  3.902686  0
C  C163  1  0.23405614  0.67847950  0.78062727  1  -0.008689  0  -0.249851  -0.422376  0  3.902717  0
C  C164  1  0.54110390  0.38051563  0.33813663  1  -0.058759  0  -0.250164  -0.41953  0  3.923793  0
C  C165  1  0.45889905  0.61948354  0.83813756  1  -0.058794  0  -0.250118  -0.419506  0  3.923755  0
C  C166  1  0.76905846  0.49213110  0.25731927  1  1.521883  0  0.191539  0.586955  0  4.151293  0
C  C167  1  0.23093535  0.50786701  0.75732205  1  1.52187  0  0.191479  0.586723  0  4.15137  0
C  C168  1  0.98959096  0.72313808  0.24785947  1  1.543411  0  0.213178  0.580706  0  4.093146  0
C  C169  1  0.01039830  0.27686299  0.74786116  1  1.543471  0  0.213193  0.580851  0  4.093251  0
C  C170  1  0.96802442  0.80844372  0.24853504  1  0.004301  0  -0.011838  0.015141  0  3.715639  0
C  C171  1  0.03196857  0.19155673  0.74853626  1  0.004284  0  -0.011881  0.014793  0  3.716058  0
C  C172  1  0.83059705  0.82132153  0.29502222  1  -0.022683  0  -0.24113  -0.390368  0  3.90969  0
C  C173  1  0.16939964  0.17868085  0.79502502  1  -0.02305  0  -0.241094  -0.390202  0  3.90976  0
C  C174  1  0.90880647  0.83828012  0.18910759  1  -0.006389  0  -0.170675  -0.192146  0  3.895203  0
C  C175  1  0.09118533  0.16172416  0.68911034  1  -0.006245  0  -0.170713  -0.192134  0  3.89543  0
C  C176  1  0.98837129  0.92074136  0.18333801  1  0.011011  0  -0.172959  -0.159287  0  3.916591  0
C  C177  1  0.01163515  0.07925994  0.68333794  1  0.010831  0  -0.173016  -0.159388  0  3.916607  0
C  C178  1  0.10213221  0.93604232  0.23754227  1  -0.009701  0  -0.089785  -0.164117  0  3.79577  0
C  C179  1  0.89787205  0.06395751  0.73754282  1  -0.009525  0  -0.089741  -0.16404  0  3.795559  0
C  C180  1  0.14531293  0.85684515  0.26028181  1  0.04961  0  -0.006296  0.2069  0  3.685573  0
C  C181  1  0.85468492  0.14315347  0.76028152  1  0.049688  0  -0.006302  0.206979  0  3.685596  0
C  C182  1  0.28858053  0.82616499  0.22307553  1  -0.070201  0  -0.249051  -0.422109  0  3.892758  0
C  C183  1  0.71141515  0.17383218  0.72307835  1  -0.070601  0  -0.249111  -0.422189  0  3.892665  0
C  C184  1  0.20122488  0.85867626  0.32408887  1  -0.069549  0  -0.254043  -0.421081  0  3.915444  0
C  C185  1  0.79877420  0.14131850  0.82409024  1  -0.069307  0  -0.254068  -0.421138  0  3.915413  0
C  C186  1  0.24976083  0.99648873  0.22699634  1  1.533965  0  0.192509  0.58168  0  4.156256  0
C  C187  1  0.75024921  0.00349858  0.72699344  1  1.534157  0  0.192501  0.581627  0  4.156646  0
C  C188  1  0.16821986  0.58426336  0.39886175  1  0.486932  0  0.056135  0.100488  0  3.938458  0
C  C189  1  0.83178468  0.41573880  0.89886415  1  0.486908  0  0.056057  0.100355  0  3.938414  0
C  C190  1  0.19408887  0.55474073  0.45384734  1  -0.049916  0  -0.074126  -0.165147  0  3.924139  0
C  C191  1  0.80591592  0.44525936  0.95384871  1  -0.049975  0  -0.07409  -0.16515  0  3.924113  0
C  C192  1  0.16570417  0.47614346  0.46290932  1  -0.034081  0  0.024543  0.122398  0  3.993027  0
C  C193  1  0.83429189  0.52385724  0.96290996  1  -0.033988  0  0.024578  0.122512  0  3.992938  0
C  C194  1  0.12041296  0.43015708  0.41467506  1  0.071089  0  -0.074309  -0.170074  0  3.934754  0
C  C195  1  0.87958122  0.56984397  0.91467297  1  0.071069  0  -0.074274  -0.170106  0  3.934676  0
C  C196  1  0.10084050  0.46396082  0.36101710  1  0.414882  0  0.050425  0.093325  0  3.954321  0
C  C197  1  0.89915516  0.53603886  0.86101779  1  0.41499  0  0.050449  0.09332  0  3.954503  0
C  C198  1  0.18903184  0.44325014  0.52047762  1  0.512526  0  0.091761  0.075249  0  4.023793  0
C  C199  1  0.81095947  0.55675128  0.02047723  1  0.512599  0  0.091761  0.075193  0  4.023914  0
C  C200  1  0.32765642  0.41813695  0.59835994  1  0.963674  0  0.217634  0.279216  0  4.033319  0
C  C201  1  0.67233415  0.58186226  0.09835879  1  0.964047  0  0.217719  0.279427  0  4.033177  0
C  C202  1  0.46555766  0.41659485  0.64067282  1  -0.057385  0  0.021044  0.068151  0  3.987708  0
C  C203  1  0.53443656  0.58340631  0.14067404  1  -0.057438  0  0.020983  0.068151  0  3.987786  0
C  C204  1  0.62250494  0.45989415  0.63000133  1  0.036614  0  -0.074446  -0.149764  0  3.942997  0
C  C205  1  0.37749243  0.54010476  0.13000336  1  0.036412  0  -0.07439  -0.149827  0  3.943069  0
C  C206  1  0.75441562  0.45969119  0.67023908  1  0.451526  0  0.043473  0.084786  0  3.940811  0
C  C207  1  0.24557369  0.54030926  0.17024047  1  0.451744  0  0.043444  0.084802  0  3.940821  0
C  C208  1  0.58802080  0.37855873  0.73094586  1  0.498871  0  0.05112  0.098356  0  3.966705  0
C  C209  1  0.41198425  0.62143943  0.23094629  1  0.498708  0  0.051111  0.098385  0  3.966647  0
C  C210  1  0.45016814  0.37461820  0.69247642  1  -0.03116  0  -0.079156  -0.155102  0  3.907298  0
C  C211  1  0.54983299  0.62538197  0.19247488  1  -0.031422  0  -0.079154  -0.15516  0  3.907299  0
C  C212  1  0.07857648  0.39129641  0.55246134  1  0.38431  0  0.101341  0.083422  0  3.935203  0
C  C213  1  0.92141421  0.60870594  0.05246090  1  0.384114  0  0.10132  0.083561  0  3.935301  0
C  C214  1  0.90112616  0.35996123  0.54377136  1  -0.010882  0  0.005616  0.086788  0  4.041209  0
C  C215  1  0.09886284  0.64004519  0.04377077  1  -0.011072  0  0.005535  0.086468  0  4.041528  0
C  C216  1  0.82901588  0.29906589  0.57757036  1  -0.060753  0  -0.090458  -0.171936  0  3.933406  0
C  C217  1  0.17096698  0.70093980  0.07756832  1  -0.060637  0  -0.090345  -0.17164  0  3.9331  0
C  C218  1  0.65806345  0.27180923  0.56843804  1  0.479758  0  0.034767  0.08774  0  4.037047  0
C  C219  1  0.34192943  0.72819584  0.06843355  1  0.479914  0  0.034836  0.087754  0  4.036952  0
C  C220  1  0.62209520  0.35811996  0.49685836  1  0.54264  0  0.038949  0.096073  0  4.016444  0
C  C221  1  0.37789729  0.64187999  0.99686037  1  0.54279  0  0.038899  0.096052  0  4.01653  0
C  C222  1  0.79095758  0.39018335  0.50281955  1  -0.038832  0  -0.092029  -0.191105  0  3.962316  0
C  C223  1  0.20903008  0.60981994  0.00282101  1  -0.038795  0  -0.092007  -0.191137  0  3.962446  0
N  N224  1  0.75278928  0.07359522  0.27961057  1  -1.265963  0  -0.337518  -0.247507  0  3.588264  0
N  N225  1  0.24721009  0.92640324  0.77960984  1  -1.265974  0  -0.337455  -0.247454  0  3.588036  0
N  N226  1  0.33335852  0.10340284  0.39116914  1  -1.281904  0  -0.359548  -0.273888  0  3.5743  0
N  N227  1  0.66664734  0.89659994  0.89117007  1  -1.28132  0  -0.359506  -0.273811  0  3.574277  0
N  N228  1  0.16458551  0.02138324  0.44395615  1  -1.162856  0  -0.329911  -0.390173  0  3.241565  0
N  N229  1  0.83542386  0.97862027  0.94395527  1  -1.162828  0  -0.329913  -0.390126  0  3.241534  0
N  N230  1  0.94796799  0.18332976  0.46729939  1  -1.191894  0  -0.337226  -0.288886  0  3.310319  0
N  N231  1  0.05204342  0.81666504  0.96730012  1  -1.192392  0  -0.337126  -0.288672  0  3.310724  0
N  N232  1  0.38239348  0.95763933  0.64548541  1  -1.249216  0  -0.329758  -0.229487  0  3.57022  0
N  N233  1  0.61762845  0.04236432  0.14548693  1  -1.248168  0  -0.329567  -0.229158  0  3.569678  0
N  N234  1  0.12126306  0.53966258  0.35315760  1  -1.264017  0  -0.327792  -0.22268  0  3.564147  0
N  N235  1  0.87873278  0.46033829  0.85315771  1  -1.263941  0  -0.327785  -0.2226  0  3.564063  0
N  N236  1  0.33992120  0.45995808  0.54980264  1  -1.147278  0  -0.33165  -0.394168  0  3.244519  0
N  N237  1  0.66007320  0.54003856  0.04980252  1  -1.147589  0  -0.331743  -0.394309  0  3.244522  0
N  N238  1  0.17153089  0.37677558  0.60144976  1  -1.262551  0  -0.363661  -0.274722  0  3.579286  0
N  N239  1  0.82845600  0.62322421  0.10144912  1  -1.262147  0  -0.363679  -0.274872  0  3.579668  0
N  N240  1  0.73807839  0.41984949  0.72036347  1  -1.247413  0  -0.336038  -0.24529  0  3.583039  0
N  N241  1  0.26191597  0.58014772  0.22036470  1  -1.247501  0  -0.335956  -0.245186  0  3.582877  0
N  N242  1  0.55366695  0.29932625  0.52858659  1  -1.183248  0  -0.337784  -0.289371  0  3.317591  0
N  N243  1  0.44632259  0.70067799  0.02858761  1  -1.183689  0  -0.337902  -0.289467  0  3.317727  0
O  O244  1  0.54097606  0.18939326  0.21036264  1  -1.169983  0  -0.327246  -0.543227  0  2.357412  0
O  O245  1  0.45902988  0.81060445  0.71036405  1  -1.170312  0  -0.327279  -0.54325  0  2.357756  0
O  O246  1  0.42521874  0.20030035  0.29917781  1  -1.219018  0  -0.325354  -0.587374  0  2.240249  0
O  O247  1  0.57478955  0.79970187  0.79918206  1  -1.217694  0  -0.325509  -0.587728  0  2.239661  0
O  O248  1  0.91974126  0.49018159  0.23318420  1  -1.17926  0  -0.339835  -0.564425  0  2.255254  0
O  O249  1  0.08025511  0.50981779  0.73318238  1  -1.179222  0  -0.339794  -0.564311  0  2.255168  0
O  O250  1  0.74228944  0.54046453  0.29581195  1  -1.17711  0  -0.34076  -0.56521  0  2.0884  0
O  O251  1  0.25769757  0.45953511  0.79581542  1  -1.17721  0  -0.340701  -0.565038  0  2.08844  0
O  O252  1  0.95234994  0.68324374  0.20320048  1  -1.214169  0  -0.317023  -0.574658  0  2.276919  0
O  O253  1  0.04765317  0.31675861  0.70320423  1  -1.214138  0  -0.317136  -0.574811  0  2.276887  0
O  O254  1  0.04354876  0.69270493  0.29457990  1  -1.166565  0  -0.324256  -0.538002  0  2.268717  0
O  O255  1  0.95642539  0.30729487  0.79457950  1  -1.166756  0  -0.324136  -0.537871  0  2.26894  0
O  O256  1  0.23903318  0.04423701  0.18721227  1  -1.172947  0  -0.336612  -0.554577  0  2.092322  0
O  O257  1  0.76098748  0.95575385  0.68722136  1  -1.173385  0  -0.336654  -0.554532  0  2.093008  0
O  O258  1  0.38454302  0.99788392  0.26115303  1  -1.173184  0  -0.344281  -0.569824  0  2.282538  0
O  O259  1  0.61545883  0.00211521  0.76115035  1  -1.172931  0  -0.344198  -0.569741  0  2.282428  0
