# generated using pymatgen
data_FeCuH30C19N11
_symmetry_space_group_name_H-M   'P 1'
_cell_length_a   8.19335687
_cell_length_b   8.85754749
_cell_length_c   9.78221606
_cell_angle_alpha   111.96268295
_cell_angle_beta   94.79989978
_cell_angle_gamma   117.82629301
_symmetry_Int_Tables_number   1
_chemical_formula_structural   FeCuH30C19N11
_chemical_formula_sum   'Fe1 Cu1 H30 C19 N11'
_cell_volume   552.65226483
_cell_formula_units_Z   1
loop_
 _symmetry_equiv_pos_site_id
 _symmetry_equiv_pos_as_xyz
  1  'x, y, z'
loop_
 _atom_site_type_symbol
 _atom_site_label
 _atom_site_symmetry_multiplicity
 _atom_site_fract_x
 _atom_site_fract_y
 _atom_site_fract_z
 _atom_site_occupancy
 _atom_site_hle17_ddec_charge
 _atom_site_hle17_ddec_spin_density
 _atom_site_hle17_ddec_sum_bond_order
 _atom_site_hle17_magmom
 _atom_site_hse06_10hf_ddec_charge
 _atom_site_hse06_10hf_ddec_spin_density
 _atom_site_hse06_10hf_ddec_sum_bond_order
 _atom_site_hse06_10hf_magmom
 _atom_site_hse06_ddec_charge
 _atom_site_hse06_ddec_spin_density
 _atom_site_hse06_ddec_sum_bond_order
 _atom_site_hse06_magmom
 _atom_site_pbe_cm5_charge
 _atom_site_pbe_ddec_charge
 _atom_site_pbe_ddec_spin_density
 _atom_site_pbe_ddec_sum_bond_order
 _atom_site_pbe_magmom
Fe  Fe0  1  0.00870479  0.25399365  0.24864296  1  0.186108  -1.308837  4.320887  -1.096  0.263935  -1.127459  4.691997  -0.978  0.293674  -1.180138  4.648709  -1.029  0.520037  0.167761  -0.71292  4.812997  -0.614
Cu  Cu1  1  0.00581090  0.75336795  0.75425743  1  0.685451  0.726473  1.958674  0.466  0.640798  0.79018  2.330154  0.565  0.708623  0.870233  2.286055  0.642  0.790357  0.635935  0.468876  2.33979  0.322
H  H2  1  0.72747026  0.50061978  0.51265558  1  0.244441  -0.000366  0.90837  -0.002  0.239782  0.000304  0.963204  0.0  0.243619  4.7e-05  0.963423  -0.001  0.301976  0.24459  0.000322  0.955  0.0
H  H3  1  0.96102593  0.57804708  0.91294462  1  0.266259  -0.000476  0.889095  -0.001  0.257352  0.000123  0.948403  0.0  0.263331  -0.000111  0.944384  -0.001  0.302379  0.259592  0.000283  0.945272  0.0
H  H4  1  0.28623883  0.00061930  0.99596025  1  0.249019  -0.000379  0.899256  -0.002  0.243645  0.000309  0.953973  0.0  0.247108  7.1e-05  0.954916  -0.001  0.304657  0.249102  0.000334  0.944949  0.0
H  H5  1  0.05618492  0.92037278  0.59097360  1  0.262611  -0.000414  0.886014  -0.001  0.2547  0.000233  0.943445  0.0  0.260147  -3e-05  0.940246  -0.001  0.303769  0.257699  0.000322  0.939147  0.0
H  H6  1  0.66847590  0.33828050  0.23495577  1  0.122075  0.000133  0.953722  0.0  0.128596  0.000164  1.015892  0.0  0.130858  0.00014  1.014375  0.0  0.122778  0.126697  0.000129  1.019351  0.0
H  H7  1  0.33125942  0.12355060  0.29455132  1  0.128959  0.000443  0.982893  0.0  0.138183  0.000222  1.042438  0.0  0.13909  0.000223  1.043925  0.0  0.125645  0.139032  0.000163  1.042457  0.0
H  H8  1  0.68751980  0.89915758  0.29823659  1  0.114966  0.000498  0.919076  0.001  0.125768  0.00013  0.97728  0.0  0.127558  0.000142  0.975393  0.0  0.14749  0.123463  8.7e-05  0.980911  0.0
H  H9  1  0.35148618  0.71003029  0.31442921  1  0.115529  0.000202  0.968465  0.0  0.13417  0.000163  1.032495  0.0  0.134088  0.000164  1.034471  0.0  0.112358  0.135681  0.000125  1.029567  0.0
H  H10  1  0.17748188  0.75939711  0.25744110  1  0.124087  -0.000142  0.922168  0.0  0.145402  -0.000179  0.978686  0.0  0.145654  -0.000127  0.979448  0.0  0.114397  0.145315  -0.000134  0.97824  0.0
H  H11  1  0.32034191  0.88569368  0.45536809  1  0.104228  -8.8e-05  0.953189  0.0  0.122456  -0.000157  1.021414  0.0  0.123396  -0.000109  1.020213  0.0  0.100448  0.117723  -0.000169  1.026003  0.0
H  H12  1  0.50124124  0.29091693  0.59673380  1  0.070959  0.002953  0.946571  0.004  0.084283  0.001996  1.014695  0.002  0.084468  0.001471  1.01491  0.002  0.105653  0.092992  0.001696  1.008578  0.002
H  H13  1  0.63001672  0.48338830  0.79099992  1  0.08277  0.000262  0.910515  0.0  0.102321  0.000155  0.966949  0.0  0.102395  0.000101  0.966952  0.0  0.115991  0.105323  0.000144  0.964979  0.0
H  H14  1  0.74893982  0.25881913  0.74102889  1  0.073124  0.003343  0.943373  0.004  0.088677  0.002329  1.009072  0.002  0.088878  0.001714  1.008769  0.002  0.109248  0.095472  0.002103  1.003528  0.002
H  H15  1  0.81748077  0.30230078  0.58347643  1  0.074296  5.7e-05  0.938767  0.0  0.089196  4.9e-05  1.003197  0.0  0.088434  3.7e-05  1.00533  0.0  0.11198  0.095226  3.8e-05  0.997759  0.0
H  H16  1  0.15142095  0.45788686  0.69262855  1  0.070689  0.000426  0.942864  0.001  0.086822  0.000429  1.005866  0.001  0.08542  0.000316  1.008421  0.0  0.10694  0.0923  0.000413  1.002057  0.001
H  H17  1  0.10849377  0.40513761  0.85041083  1  0.061298  0.006206  0.955244  0.007  0.075449  0.004301  1.022917  0.005  0.074305  0.0032  1.024465  0.004  0.107072  0.086094  0.003675  1.01393  0.004
H  H18  1  0.44379428  0.66534607  0.93764404  1  0.087368  -0.000292  0.921057  0.0  0.108985  -0.000146  0.974731  0.0  0.109056  -0.00013  0.9757  0.0  0.104888  0.113775  -0.000119  0.969558  0.0
H  H19  1  0.31445271  0.75269515  0.03854882  1  0.075723  -0.00014  0.964302  0.0  0.093839  -9.4e-05  1.022518  0.0  0.094095  -7.8e-05  1.024327  0.0  0.10019  0.09813  -7.1e-05  1.018224  0.0
H  H20  1  0.55954813  0.97281120  0.94770209  1  0.068128  0.005916  0.935142  0.007  0.080735  0.004106  1.00233  0.005  0.078978  0.003146  1.005049  0.004  0.108628  0.095273  0.003232  0.989857  0.004
H  H21  1  0.40378328  0.79826043  0.75323584  1  0.065538  0.000567  0.957394  0.001  0.083017  0.00045  1.022203  0.001  0.08223  0.000317  1.023431  0.001  0.107273  0.08603  0.000393  1.021025  0.001
H  H22  1  0.39819368  0.03923819  0.72838343  1  0.067056  0.000118  0.925079  0.0  0.085702  6.7e-05  0.986846  0.0  0.085771  4e-05  0.986959  0.0  0.10985  0.08813  6.3e-05  0.985435  0.0
H  H23  1  0.50580212  0.22550803  0.92537171  1  0.084148  0.002982  0.921406  0.004  0.099263  0.001993  0.983202  0.002  0.099557  0.00147  0.983023  0.002  0.112744  0.108288  0.001663  0.977006  0.002
H  H24  1  0.18766271  0.20285208  0.91944515  1  0.083916  0.00013  0.936128  0.0  0.100514  3.8e-05  0.996172  0.0  0.099399  6.7e-05  0.998784  0.0  0.114377  0.107537  -8e-06  0.990533  0.0
H  H25  1  0.26228969  0.24574371  0.76372940  1  0.07331  0.003315  0.940741  0.004  0.088656  0.002317  1.006054  0.003  0.088726  0.001701  1.005962  0.002  0.109583  0.095579  0.001991  1.000281  0.002
H  H26  1  0.90547157  0.09198230  0.64022299  1  0.056714  0.00625  0.958149  0.007  0.068324  0.004372  1.031016  0.005  0.067257  0.003245  1.032348  0.004  0.103568  0.079129  0.003779  1.022256  0.004
H  H27  1  0.85643697  0.04418678  0.79904788  1  0.072481  0.000452  0.934961  0.001  0.08825  0.000431  0.998198  0.001  0.087123  0.000319  1.000429  0.0  0.108324  0.093225  0.000343  0.994776  0.0
H  H28  1  0.69324698  0.73701499  0.45348955  1  0.085859  -0.000241  0.930968  0.0  0.103793  -0.00016  0.990138  0.0  0.104716  -0.000144  0.989988  0.0  0.099443  0.108478  -0.000133  0.986899  0.0
H  H29  1  0.56935896  0.83262569  0.55494743  1  0.077161  -0.000259  0.941884  0.0  0.098247  -9.9e-05  1.001874  0.0  0.098021  -8.9e-05  1.003671  0.0  0.100435  0.103306  -8.2e-05  0.996092  0.0
H  H30  1  0.60309849  0.70842959  0.74432858  1  0.066135  0.000576  0.955729  0.001  0.083509  0.000479  1.019819  0.001  0.082789  0.000329  1.021011  0.001  0.108448  0.086  0.000436  1.018854  0.001
H  H31  1  0.45257183  0.52804428  0.54928181  1  0.067419  0.006328  0.936333  0.007  0.081662  0.004387  1.000176  0.005  0.079337  0.003396  1.003494  0.004  0.110507  0.097642  0.003492  0.986468  0.004
C  C32  1  0.07338000  0.48875158  0.41975574  1  0.057399  0.04076  3.472943  0.039  0.023491  0.016666  3.79827  0.019  0.033156  0.019592  3.800099  0.023  0.006595  0.031672  0.009555  3.821447  0.01
C  C33  1  0.94350165  0.01635089  0.08129150  1  0.049954  0.040846  3.492072  0.039  0.014275  0.0165  3.823955  0.019  0.024059  0.019243  3.82558  0.022  -0.000553  0.023073  0.009566  3.846996  0.01
C  C34  1  0.94038799  0.33727001  0.11180752  1  0.033233  0.04587  3.511928  0.044  -0.00555  0.018684  3.848392  0.021  -0.003015  0.021753  3.856644  0.025  -0.002021  0.001045  0.010761  3.870365  0.012
C  C35  1  0.08173705  0.17324546  0.38609117  1  0.016152  0.043115  3.51584  0.042  -0.023463  0.017946  3.855065  0.021  -0.020007  0.020953  3.86045  0.025  -0.008479  -0.018661  0.010255  3.880995  0.011
C  C36  1  0.25918762  0.36459165  0.23011890  1  0.033855  0.074987  3.55539  0.073  0.000987  0.027386  3.884158  0.033  0.000592  0.033113  3.895059  0.039  -0.002377  0.000358  0.014948  3.915478  0.019
C  C37  1  0.62485564  0.21777637  0.25944499  1  -0.017271  0.002477  3.703388  0.002  -0.046243  -6.3e-05  3.969759  -0.001  -0.042674  -0.000406  3.987522  -0.001  0.002029  -0.055405  0.000288  3.968404  0.0
C  C38  1  0.45612639  0.11159553  0.28587548  1  -0.065723  -0.002162  3.644923  -0.003  -0.103892  -0.001659  3.896463  -0.002  -0.102188  -0.000426  3.914621  -0.001  0.002262  -0.1136  -0.002536  3.897813  -0.003
C  C39  1  0.64052448  0.99267280  0.29115637  1  0.155106  -0.008325  3.589367  -0.011  0.097556  -0.006283  3.854263  -0.008  0.111226  -0.005508  3.868448  -0.007  0.153674  0.08145  -0.005758  3.852281  -0.007
C  C40  1  0.32157551  0.82353836  0.33571985  1  -0.183782  0.000311  3.636328  0.0  -0.288784  -2e-05  3.883345  0.0  -0.285661  8.7e-05  3.893493  0.0  -0.132858  -0.289422  -0.000106  3.878025  0.0
C  C41  1  0.64557374  0.41580557  0.67719582  1  -0.007041  -0.000419  3.640762  -0.003  -0.066682  0.000962  3.910847  -0.001  -0.062348  0.00035  3.923173  -0.002  -0.071676  -0.073182  0.000967  3.892884  -0.001
C  C42  1  0.79336018  0.36257727  0.69471002  1  -0.002796  -0.000343  3.641882  -0.003  -0.062524  0.001021  3.911196  -0.001  -0.057614  0.000406  3.923116  -0.002  -0.073681  -0.069358  0.001173  3.892928  0.0
C  C43  1  0.14246541  0.51418181  0.81068319  1  0.023451  -0.000139  3.641835  -0.004  -0.032676  0.001471  3.90429  -0.001  -0.026815  0.000655  3.917293  -0.002  -0.074435  -0.041434  0.001761  3.886701  0.0
C  C44  1  0.33228926  0.69921618  0.92359002  1  -0.150016  0.00216  3.679939  0.003  -0.191504  0.001296  3.940297  0.002  -0.193724  0.000911  3.953654  0.002  -0.162617  -0.190792  0.001156  3.924585  0.002
C  C45  1  0.40811811  0.85747320  0.87502104  1  0.021381  -0.000818  3.637564  -0.005  -0.037055  0.000914  3.906742  -0.002  -0.031288  0.000288  3.919834  -0.002  -0.072882  -0.046086  0.00098  3.887956  -0.001
C  C46  1  0.36823766  0.09719574  0.83725683  1  0.006679  -0.000466  3.628682  -0.003  -0.052378  0.000904  3.896761  -0.001  -0.048  0.000324  3.908977  -0.002  -0.068169  -0.058452  0.000758  3.878557  -0.001
C  C47  1  0.21612315  0.14254701  0.81062865  1  -0.00755  -0.000286  3.63736  -0.003  -0.066775  0.001026  3.903327  -0.001  -0.062152  0.000427  3.915743  -0.002  -0.07275  -0.073599  0.000965  3.884545  -0.001
C  C48  1  0.86919357  0.98491305  0.68261255  1  0.020673  -0.000334  3.647836  -0.005  -0.035138  0.001332  3.913817  -0.002  -0.029346  0.000535  3.926975  -0.002  -0.075682  -0.044094  0.001601  3.896613  0.0
C  C49  1  0.68023130  0.79829258  0.56986593  1  -0.150617  0.002208  3.687445  0.003  -0.195144  0.001302  3.950656  0.002  -0.197673  0.000896  3.964784  0.002  -0.161814  -0.194492  0.001238  3.933775  0.002
C  C50  1  0.60258064  0.64550411  0.62395004  1  0.027614  -0.000615  3.637582  -0.005  -0.027674  0.001162  3.901946  -0.002  -0.021807  0.000491  3.915562  -0.002  -0.072543  -0.036074  0.001266  3.881085  -0.001
N  N51  1  0.10373886  0.62896943  0.52665199  1  -0.458437  -0.014204  2.840739  -0.019  -0.418156  -0.009354  3.12904  -0.013  -0.430497  -0.009107  3.135468  -0.012  -0.397622  -0.454116  -0.005218  3.150256  -0.007
N  N52  1  0.90771948  0.87077594  0.97776675  1  -0.457561  -0.013337  2.847724  -0.018  -0.419769  -0.008889  3.136819  -0.012  -0.431819  -0.008369  3.142177  -0.011  -0.406181  -0.456358  -0.004785  3.157195  -0.006
N  N53  1  0.89476306  0.38913795  0.02918207  1  -0.435451  -0.01591  2.748062  -0.024  -0.393354  -0.009521  3.01231  -0.014  -0.402021  -0.00902  3.023636  -0.014  -0.385434  -0.423549  -0.00647  3.026983  -0.01
N  N54  1  0.12803516  0.12224953  0.46932617  1  -0.435752  -0.014754  2.746779  -0.022  -0.393237  -0.009156  3.015781  -0.014  -0.401026  -0.009067  3.026316  -0.014  -0.386239  -0.423848  -0.005868  3.032115  -0.009
N  N55  1  0.41468333  0.43337682  0.21456973  1  -0.413631  -0.035087  2.663646  -0.053  -0.380591  -0.023062  2.914906  -0.035  -0.389375  -0.02223  2.928331  -0.034  -0.387995  -0.409057  -0.018529  2.934137  -0.027
N  N56  1  0.73856023  0.14199887  0.26314197  1  -0.250333  0.011375  3.394201  0.017  -0.204309  0.003652  3.667731  0.009  -0.229396  0.006919  3.691357  0.014  -0.349408  -0.180278  0.000395  3.661504  0.004
N  N57  1  0.46932401  0.97126509  0.30665563  1  -0.020616  -0.001705  3.606753  -0.002  0.080022  -0.002891  3.821039  -0.004  0.065815  -0.002171  3.847347  -0.003  -0.249897  0.08473  -0.002508  3.814066  -0.004
N  N58  1  0.72259498  0.56332346  0.62330713  1  -0.358049  0.096658  3.280327  0.111  -0.308487  0.066669  3.550276  0.082  -0.335485  0.057063  3.566747  0.073  -0.487132  -0.268958  0.050372  3.516503  0.059
N  N59  1  0.97897285  0.54233493  0.80440234  1  -0.369071  0.098172  3.258081  0.113  -0.320098  0.067171  3.532702  0.083  -0.34697  0.05719  3.546701  0.074  -0.489052  -0.281467  0.052516  3.503592  0.062
N  N60  1  0.28946330  0.94267343  0.88412088  1  -0.363014  0.095219  3.271525  0.11  -0.311992  0.065569  3.542389  0.081  -0.338405  0.056448  3.557769  0.073  -0.486082  -0.272501  0.047422  3.508619  0.056
N  N61  1  0.03427849  0.96006936  0.69776545  1  -0.366613  0.098752  3.263288  0.114  -0.316887  0.067831  3.537758  0.084  -0.343647  0.057725  3.552017  0.075  -0.488411  -0.278068  0.053355  3.507267  0.063
