# generated using pymatgen
data_KH8C4SNO3
_symmetry_space_group_name_H-M   'P 1'
_cell_length_a   6.10670395
_cell_length_b   6.73238353
_cell_length_c   19.98522681
_cell_angle_alpha   90.00009987
_cell_angle_beta   90.00053131
_cell_angle_gamma   107.95673206
_symmetry_Int_Tables_number   1
_chemical_formula_structural   KH8C4SNO3
_chemical_formula_sum   'K4 H32 C16 S4 N4 O12'
_cell_volume   781.62339107
_cell_formula_units_Z   4
loop_
 _symmetry_equiv_pos_site_id
 _symmetry_equiv_pos_as_xyz
  1  'x, y, z'
loop_
 _atom_site_type_symbol
 _atom_site_label
 _atom_site_symmetry_multiplicity
 _atom_site_fract_x
 _atom_site_fract_y
 _atom_site_fract_z
 _atom_site_occupancy
 _atom_site_hle17_bader_spin_density
 _atom_site_hle17_ddec_charge
 _atom_site_hle17_ddec_spin_density
 _atom_site_hle17_ddec_sum_bond_order
 _atom_site_hle17_magmom
 _atom_site_hse06_10hf_bader_spin_density
 _atom_site_hse06_10hf_ddec_charge
 _atom_site_hse06_10hf_ddec_spin_density
 _atom_site_hse06_10hf_ddec_sum_bond_order
 _atom_site_hse06_10hf_magmom
 _atom_site_hse06_bader_spin_density
 _atom_site_hse06_ddec_charge
 _atom_site_hse06_ddec_spin_density
 _atom_site_hse06_ddec_sum_bond_order
 _atom_site_hse06_magmom
 _atom_site_pbe_bader_spin_density
 _atom_site_pbe_cm5_charge
 _atom_site_pbe_ddec_charge
 _atom_site_pbe_ddec_spin_density
 _atom_site_pbe_ddec_sum_bond_order
 _atom_site_pbe_magmom
K  K0  1  0.62482014  0.07972361  0.26925629  1  0  0.92683  0  0.452028  0  0  0.875755  0  0.638103  0  0  0.889097  0  0.61716  0  0  0.724563  0.865727  0  0.653104  0
K  K1  1  0.87518600  0.42028397  0.76925708  1  0  0.926815  0  0.452067  0  0  0.875732  0  0.63817  0  0  0.889074  0  0.617224  0  0  0.724563  0.865712  0  0.653173  0
K  K2  1  0.37518810  0.92028013  0.73074307  1  0  0.926826  0  0.452041  0  0  0.875736  0  0.638155  0  0  0.889077  0  0.617211  0  0  0.724575  0.865716  0  0.653159  0
K  K3  1  0.12482006  0.57971822  0.23074379  1  0  0.926813  0  0.452055  0  0  0.875756  0  0.638117  0  0  0.8891  0  0.61717  0  0  0.724563  0.865729  0  0.653119  0
H  H4  1  0.06341059  0.41165715  0.38951643  1  0  0.119258  0  0.95959  0  0  0.140307  0  1.019739  0  0  0.142368  0  1.018399  0  0  0.11269  0.138668  0  1.02088  0
H  H5  1  0.43659458  0.08835144  0.88951769  1  0  0.119229  0  0.959587  0  0  0.140299  0  1.019722  0  0  0.142356  0  1.018376  0  0  0.112703  0.138658  0  1.020863  0
H  H6  1  0.93659271  0.58835130  0.61048343  1  0  0.11926  0  0.959562  0  0  0.140311  0  1.019713  0  0  0.142371  0  1.018372  0  0  0.112701  0.138673  0  1.020854  0
H  H7  1  0.56340006  0.91164609  0.11047967  1  0  0.11927  0  0.959469  0  0  0.140303  0  1.019652  0  0  0.142367  0  1.018313  0  0  0.112679  0.138663  0  1.020795  0
H  H8  1  0.29992445  0.32759123  0.36122284  1  0  0.106881  0  0.96444  0  0  0.126218  0  1.026985  0  0  0.12796  0  1.025678  0  0  0.117329  0.124788  0  1.028084  0
H  H9  1  0.20007263  0.17241538  0.86122498  1  0  0.106868  0  0.964417  0  0  0.126224  0  1.026952  0  0  0.127967  0  1.025642  0  0  0.117307  0.124792  0  1.028063  0
H  H10  1  0.70008158  0.67241565  0.63877702  1  0  0.106883  0  0.964406  0  0  0.126244  0  1.026941  0  0  0.127987  0  1.025633  0  0  0.117337  0.124813  0  1.028052  0
H  H11  1  0.79991219  0.82758217  0.13877338  1  0  0.106864  0  0.964485  0  0  0.126205  0  1.027028  0  0  0.127948  0  1.025719  0  0  0.117321  0.124771  0  1.028141  0
H  H12  1  0.19781560  0.27416313  0.44452521  1  0  0.102061  0  0.959641  0  0  0.120198  0  1.028731  0  0  0.121362  0  1.02851  0  0  0.098022  0.119229  0  1.029101  0
H  H13  1  0.30217740  0.22583850  0.94452618  1  0  0.102034  0  0.959633  0  0  0.120158  0  1.02875  0  0  0.121319  0  1.028533  0  0  0.098032  0.119192  0  1.029112  0
H  H14  1  0.80218498  0.72584219  0.55547515  1  0  0.102021  0  0.959668  0  0  0.120163  0  1.028759  0  0  0.121326  0  1.028541  0  0  0.098003  0.119197  0  1.029127  0
H  H15  1  0.69780853  0.77415748  0.05547118  1  0  0.101964  0  0.959691  0  0  0.120115  0  1.028773  0  0  0.121278  0  1.028552  0  0  0.097987  0.119149  0  1.029136  0
H  H16  1  0.17182240  0.74344951  0.46869216  1  0  0.100331  0  0.948471  0  0  0.118973  0  1.0175  0  0  0.119696  0  1.017628  0  0  0.098613  0.117958  0  1.018067  0
H  H17  1  0.32818331  0.75655403  0.96869272  1  0  0.100329  0  0.948481  0  0  0.118969  0  1.01751  0  0  0.119692  0  1.017638  0  0  0.098615  0.117953  0  1.018077  0
H  H18  1  0.82818316  0.25654643  0.53131170  1  0  0.100408  0  0.948425  0  0  0.119056  0  1.017418  0  0  0.119779  0  1.017546  0  0  0.098652  0.11804  0  1.017986  0
H  H19  1  0.67181948  0.24344817  0.03130514  1  0  0.100355  0  0.948536  0  0  0.118982  0  1.017582  0  0  0.119707  0  1.017707  0  0  0.098635  0.117969  0  1.018145  0
H  H20  1  0.44877709  0.80068630  0.50654903  1  0  0.105151  0  0.978393  0  0  0.120853  0  1.047152  0  0  0.122661  0  1.046196  0  0  0.099365  0.11956  0  1.047716  0
H  H21  1  0.05123067  0.69931645  0.00654861  1  0  0.105195  0  0.978383  0  0  0.120886  0  1.047141  0  0  0.122694  0  1.046185  0  0  0.099357  0.119594  0  1.047694  0
H  H22  1  0.55123335  0.19931432  0.49345333  1  0  0.105206  0  0.978417  0  0  0.120949  0  1.047125  0  0  0.122758  0  1.046169  0  0  0.099389  0.119656  0  1.047682  0
H  H23  1  0.94877539  0.30068574  0.99344975  1  0  0.105178  0  0.978347  0  0  0.120879  0  1.047109  0  0  0.122687  0  1.046151  0  0  0.09936  0.119585  0  1.04767  0
H  H24  1  0.23511361  0.55489403  0.52225876  1  0  0.102875  0  0.958291  0  0  0.119621  0  1.028348  0  0  0.120341  0  1.02857  0  0  0.10308  0.118995  0  1.028227  0
H  H25  1  0.26489414  0.94511208  0.02225859  1  0  0.102894  0  0.958246  0  0  0.119622  0  1.028317  0  0  0.120344  0  1.028538  0  0  0.103077  0.118988  0  1.028212  0
H  H26  1  0.76489953  0.44510970  0.47774260  1  0  0.10287  0  0.958153  0  0  0.119578  0  1.028276  0  0  0.120299  0  1.028497  0  0  0.103038  0.11895  0  1.028159  0
H  H27  1  0.73510595  0.05488700  0.97773777  1  0  0.102916  0  0.958327  0  0  0.119683  0  1.028353  0  0  0.120391  0  1.028588  0  0  0.103084  0.119045  0  1.02826  0
H  H28  1  0.13657667  0.00816243  0.28429319  1  0  0.390386  0  0.936265  0  0  0.359729  0  1.002387  0  0  0.371555  0  0.984894  0  0  0.272155  0.351378  0  1.014711  0
H  H29  1  0.36342482  0.49183519  0.78429398  1  0  0.390332  0  0.936347  0  0  0.359667  0  1.002481  0  0  0.371496  0  0.984984  0  0  0.272127  0.351317  0  1.014807  0
H  H30  1  0.86342723  0.99183820  0.71570667  1  0  0.390343  0  0.936322  0  0  0.359686  0  1.002443  0  0  0.371512  0  0.98495  0  0  0.272138  0.351336  0  1.014765  0
H  H31  1  0.63658291  0.50816231  0.21570538  1  0  0.390354  0  0.936312  0  0  0.359679  0  1.002465  0  0  0.371506  0  0.984968  0  0  0.272137  0.351329  0  1.014788  0
H  H32  1  0.07591856  0.90736696  0.35528731  1  0  0.369539  0  0.955104  0  0  0.341781  0  1.017387  0  0  0.35109  0  1.004096  0  0  0.255255  0.335171  0  1.026844  0
H  H33  1  0.42408696  0.59263173  0.85528554  1  0  0.369533  0  0.955115  0  0  0.341774  0  1.017395  0  0  0.351083  0  1.004103  0  0  0.25525  0.335161  0  1.026856  0
H  H34  1  0.92408971  0.09263210  0.64471355  1  0  0.369567  0  0.955098  0  0  0.341782  0  1.017382  0  0  0.351091  0  1.004091  0  0  0.255255  0.33517  0  1.026844  0
H  H35  1  0.57591530  0.40736890  0.14471282  1  0  0.369545  0  0.955093  0  0  0.341796  0  1.017368  0  0  0.351106  0  1.004075  0  0  0.255262  0.335183  0  1.026824  0
C  C36  1  0.58710381  0.68019872  0.39723895  1  0  0.117351  0  3.720782  0  0  0.093566  0  4.000745  0  0  0.111997  0  4.006545  0  0  0.142423  0.08091  0  3.996711  0
C  C37  1  0.91289917  0.81980301  0.89723778  1  0  0.117345  0  3.7209  0  0  0.093585  0  4.000859  0  0  0.112022  0  4.006652  0  0  0.142384  0.080911  0  3.996834  0
C  C38  1  0.41290279  0.31980503  0.60276241  1  0  0.117309  0  3.720876  0  0  0.093493  0  4.000871  0  0  0.111925  0  4.006671  0  0  0.142396  0.08083  0  3.996837  0
C  C39  1  0.08708726  0.18019922  0.10276158  1  0  0.117412  0  3.720613  0  0  0.093457  0  4.000758  0  0  0.111891  0  4.006551  0  0  0.142424  0.080794  0  3.99672  0
C  C40  1  0.64242731  0.58399560  0.33294351  1  0  0.622429  0  4.007983  0  0  0.575947  0  4.315418  0  0  0.607072  0  4.305613  0  0  0.19906  0.554646  0  4.321527  0
C  C41  1  0.85758323  0.91600045  0.83294624  1  0  0.622158  0  4.008048  0  0  0.575746  0  4.315381  0  0  0.606866  0  4.305576  0  0  0.198998  0.554457  0  4.321492  0
C  C42  1  0.35757601  0.41600816  0.66705635  1  0  0.622423  0  4.007864  0  0  0.575974  0  4.315261  0  0  0.607095  0  4.305455  0  0  0.199028  0.554676  0  4.321374  0
C  C43  1  0.14239605  0.08400960  0.16705762  1  0  0.622518  0  4.007781  0  0  0.576156  0  4.315076  0  0  0.607282  0  4.305256  0  0  0.199156  0.554871  0  4.321181  0
C  C44  1  0.30663547  0.67658471  0.48478672  1  0  -0.180983  0  3.620557  0  0  -0.280315  0  3.863518  0  0  -0.277367  0  3.872509  0  0  -0.13803  -0.281739  0  3.857403  0
C  C45  1  0.19337082  0.82341908  0.98478593  1  0  -0.181082  0  3.620628  0  0  -0.280349  0  3.863601  0  0  -0.2774  0  3.872593  0  0  -0.138038  -0.281782  0  3.857473  0
C  C46  1  0.69337604  0.32341903  0.51521564  1  0  -0.181176  0  3.620581  0  0  -0.280516  0  3.863545  0  0  -0.277569  0  3.872534  0  0  -0.138078  -0.281942  0  3.85742  0
C  C47  1  0.80662599  0.17658001  0.01521042  1  0  -0.181095  0  3.620687  0  0  -0.280444  0  3.86361  0  0  -0.277484  0  3.87261  0  0  -0.138072  -0.281876  0  3.85749  0
C  C48  1  0.22814595  0.38905127  0.40368362  1  0  -0.193789  0  3.608798  0  0  -0.291443  0  3.844643  0  0  -0.289425  0  3.853359  0  0  -0.130548  -0.292439  0  3.838881  0
C  C49  1  0.27185321  0.11095285  0.90368393  1  0  -0.193692  0  3.608664  0  0  -0.291354  0  3.84456  0  0  -0.289326  0  3.853269  0  0  -0.130549  -0.292351  0  3.838802  0
C  C50  1  0.77185521  0.61095093  0.59631674  1  0  -0.193741  0  3.608745  0  0  -0.291431  0  3.844603  0  0  -0.289411  0  3.853317  0  0  -0.130529  -0.292426  0  3.838844  0
C  C51  1  0.72813762  0.88904312  0.09631293  1  0  -0.19356  0  3.608713  0  0  -0.291231  0  3.844574  0  0  -0.289215  0  3.853292  0  0  -0.13045  -0.29223  0  3.83882  0
S  S52  1  0.78422904  0.90140647  0.42336459  1  0  -0.404127  0  1.947566  0  0  -0.389286  0  2.250233  0  0  -0.404033  0  2.243622  0  0  -0.153174  -0.379026  0  2.255361  0
S  S53  1  0.71577544  0.59859253  0.92336273  1  0  -0.404108  0  1.947603  0  0  -0.389252  0  2.250224  0  0  -0.403997  0  2.243611  0  0  -0.153153  -0.378987  0  2.255352  0
S  S54  1  0.21577756  0.09859728  0.57663727  1  0  -0.404097  0  1.947637  0  0  -0.389255  0  2.250271  0  0  -0.404003  0  2.24366  0  0  -0.153157  -0.378989  0  2.255402  0
S  S55  1  0.28422251  0.40140030  0.07663462  1  0  -0.404158  0  1.947475  0  0  -0.38927  0  2.250212  0  0  -0.404009  0  2.243599  0  0  -0.153189  -0.379018  0  2.255335  0
N  N56  1  0.38774278  0.58600658  0.42724631  1  0  0.003127  0  3.472864  0  0  0.108118  0  3.688093  0  0  0.091972  0  3.713857  0  0  -0.252008  0.118772  0  3.670528  0
N  N57  1  0.11226203  0.91399321  0.92724584  1  0  0.003212  0  3.472611  0  0  0.1081  0  3.68796  0  0  0.091951  0  3.713722  0  0  -0.251974  0.118764  0  3.670389  0
N  N58  1  0.61226389  0.41398780  0.57275756  1  0  0.003244  0  3.472784  0  0  0.108236  0  3.68802  0  0  0.092091  0  3.713784  0  0  -0.251974  0.118893  0  3.670451  0
N  N59  1  0.88773097  0.08600432  0.07275252  1  0  0.003004  0  3.472614  0  0  0.108067  0  3.687861  0  0  0.091922  0  3.713617  0  0  -0.252042  0.118724  0  3.670293  0
O  O60  1  0.75606077  0.45716918  0.33680248  1  0  -0.668655  0  1.944069  0  0  -0.623385  0  2.173503  0  0  -0.646527  0  2.165106  0  0  -0.403442  -0.606842  0  2.17882  0
O  O61  1  0.74393050  0.04281290  0.83680167  1  0  -0.668487  0  1.944165  0  0  -0.623264  0  2.173594  0  0  -0.646401  0  2.165196  0  0  -0.403361  -0.606714  0  2.178902  0
O  O62  1  0.24393070  0.54281429  0.66320138  1  0  -0.668591  0  1.944254  0  0  -0.623333  0  2.173672  0  0  -0.646471  0  2.165277  0  0  -0.403394  -0.606786  0  2.178988  0
O  O63  1  0.25602390  0.95716752  0.16319669  1  0  -0.668686  0  1.94407  0  0  -0.623474  0  2.173487  0  0  -0.646618  0  2.165086  0  0  -0.403454  -0.60692  0  2.178778  0
O  O64  1  0.57133301  0.64860821  0.27942039  1  0  -0.713343  0  1.983508  0  0  -0.655539  0  2.210792  0  0  -0.68091  0  2.200633  0  0  -0.423937  -0.637423  0  2.217145  0
O  O65  1  0.92869690  0.85138698  0.77941728  1  0  -0.713316  0  1.983217  0  0  -0.655491  0  2.210387  0  0  -0.680903  0  2.200318  0  0  -0.423968  -0.637381  0  2.216747  0
O  O66  1  0.42868347  0.35138614  0.72058147  1  0  -0.713419  0  1.98322  0  0  -0.65559  0  2.210426  0  0  -0.68099  0  2.200328  0  0  -0.423947  -0.637471  0  2.216781  0
O  O67  1  0.07130696  0.14861834  0.22058358  1  0  -0.713456  0  1.983353  0  0  -0.655642  0  2.210523  0  0  -0.681048  0  2.200441  0  0  -0.424038  -0.637537  0  2.216876  0
O  O68  1  0.18776709  0.92284369  0.31828164  1  0  -0.905296  0  1.84219  0  0  -0.861087  0  2.007439  0  0  -0.878877  0  1.977142  0  0  -0.721395  -0.848324  0  2.028616  0
O  O69  1  0.31223384  0.57715445  0.81828154  1  0  -0.905267  0  1.842276  0  0  -0.861056  0  2.007549  0  0  -0.878845  0  1.977251  0  0  -0.721392  -0.848286  0  2.028722  0
O  O70  1  0.81223954  0.07715537  0.68171873  1  0  -0.905322  0  1.842127  0  0  -0.861074  0  2.007521  0  0  -0.87885  0  1.977202  0  0  -0.7214  -0.848306  0  2.028689  0
O  O71  1  0.68777009  0.42284150  0.18171532  1  0  -0.90527  0  1.842186  0  0  -0.861033  0  2.00737  0  0  -0.87885  0  1.977119  0  0  -0.721392  -0.848274  0  2.028583  0
