# generated using pymatgen
data_Zn4H28C32N2O17
_symmetry_space_group_name_H-M   'P 1'
_cell_length_a   17.88422620
_cell_length_b   18.58661151
_cell_length_c   20.07078498
_cell_angle_alpha   61.28010432
_cell_angle_beta   63.75007707
_cell_angle_gamma   89.95909468
_symmetry_Int_Tables_number   1
_chemical_formula_structural   Zn4H28C32N2O17
_chemical_formula_sum   'Zn8 H56 C64 N4 O34'
_cell_volume   5053.66560487
_cell_formula_units_Z   2
loop_
 _symmetry_equiv_pos_site_id
 _symmetry_equiv_pos_as_xyz
  1  'x, y, z'
loop_
 _atom_site_type_symbol
 _atom_site_label
 _atom_site_symmetry_multiplicity
 _atom_site_fract_x
 _atom_site_fract_y
 _atom_site_fract_z
 _atom_site_occupancy
 _atom_site_pbe_bader_charge
 _atom_site_pbe_bader_spin_density
 _atom_site_pbe_cm5_charge
 _atom_site_pbe_ddec_charge
 _atom_site_pbe_ddec_spin_density
 _atom_site_pbe_ddec_sum_bond_order
 _atom_site_pbe_magmom
Zn  Zn0  1  0.12794729  0.54043569  0.92770176  1  1.294494  0  0.667199  0.945979  0  2.418416  0
Zn  Zn1  1  0.96114306  0.54926904  0.06955899  1  1.319637  0  0.671351  0.960102  0  2.370133  0
Zn  Zn2  1  0.96957847  0.38100160  0.06061730  1  1.303751  0  0.668351  0.946608  0  2.434544  0
Zn  Zn3  1  0.95326430  0.54403807  0.91203040  1  1.320844  0  0.67383  0.971533  0  2.314968  0
Zn  Zn4  1  0.37799654  0.97162014  0.05918815  1  1.298767  0  0.669041  0.950589  0  2.415806  0
Zn  Zn5  1  0.54059094  0.12665410  0.92220953  1  1.297149  0  0.667841  0.943865  0  2.433719  0
Zn  Zn6  1  0.53836308  0.95844392  0.91459376  1  1.312449  0  0.67361  0.963791  0  2.372569  0
Zn  Zn7  1  0.55615562  0.96215891  0.06851589  1  1.326155  0  0.674366  0.972509  0  2.316747  0
H  H8  1  0.42931345  0.81908608  0.35242629  1  0.19678  0  0.118026  0.133402  0  1.012572  0
H  H9  1  0.20942903  0.84662810  0.31612532  1  0.141432  0  0.12561  0.144395  0  0.98223  0
H  H10  1  0.08555582  0.68097734  0.63145712  1  0.142779  0  0.117842  0.135732  0  1.008778  0
H  H11  1  0.30500017  0.66977877  0.66824857  1  0.128048  0  0.125557  0.146853  0  0.980802  0
H  H12  1  0.67891564  0.08531890  0.63757015  1  0.133359  0  0.11843  0.133158  0  1.012142  0
H  H13  1  0.65862539  0.30337339  0.66055582  1  0.145509  0  0.125994  0.146625  0  0.977515  0
H  H14  1  0.82614148  0.42211782  0.34729033  1  0.145734  0  0.118638  0.133439  0  1.009927  0
H  H15  1  0.83290443  0.20423502  0.32385668  1  0.145497  0  0.126772  0.148353  0  0.976902  0
H  H16  1  0.21431478  0.31566390  0.88440371  1  0.025184  0  0.091982  0.086795  0  0.979144  0
H  H17  1  0.12983323  0.22971541  0.98577311  1  0.063716  0  0.094286  0.094288  0  0.981405  0
H  H18  1  0.22134748  0.14032923  0.98024447  1  0.050934  0  0.09399  0.094659  0  0.983711  0
H  H19  1  0.30595252  0.22732814  0.88008832  1  0.020808  0  0.091912  0.086869  0  0.977036  0
H  H20  1  0.20030568  0.10901216  0.12482112  1  0.062008  0  0.095043  0.096918  0  0.980119  0
H  H21  1  0.27175752  0.17107709  0.12820595  1  0.015688  0  0.090744  0.085091  0  0.979093  0
H  H22  1  0.11125468  0.20088571  0.12915434  1  0.067669  0  0.094732  0.09736  0  0.983132  0
H  H23  1  0.18481950  0.26396176  0.12944334  1  0.005762  0  0.090225  0.084377  0  0.979794  0
H  H24  1  0.31945711  0.40819028  0.88422694  1  0.038825  0  0.092309  0.092979  0  0.981333  0
H  H25  1  0.30657443  0.38862451  0.98393574  1  0.023733  0  0.090293  0.087393  0  0.980003  0
H  H26  1  0.39508856  0.29609563  0.98430982  1  0.012367  0  0.090114  0.08787  0  0.982052  0
H  H27  1  0.41010434  0.31790674  0.88319820  1  0.02752  0  0.09293  0.092868  0  0.98  0
H  H28  1  0.90676089  0.81550202  0.87670475  1  0.02428  0  0.092102  0.086987  0  0.979547  0
H  H29  1  0.88838458  0.79014787  0.98077061  1  0.024048  0  0.092603  0.090709  0  0.982546  0
H  H30  1  0.79978322  0.88235807  0.98096078  1  0.03906  0  0.093166  0.091429  0  0.982813  0
H  H31  1  0.81789595  0.90655977  0.87733501  1  0.022026  0  0.092497  0.087946  0  0.977808  0
H  H32  1  0.67642526  0.76007035  0.12019075  1  0.048118  0  0.094304  0.096749  0  0.982623  0
H  H33  1  0.60523178  0.69771322  0.11697196  1  0.033193  0  0.089494  0.083104  0  0.980009  0
H  H34  1  0.76407155  0.66689270  0.11976827  1  0.033683  0  0.093821  0.096229  0  0.986354  0
H  H35  1  0.69345073  0.60610111  0.11454682  1  -0.010701  0  0.088938  0.082959  0  0.98053  0
H  H36  1  0.80705891  0.72751212  0.86800641  1  0.010802  0  0.091718  0.092037  0  0.981358  0
H  H37  1  0.72042265  0.64134946  0.96459032  1  0.046245  0  0.089913  0.086761  0  0.980652  0
H  H38  1  0.63049711  0.73217486  0.96711683  1  0.020583  0  0.08957  0.085926  0  0.980636  0
H  H39  1  0.71682596  0.81799078  0.87001296  1  0.035332  0  0.093154  0.095254  0  0.981957  0
H  H40  1  0.17405212  0.80599504  0.91829873  1  0.033292  0  0.091395  0.085456  0  0.978811  0
H  H41  1  0.26422026  0.77519687  0.86495346  1  0.042394  0  0.094613  0.095029  0  0.980548  0
H  H42  1  0.35452716  0.87132733  0.85904535  1  0.027591  0  0.09471  0.09538  0  0.980635  0
H  H43  1  0.26357978  0.90060354  0.91382838  1  0.032351  0  0.091809  0.08624  0  0.979476  0
H  H44  1  0.40106395  0.74991866  0.94555112  1  0.018464  0  0.094507  0.097592  0  0.983165  0
H  H45  1  0.34532945  0.69401043  0.06157352  1  0.032407  0  0.089287  0.082309  0  0.981839  0
H  H46  1  0.30911375  0.65239298  0.95401937  1  0.059696  0  0.094227  0.096689  0  0.985173  0
H  H47  1  0.25240200  0.59866477  0.06992201  1  0.018248  0  0.090182  0.084563  0  0.979784  0
H  H48  1  0.09061579  0.72650473  0.08581860  1  0.052386  0  0.092035  0.09246  0  0.98235  0
H  H49  1  0.12221614  0.64149304  0.14740245  1  0.044567  0  0.091815  0.090475  0  0.978352  0
H  H50  1  0.21416694  0.73610503  0.14161962  1  0.033309  0  0.089919  0.087614  0  0.97943  0
H  H51  1  0.18185090  0.82092394  0.08084259  1  0.027242  0  0.091527  0.091918  0  0.982839  0
H  H52  1  0.91276393  0.28148985  0.90500280  1  0.023645  0  0.091439  0.086595  0  0.979413  0
H  H53  1  0.87490023  0.36409591  0.84723157  1  0.044877  0  0.095245  0.094971  0  0.976624  0
H  H54  1  0.78920154  0.26516630  0.85202595  1  0.049272  0  0.094119  0.094586  0  0.983081  0
H  H55  1  0.82471234  0.18257788  0.91289950  1  0.018184  0  0.091658  0.085935  0  0.978232  0
H  H56  1  0.65908239  0.30610695  0.93035614  1  0.048846  0  0.094112  0.096479  0  0.983504  0
H  H57  1  0.60017652  0.25013062  0.04632552  1  0.012374  0  0.089937  0.084069  0  0.979919  0
H  H58  1  0.74579511  0.40234021  0.92825632  1  0.038295  0  0.094428  0.096468  0  0.983447  0
H  H59  1  0.68774497  0.34436610  0.04434690  1  -0.002005  0  0.088942  0.082435  0  0.981131  0
H  H60  1  0.83019799  0.19649973  0.07252386  1  0.038148  0  0.091994  0.093002  0  0.98569  0
H  H61  1  0.73999300  0.22306829  0.13009574  1  0.014831  0  0.090248  0.087031  0  0.978235  0
H  H62  1  0.64870642  0.12924085  0.13445832  1  0.012907  0  0.090483  0.088248  0  0.980478  0
H  H63  1  0.73866611  0.09972966  0.08064138  1  0.029336  0  0.091999  0.091812  0  0.980725  0
C  C64  1  0.13911739  0.63527748  0.00599321  1  1.535142  0  0.234637  0.602733  0  4.101752  0
C  C65  1  0.88066963  0.37605180  0.22845616  1  1.611453  0  0.230002  0.602086  0  4.17549  0
C  C66  1  0.14579763  0.36431726  0.00027974  1  1.538566  0  0.234475  0.600947  0  4.105292  0
C  C67  1  0.86404455  0.36940837  0.98416104  1  1.535082  0  0.235272  0.60169  0  4.096473  0
C  C68  1  0.13054180  0.62274787  0.75698587  1  1.549508  0  0.23203  0.605985  0  4.165934  0
C  C69  1  0.86219257  0.64378925  0.98727028  1  1.529295  0  0.237078  0.607544  0  4.087568  0
C  C70  1  0.36349220  0.14497900  0.99518982  1  1.538225  0  0.233573  0.599726  0  4.099611  0
C  C71  1  0.61228381  0.13149066  0.75587166  1  1.616259  0  0.230421  0.601137  0  4.17098  0
C  C72  1  0.35933056  0.86422729  0.99422517  1  1.544268  0  0.236675  0.606267  0  4.093635  0
C  C73  1  0.64479200  0.86593202  0.98939435  1  1.546833  0  0.237806  0.607092  0  4.086605  0
C  C74  1  0.38290420  0.88713130  0.22688787  1  1.634134  0  0.23126  0.602507  0  4.167193  0
C  C75  1  0.64838951  0.13932301  0.99203837  1  1.559138  0  0.236277  0.604719  0  4.091925  0
C  C76  1  0.35947839  0.80679757  0.38080634  1  0.01306  0  -0.061558  -0.111576  0  3.879957  0
C  C77  1  0.23528601  0.82152986  0.36030485  1  0.016736  0  -0.064806  -0.127536  0  3.937062  0
C  C78  1  0.18058359  0.77390536  0.44970236  1  0.152424  0  0.084276  0.031391  0  3.903166  0
C  C79  1  0.21106414  0.74135974  0.51069404  1  0.097218  0  0.011767  0.047734  0  3.940835  0
C  C80  1  0.15541245  0.69630596  0.60317534  1  -0.063213  0  -0.062972  -0.115843  0  3.887765  0
C  C81  1  0.27919571  0.68923162  0.62407543  1  0.034396  0  -0.064751  -0.128874  0  3.937796  0
C  C82  1  0.33413422  0.73122056  0.53476116  1  0.212336  0  0.084901  0.031748  0  3.899138  0
C  C83  1  0.30396533  0.75979021  0.47350952  1  0.021919  0  0.010988  0.042845  0  3.936728  0
C  C84  1  0.32571205  0.83720643  0.32532654  1  -0.034511  0  -0.006047  -0.008367  0  3.953947  0
C  C85  1  0.18880517  0.67066303  0.65885257  1  0.043197  0  -0.0069  -0.010339  0  3.964751  0
C  C86  1  0.69363419  0.15420246  0.60577281  1  0.085929  0  -0.061383  -0.109714  0  3.884983  0
C  C87  1  0.68262700  0.27732826  0.61905204  1  0.079105  0  -0.062216  -0.124748  0  3.933159  0
C  C88  1  0.73244297  0.33035802  0.52933210  1  0.170285  0  0.083397  0.028657  0  3.904268  0
C  C89  1  0.76377545  0.29942808  0.47186536  1  0.051563  0  0.011226  0.047028  0  3.944814  0
C  C90  1  0.80931821  0.35327286  0.37892804  1  0.027463  0  -0.062174  -0.111688  0  3.885988  0
C  C91  1  0.81371836  0.23028374  0.36543588  1  -0.078128  0  -0.064478  -0.12921  0  3.935835  0
C  C92  1  0.77126943  0.17714803  0.45534080  1  0.274684  0  0.085096  0.032952  0  3.902975  0
C  C93  1  0.74301305  0.20800675  0.51292293  1  -0.034719  0  0.011033  0.044415  0  3.943673  0
C  C94  1  0.66372199  0.18829463  0.65762393  1  -0.080434  0  -0.006685  -0.010965  0  3.964071  0
C  C95  1  0.83319723  0.31933356  0.32683932  1  0.006185  0  -0.006221  -0.010463  0  3.965825  0
C  C96  1  0.19770687  0.26520692  0.95138518  1  -0.045028  0  -0.155567  -0.171318  0  3.849808  0
C  C97  1  0.25823867  0.20580427  0.94852490  1  -0.044543  0  -0.155558  -0.170257  0  3.85228  0
C  C98  1  0.30657450  0.20555071  0.99631364  1  0.047922  0  -0.016735  0.019651  0  3.813594  0
C  C99  1  0.23837405  0.17413738  0.09254361  1  -0.035924  0  -0.155888  -0.170343  0  3.852156  0
C  C100  1  0.17953832  0.23521935  0.09435458  1  -0.041653  0  -0.157554  -0.17255  0  3.858892  0
C  C101  1  0.20620176  0.30686109  0.99951609  1  0.056085  0  -0.016791  0.020183  0  3.81518  0
C  C102  1  0.30090067  0.35703863  0.95140507  1  -0.031344  0  -0.163945  -0.176849  0  3.884722  0
C  C103  1  0.36024627  0.29663396  0.95073995  1  0.012613  0  -0.164737  -0.177245  0  3.88623  0
C  C104  1  0.85596063  0.79290161  0.94446638  1  -0.022165  0  -0.154407  -0.168228  0  3.844621  0
C  C105  1  0.79673913  0.85396372  0.94488720  1  -0.013409  0  -0.155048  -0.170092  0  3.84737  0
C  C106  1  0.70178093  0.80470537  0.98880185  1  0.040402  0  -0.015529  0.02063  0  3.805368  0
C  C107  1  0.67333049  0.73221470  0.08377421  1  -0.060062  0  -0.159093  -0.172549  0  3.86385  0
C  C108  1  0.73204869  0.67097889  0.08285933  1  0.013845  0  -0.15975  -0.173932  0  3.863014  0
C  C109  1  0.80182221  0.70192926  0.98740781  1  0.057052  0  -0.015698  0.020966  0  3.804641  0
C  C110  1  0.75751415  0.70591145  0.93574312  1  -0.025611  0  -0.163005  -0.175995  0  3.880939  0
C  C111  1  0.69790225  0.76628027  0.93706605  1  -0.005879  0  -0.16399  -0.177435  0  3.878448  0
C  C112  1  0.22981599  0.78267164  0.92115814  1  -0.043694  0  -0.153955  -0.168169  0  3.847405  0
C  C113  1  0.28987665  0.84609078  0.91757056  1  -0.025502  0  -0.154538  -0.169438  0  3.851968  0
C  C114  1  0.29851484  0.80080749  0.00076717  1  0.053678  0  -0.016201  0.018857  0  3.812018  0
C  C115  1  0.33655376  0.72530368  0.00403571  1  -0.019709  0  -0.158483  -0.17267  0  3.863084  0
C  C116  1  0.27543390  0.66153286  0.00907285  1  -0.035291  0  -0.15881  -0.173794  0  3.86019  0
C  C117  1  0.19648652  0.69431981  0.00735030  1  0.068495  0  -0.016351  0.019135  0  3.813352  0
C  C118  1  0.14740490  0.70425659  0.08615906  1  -0.054132  0  -0.163801  -0.177648  0  3.884078  0
C  C119  1  0.20810977  0.76705505  0.08250300  1  -0.042535  0  -0.163451  -0.176831  0  3.880936  0
C  C120  1  0.85405836  0.30082577  0.90686748  1  -0.047224  0  -0.153689  -0.169979  0  3.847142  0
C  C121  1  0.79589765  0.23546733  0.91071156  1  -0.028788  0  -0.15526  -0.169107  0  3.848881  0
C  C122  1  0.70475900  0.19942739  0.99334637  1  0.043443  0  -0.016636  0.020246  0  3.811317  0
C  C123  1  0.66581285  0.27494595  0.98897424  1  -0.030133  0  -0.158278  -0.173793  0  3.851235  0
C  C124  1  0.72395998  0.33842625  0.98722565  1  0.000495  0  -0.158395  -0.1717  0  3.865318  0
C  C125  1  0.80352590  0.30736720  0.98858996  1  0.044988  0  -0.016539  0.020069  0  3.807365  0
C  C126  1  0.77330527  0.21825214  0.07199123  1  -0.012074  0  -0.163858  -0.175651  0  3.8783  0
C  C127  1  0.71332001  0.15483266  0.07575190  1  -0.005235  0  -0.163956  -0.177446  0  3.890594  0
N  N128  1  0.42754180  0.74517632  0.50531516  1  0.376786  0  0.059463  0.519965  0  4.204188  0
N  N129  1  0.08705451  0.75768401  0.47973843  1  0.401932  0  0.05862  0.517471  0  4.204932  0
N  N130  1  0.75634514  0.08489437  0.49000415  1  0.389506  0  0.059284  0.51842  0  4.207424  0
N  N131  1  0.75299191  0.42252033  0.49486598  1  0.374406  0  0.059435  0.519027  0  4.205837  0
O  O132  1  0.00117298  0.50559296  0.99134603  1  -1.221713  0  -0.572155  -1.026368  0  2.539697  0
O  O133  1  0.17727981  0.61511953  0.94906112  1  -1.170113  0  -0.317735  -0.551127  0  2.358295  0
O  O134  1  0.89485293  0.45607986  0.19535107  1  -1.176212  0  -0.306158  -0.52982  0  2.319106  0
O  O135  1  0.06472560  0.32753518  0.04761372  1  -1.179009  0  -0.316291  -0.548258  0  2.357036  0
O  O136  1  0.05790252  0.61187911  0.05944485  1  -1.184622  0  -0.310347  -0.543839  0  2.35614  0
O  O137  1  0.17985329  0.44452905  0.95273197  1  -1.182573  0  -0.31201  -0.544473  0  2.365142  0
O  O138  1  0.90245928  0.33792033  0.18712551  1  -1.189324  0  -0.309861  -0.536154  0  2.348815  0
O  O139  1  0.89716394  0.33591102  0.03295111  1  -1.16749  0  -0.315322  -0.548892  0  2.393396  0
O  O140  1  0.04912262  0.60741939  0.78730283  1  -1.141378  0  -0.30719  -0.535236  0  2.305369  0
O  O141  1  0.87879749  0.44924195  0.93164675  1  -1.171208  0  -0.313768  -0.54795  0  2.317104  0
O  O142  1  0.16935588  0.60176918  0.80089592  1  -1.176462  0  -0.310332  -0.536018  0  2.350967  0
O  O143  1  0.88895576  0.62427235  0.04166126  1  -1.183511  0  -0.31864  -0.555991  0  2.358233  0
O  O144  1  0.88234508  0.62005371  0.93296572  1  -1.168902  0  -0.312414  -0.548311  0  2.341692  0
O  O145  1  0.50459043  0.00210471  0.99250397  1  -1.215274  0  -0.573466  -1.029499  0  2.548568  0
O  O146  1  0.32563311  0.06687406  0.03256998  1  -1.177434  0  -0.316214  -0.549656  0  2.341958  0
O  O147  1  0.58572554  0.16933246  0.79726617  1  -1.162756  0  -0.310755  -0.535959  0  2.344358  0
O  O148  1  0.43904330  0.88842549  0.93524020  1  -1.184743  0  -0.316221  -0.55374  0  2.341261  0
O  O149  1  0.44477025  0.17609620  0.95708308  1  -1.175496  0  -0.312175  -0.54327  0  2.365937  0
O  O150  1  0.32613822  0.88917044  0.04752033  1  -1.172272  0  -0.314232  -0.546216  0  2.367765  0
O  O151  1  0.60013106  0.05156912  0.78891981  1  -1.174605  0  -0.305873  -0.528964  0  2.320459  0
O  O152  1  0.61685613  0.88893178  0.93576343  1  -1.185915  0  -0.314604  -0.548373  0  2.368635  0
O  O153  1  0.46409415  0.89619594  0.19511035  1  -1.177085  0  -0.306188  -0.52985  0  2.29711  0
O  O154  1  0.63008450  0.89009763  0.04287925  1  -1.16809  0  -0.316354  -0.554559  0  2.330196  0
O  O155  1  0.34314950  0.91588772  0.18424461  1  -1.191219  0  -0.31182  -0.538836  0  2.353962  0
O  O156  1  0.63208505  0.17363890  0.92920785  1  -1.181475  0  -0.320524  -0.553503  0  2.358316  0
O  O157  1  0.62203014  0.06032943  0.05198692  1  -1.181731  0  -0.311507  -0.548  0  2.338077  0
O  O158  1  0.47494300  0.73769444  0.44279488  1  -0.443884  0  -0.132526  -0.329672  0  1.879648  0
O  O159  1  0.45175278  0.76148711  0.54677158  1  -0.432649  0  -0.133062  -0.327201  0  1.852828  0
O  O160  1  0.03954980  0.68571976  0.54308308  1  -0.458761  0  -0.132548  -0.329587  0  1.878028  0
O  O161  1  0.06285047  0.81683880  0.43800353  1  -0.440977  0  -0.133202  -0.326248  0  1.852065  0
O  O162  1  0.76490022  0.03939385  0.55456571  1  -0.445343  0  -0.133753  -0.330786  0  1.879889  0
O  O163  1  0.73822104  0.05965392  0.45064092  1  -0.437314  0  -0.132308  -0.325878  0  1.852293  0
O  O164  1  0.82712520  0.46668265  0.43294568  1  -0.436928  0  -0.132846  -0.329948  0  1.8764  0
O  O165  1  0.69517711  0.44896788  0.53183746  1  -0.432573  0  -0.133831  -0.327147  0  1.851367  0
