# generated using pymatgen
data_CuH3C7N3O
_symmetry_space_group_name_H-M   'P 1'
_cell_length_a   7.80930474
_cell_length_b   7.80933587
_cell_length_c   12.66845237
_cell_angle_alpha   104.34490996
_cell_angle_beta   104.34616599
_cell_angle_gamma   95.07446219
_symmetry_Int_Tables_number   1
_chemical_formula_structural   CuH3C7N3O
_chemical_formula_sum   'Cu4 H12 C28 N12 O4'
_cell_volume   715.86265210
_cell_formula_units_Z   4
loop_
 _symmetry_equiv_pos_site_id
 _symmetry_equiv_pos_as_xyz
  1  'x, y, z'
loop_
 _atom_site_type_symbol
 _atom_site_label
 _atom_site_symmetry_multiplicity
 _atom_site_fract_x
 _atom_site_fract_y
 _atom_site_fract_z
 _atom_site_occupancy
 _atom_site_hle17_bader_spin_density
 _atom_site_hle17_ddec_charge
 _atom_site_hle17_ddec_spin_density
 _atom_site_hle17_ddec_sum_bond_order
 _atom_site_hle17_magmom
 _atom_site_hse06_10hf_bader_spin_density
 _atom_site_hse06_10hf_ddec_charge
 _atom_site_hse06_10hf_ddec_spin_density
 _atom_site_hse06_10hf_ddec_sum_bond_order
 _atom_site_hse06_10hf_magmom
 _atom_site_hse06_bader_spin_density
 _atom_site_hse06_ddec_charge
 _atom_site_hse06_ddec_spin_density
 _atom_site_hse06_ddec_sum_bond_order
 _atom_site_hse06_magmom
 _atom_site_pbe_bader_spin_density
 _atom_site_pbe_cm5_charge
 _atom_site_pbe_ddec_charge
 _atom_site_pbe_ddec_spin_density
 _atom_site_pbe_ddec_sum_bond_order
 _atom_site_pbe_magmom
Cu  Cu0  1  0.31501916  0.71692217  0.37912600  1  0  0.663497  0  2.042103  0  0  0.56856  0  2.562247  0  0  0.561054  0  2.517033  0  0  0.648304  0.576209  0  2.591501  0
Cu  Cu1  1  0.28309115  0.68498397  0.12087310  1  0  0.663477  0  2.042087  0  0  0.56846  0  2.56218  0  0  0.561024  0  2.517029  0  0  0.648303  0.576129  0  2.591455  0
Cu  Cu2  1  0.68498034  0.28308904  0.62087627  1  0  0.663458  0  2.042111  0  0  0.568488  0  2.562241  0  0  0.561015  0  2.517052  0  0  0.64825  0.576127  0  2.591462  0
Cu  Cu3  1  0.71692001  0.31500856  0.87912495  1  0  0.663566  0  2.042158  0  0  0.568587  0  2.562243  0  0  0.561149  0  2.517085  0  0  0.648325  0.576254  0  2.591537  0
H  H4  1  0.71840841  0.77782655  0.41992256  1  0  0.168069  0  0.938298  0  0  0.18272  0  1.001993  0  0  0.185632  0  0.999847  0  0  0.116439  0.18058  0  1.003538  0
H  H5  1  0.22216992  0.28158445  0.08007854  1  0  0.168051  0  0.938323  0  0  0.182705  0  1.002002  0  0  0.185615  0  0.999862  0  0  0.116447  0.18059  0  1.003527  0
H  H6  1  0.28158801  0.22218195  0.58007568  1  0  0.168011  0  0.938285  0  0  0.18269  0  1.001929  0  0  0.185602  0  0.999784  0  0  0.11643  0.180554  0  1.003472  0
H  H7  1  0.77782285  0.71839999  0.91992262  1  0  0.168056  0  0.93831  0  0  0.182739  0  1.001984  0  0  0.185649  0  0.999844  0  0  0.116464  0.180596  0  1.003534  0
H  H8  1  0.83713425  0.87478805  0.56591234  1  0  0.164806  0  0.926016  0  0  0.183549  0  0.981309  0  0  0.184632  0  0.981975  0  0  0.118566  0.182703  0  0.980915  0
H  H9  1  0.12520455  0.16286371  0.93408896  1  0  0.164823  0  0.925972  0  0  0.183545  0  0.981295  0  0  0.184625  0  0.981961  0  0  0.118571  0.182696  0  0.980905  0
H  H10  1  0.16285668  0.12521908  0.43408723  1  0  0.164825  0  0.926024  0  0  0.183598  0  0.981275  0  0  0.184678  0  0.981922  0  0  0.118602  0.182742  0  0.980898  0
H  H11  1  0.87478658  0.83712739  0.06591059  1  0  0.16473  0  0.926048  0  0  0.183494  0  0.981342  0  0  0.184589  0  0.981973  0  0  0.118547  0.182644  0  0.980959  0
H  H12  1  0.76580963  0.63757986  0.51372115  1  0  0.154842  0  0.934054  0  0  0.172878  0  0.991808  0  0  0.173988  0  0.992475  0  0  0.112042  0.172061  0  0.991385  0
H  H13  1  0.36241616  0.23419210  0.98627911  1  0  0.154854  0  0.934086  0  0  0.172907  0  0.9918  0  0  0.174016  0  0.992467  0  0  0.11205  0.172087  0  0.991381  0
H  H14  1  0.23419075  0.36242865  0.48627532  1  0  0.154906  0  0.933956  0  0  0.172943  0  0.991703  0  0  0.174051  0  0.99237  0  0  0.112055  0.172122  0  0.991282  0
H  H15  1  0.63757762  0.76579902  0.01372084  1  0  0.154829  0  0.934063  0  0  0.172882  0  0.991806  0  0  0.173988  0  0.992477  0  0  0.112041  0.172065  0  0.991383  0
C  C16  1  0.81491845  0.06566842  0.27076393  1  0  0.250396  0  3.84548  0  0  0.234662  0  4.121881  0  0  0.251849  0  4.128236  0  0  0.11632  0.223065  0  4.116996  0
C  C17  1  0.93430493  0.18506149  0.22923048  1  0  0.250182  0  3.845068  0  0  0.234431  0  4.121497  0  0  0.251619  0  4.127859  0  0  0.116123  0.222835  0  4.116615  0
C  C18  1  0.18507066  0.93432669  0.72923829  1  0  0.250143  0  3.845578  0  0  0.234502  0  4.121851  0  0  0.251686  0  4.128201  0  0  0.11617  0.222897  0  4.116969  0
C  C19  1  0.06568793  0.81493229  0.77076894  1  0  0.250242  0  3.845343  0  0  0.234506  0  4.121698  0  0  0.2517  0  4.12804  0  0  0.116173  0.222909  0  4.116812  0
C  C20  1  0.69250363  0.20155988  0.27222468  1  0  -0.03012  0  3.747793  0  0  -0.035302  0  3.99699  0  0  -0.033895  0  4.018203  0  0  -0.005711  -0.035873  0  3.982023  0
C  C21  1  0.79843726  0.30748655  0.22776773  1  0  -0.030158  0  3.748007  0  0  -0.035351  0  3.997179  0  0  -0.033953  0  4.0184  0  0  -0.005775  -0.035926  0  3.982213  0
C  C22  1  0.30749503  0.79844596  0.72777507  1  0  -0.030155  0  3.747954  0  0  -0.035411  0  3.997149  0  0  -0.033999  0  4.018355  0  0  -0.005758  -0.035977  0  3.982169  0
C  C23  1  0.20156546  0.69251129  0.77223064  1  0  -0.030082  0  3.747873  0  0  -0.035288  0  3.997052  0  0  -0.033887  0  4.018256  0  0  -0.005738  -0.035861  0  3.982077  0
C  C24  1  0.53790231  0.21032815  0.31179997  1  0  -0.177191  0  3.993449  0  0  -0.157839  0  4.239522  0  0  -0.171354  0  4.258835  0  0  -0.037889  -0.148511  0  4.226529  0
C  C25  1  0.78969008  0.46209561  0.18820445  1  0  -0.177032  0  3.993403  0  0  -0.157597  0  4.23932  0  0  -0.171106  0  4.258631  0  0  -0.037787  -0.14827  0  4.226331  0
C  C26  1  0.46210075  0.78968040  0.68820244  1  0  -0.177103  0  3.99318  0  0  -0.157679  0  4.239146  0  0  -0.171176  0  4.258449  0  0  -0.037759  -0.148347  0  4.226132  0
C  C27  1  0.21032261  0.53789828  0.81179483  1  0  -0.177102  0  3.993422  0  0  -0.15766  0  4.239323  0  0  -0.171159  0  4.25864  0  0  -0.037788  -0.148319  0  4.226329  0
C  C28  1  0.46486207  0.05946745  0.33672111  1  0  0.353051  0  3.784653  0  0  0.328118  0  4.058682  0  0  0.34377  0  4.070366  0  0  0.201906  0.317004  0  4.05181  0
C  C29  1  0.94054852  0.53513216  0.16328369  1  0  0.352752  0  3.784418  0  0  0.32777  0  4.058461  0  0  0.343422  0  4.070146  0  0  0.201737  0.316655  0  4.051593  0
C  C30  1  0.53514485  0.94054914  0.66328072  1  0  0.353119  0  3.78459  0  0  0.328154  0  4.0586  0  0  0.343802  0  4.070279  0  0  0.201882  0.317037  0  4.051715  0
C  C31  1  0.05945758  0.46486172  0.83671933  1  0  0.352894  0  3.784361  0  0  0.327932  0  4.058367  0  0  0.343575  0  4.070056  0  0  0.201789  0.31681  0  4.051508  0
C  C32  1  0.46369119  0.36723889  0.33493425  1  0  0.345266  0  3.800332  0  0  0.326307  0  4.062659  0  0  0.340018  0  4.079622  0  0  0.196976  0.316669  0  4.051845  0
C  C33  1  0.63277093  0.53630999  0.16506794  1  0  0.345219  0  3.80043  0  0  0.32623  0  4.062726  0  0  0.339935  0  4.079693  0  0  0.196995  0.316593  0  4.051913  0
C  C34  1  0.53630971  0.63276429  0.66506544  1  0  0.345276  0  3.800357  0  0  0.326295  0  4.062669  0  0  0.339999  0  4.079633  0  0  0.196976  0.316659  0  4.051836  0
C  C35  1  0.36723616  0.46369054  0.83492992  1  0  0.345256  0  3.800255  0  0  0.326281  0  4.062544  0  0  0.339982  0  4.079518  0  0  0.196987  0.316638  0  4.051736  0
C  C36  1  0.98186617  0.73757832  0.46415049  1  0  0.45785  0  3.672797  0  0  0.445499  0  3.94947  0  0  0.45612  0  3.967508  0  0  0.223284  0.438092  0  3.937552  0
C  C37  1  0.26242105  0.01813749  0.03584984  1  0  0.457844  0  3.672849  0  0  0.445493  0  3.949504  0  0  0.456125  0  3.967533  0  0  0.223267  0.438082  0  3.937599  0
C  C38  1  0.01814185  0.26243693  0.53584973  1  0  0.457723  0  3.67256  0  0  0.445335  0  3.949293  0  0  0.455958  0  3.967327  0  0  0.223133  0.437921  0  3.937363  0
C  C39  1  0.73757139  0.98185360  0.96414674  1  0  0.457791  0  3.672636  0  0  0.445459  0  3.949325  0  0  0.456086  0  3.967358  0  0  0.22325  0.438054  0  3.937419  0
C  C40  1  0.81617838  0.75704028  0.49276600  1  0  -0.389985  0  3.718719  0  0  -0.456758  0  3.936263  0  0  -0.460339  0  3.941767  0  0  -0.210162  -0.453969  0  3.932646  0
C  C41  1  0.24295652  0.18382097  0.00723451  1  0  -0.390025  0  3.718805  0  0  -0.456802  0  3.936432  0  0  -0.460381  0  3.941937  0  0  -0.210207  -0.454029  0  3.932791  0
C  C42  1  0.18381977  0.24297089  0.50723212  1  0  -0.390006  0  3.718742  0  0  -0.456788  0  3.936258  0  0  -0.460351  0  3.941784  0  0  -0.210152  -0.453996  0  3.932616  0
C  C43  1  0.75703573  0.81616880  0.99276422  1  0  -0.389866  0  3.718845  0  0  -0.456717  0  3.93644  0  0  -0.460293  0  3.941952  0  0  -0.210165  -0.453929  0  3.932827  0
N  N44  1  0.11561554  0.72424473  0.44037773  1  0  -0.499858  0  3.075061  0  0  -0.460851  0  3.407956  0  0  -0.469908  0  3.40899  0  0  -0.387906  -0.455414  0  3.407264  0
N  N45  1  0.27576201  0.88438516  0.05962345  1  0  -0.499822  0  3.075004  0  0  -0.460789  0  3.407872  0  0  -0.469872  0  3.408951  0  0  -0.387863  -0.455355  0  3.407194  0
N  N46  1  0.88438255  0.27577450  0.55962633  1  0  -0.499772  0  3.074576  0  0  -0.460743  0  3.407463  0  0  -0.469808  0  3.408516  0  0  -0.387806  -0.455304  0  3.406739  0
N  N47  1  0.72423480  0.11560862  0.94037263  1  0  -0.499851  0  3.07491  0  0  -0.460832  0  3.407775  0  0  -0.469911  0  3.408853  0  0  -0.387878  -0.455397  0  3.407109  0
N  N48  1  0.40576046  0.92862785  0.35377748  1  0  -0.5105  0  3.142569  0  0  -0.466771  0  3.498239  0  0  -0.471283  0  3.487003  0  0  -0.408514  -0.464939  0  3.506828  0
N  N49  1  0.07139313  0.59423245  0.14622363  1  0  -0.510285  0  3.142204  0  0  -0.46652  0  3.497809  0  0  -0.471044  0  3.486617  0  0  -0.408422  -0.464692  0  3.506411  0
N  N50  1  0.59423842  0.07137933  0.64622251  1  0  -0.510536  0  3.142706  0  0  -0.466791  0  3.498347  0  0  -0.471309  0  3.487126  0  0  -0.408505  -0.464957  0  3.506904  0
N  N51  1  0.92862182  0.40575879  0.85377954  1  0  -0.510393  0  3.142331  0  0  -0.466639  0  3.497928  0  0  -0.471163  0  3.486737  0  0  -0.408427  -0.464814  0  3.506541  0
N  N52  1  0.40908774  0.50294393  0.35735220  1  0  -0.503335  0  3.147011  0  0  -0.460999  0  3.49575  0  0  -0.468439  0  3.49169  0  0  -0.408885  -0.456852  0  3.498765  0
N  N53  1  0.49708139  0.59091683  0.14265087  1  0  -0.503284  0  3.147172  0  0  -0.46092  0  3.495865  0  0  -0.468375  0  3.491853  0  0  -0.408886  -0.456778  0  3.498891  0
N  N54  1  0.59091593  0.49706865  0.64265170  1  0  -0.503315  0  3.147151  0  0  -0.460986  0  3.495932  0  0  -0.468435  0  3.491898  0  0  -0.408886  -0.456832  0  3.498908  0
N  N55  1  0.50293596  0.40907306  0.85734615  1  0  -0.503366  0  3.146879  0  0  -0.461051  0  3.495642  0  0  -0.468508  0  3.491634  0  0  -0.408945  -0.456909  0  3.498677  0
O  O56  1  0.81668940  0.92085024  0.29221099  1  0  -0.446678  0  2.041762  0  0  -0.403651  0  2.253043  0  0  -0.421738  0  2.253918  0  0  -0.274667  -0.390703  0  2.251952  0
O  O57  1  0.07915969  0.18328034  0.20778601  1  0  -0.446686  0  2.0411  0  0  -0.403683  0  2.252407  0  0  -0.421774  0  2.253278  0  0  -0.274648  -0.390729  0  2.251324  0
O  O58  1  0.18329521  0.07915016  0.70778503  1  0  -0.446579  0  2.041557  0  0  -0.403597  0  2.252765  0  0  -0.421688  0  2.253652  0  0  -0.274623  -0.390649  0  2.251679  0
O  O59  1  0.92084693  0.81670820  0.79221865  1  0  -0.446719  0  2.04139  0  0  -0.403708  0  2.252629  0  0  -0.421804  0  2.253519  0  0  -0.274652  -0.390752  0  2.251539  0
