# generated using pymatgen
data_MnH12C14(NO)4
_symmetry_space_group_name_H-M   'P 1'
_cell_length_a   7.84999202
_cell_length_b   9.38454504
_cell_length_c   10.25237595
_cell_angle_alpha   75.88758639
_cell_angle_beta   78.17609124
_cell_angle_gamma   78.43866007
_symmetry_Int_Tables_number   1
_chemical_formula_structural   MnH12C14(NO)4
_chemical_formula_sum   'Mn2 H24 C28 N8 O8'
_cell_volume   707.87844911
_cell_formula_units_Z   2
loop_
 _symmetry_equiv_pos_site_id
 _symmetry_equiv_pos_as_xyz
  1  'x, y, z'
loop_
 _atom_site_type_symbol
 _atom_site_label
 _atom_site_symmetry_multiplicity
 _atom_site_fract_x
 _atom_site_fract_y
 _atom_site_fract_z
 _atom_site_occupancy
 _atom_site_hle17_ddec_charge
 _atom_site_hle17_ddec_spin_density
 _atom_site_hle17_ddec_sum_bond_order
 _atom_site_hle17_magmom
 _atom_site_hse06_10hf_ddec_charge
 _atom_site_hse06_10hf_ddec_spin_density
 _atom_site_hse06_10hf_ddec_sum_bond_order
 _atom_site_hse06_10hf_magmom
 _atom_site_hse06_ddec_charge
 _atom_site_hse06_ddec_spin_density
 _atom_site_hse06_ddec_sum_bond_order
 _atom_site_hse06_magmom
 _atom_site_pbe_cm5_charge
 _atom_site_pbe_ddec_charge
 _atom_site_pbe_ddec_spin_density
 _atom_site_pbe_ddec_sum_bond_order
 _atom_site_pbe_magmom
Mn  Mn0  1  0.45133736  0.13532688  0.65299189  1  1.108635  4.796837  1.832505  4.667  0.938381  4.717709  2.33907  4.519  0.997693  4.764547  2.268289  4.587  0.604236  0.892389  4.668801  2.391984  4.451
Mn  Mn1  1  0.54865057  0.86468306  0.34700175  1  1.108681  4.79684  1.832367  4.667  0.938429  4.717731  2.338945  4.519  0.997731  4.764564  2.268164  4.587  0.604274  0.892421  4.668831  2.391878  4.451
H  H2  1  0.93591099  0.82390481  0.73966296  1  0.290953  0.00018  0.901592  0.0  0.275378  0.000376  0.960991  0.0  0.280806  0.000222  0.958568  0.0  0.320323  0.271476  0.000637  0.962988  0.0
H  H3  1  0.06410440  0.17608900  0.26033426  1  0.290882  0.000183  0.901606  0.0  0.275321  0.000375  0.960995  0.0  0.280744  0.000222  0.958573  0.0  0.32033  0.271414  0.000637  0.963004  0.0
H  H4  1  0.85302183  0.50570904  0.33391338  1  0.319046  -4.3e-05  0.894236  0.0  0.302019  7.5e-05  0.952913  0.0  0.310245  -4.4e-05  0.946161  0.0  0.319875  0.296141  0.000212  0.957808  0.0
H  H5  1  0.14697461  0.49428430  0.66609633  1  0.319163  -4.7e-05  0.89426  0.0  0.302157  7.5e-05  0.952911  0.0  0.310382  -4.4e-05  0.946155  0.0  0.319944  0.296277  0.000212  0.95781  0.0
H  H6  1  0.25494648  0.55884730  0.88781791  1  0.093297  -0.000335  0.951387  0.0  0.100678  3e-06  1.018272  0.0  0.104177  -5.9e-05  1.016197  0.0  0.099914  0.098187  7.1e-05  1.019679  0.0
H  H7  1  0.74508465  0.44117625  0.11218282  1  0.093364  -0.000333  0.951294  0.0  0.10074  3e-06  1.018202  0.0  0.104243  -5.9e-05  1.016116  0.0  0.099858  0.098265  7.1e-05  1.019595  0.0
H  H8  1  0.22554939  0.66077376  0.09579188  1  0.091366  1.9e-05  0.959266  0.0  0.101911  -8.4e-05  1.01938  0.0  0.104935  -9.1e-05  1.018811  0.0  0.101088  0.099424  -8.8e-05  1.020404  0.0
H  H9  1  0.77446462  0.33921932  0.90422531  1  0.091369  1.5e-05  0.959305  0.0  0.101932  -8.4e-05  1.019408  0.0  0.104957  -9.1e-05  1.018837  0.0  0.101069  0.099456  -8.8e-05  1.020418  0.0
H  H10  1  0.27092703  0.49018260  0.31653823  1  0.094852  -0.000522  0.979588  0.0  0.101992  -0.000265  1.048396  0.0  0.105033  -0.000314  1.046874  0.0  0.100523  0.099605  -0.000146  1.049868  0.0
H  H11  1  0.72907828  0.50979499  0.68347263  1  0.094792  -0.00051  0.979672  0.0  0.101928  -0.000265  1.048481  0.0  0.104955  -0.000314  1.046971  0.0  0.100507  0.099545  -0.000145  1.049946  0.0
H  H12  1  0.39867081  0.11683335  0.11911757  1  0.119015  -0.000343  0.956593  0.0  0.125362  -2.6e-05  1.025928  0.0  0.129699  -0.000159  1.021835  0.0  0.111904  0.121926  5.2e-05  1.029254  0.0
H  H13  1  0.60131353  0.88316982  0.88086569  1  0.118971  -0.000333  0.956696  0.0  0.125313  -2.6e-05  1.026038  0.0  0.129653  -0.000159  1.021949  0.0  0.11186  0.121872  5.3e-05  1.029375  0.0
H  H14  1  0.16194950  0.96532407  0.56339794  1  0.094378  -0.000669  0.976043  0.0  0.099453  -0.000327  1.046008  0.0  0.101792  -0.00044  1.044116  0.0  0.133128  0.097357  -0.000217  1.048109  0.0
H  H15  1  0.83806211  0.03466640  0.43659397  1  0.094291  -0.000678  0.975934  0.0  0.099341  -0.000327  1.045957  0.0  0.101678  -0.00044  1.04407  0.0  0.133095  0.097246  -0.000217  1.048055  0.0
H  H16  1  0.98201055  0.80030225  0.98267896  1  0.109939  0.00011  0.966177  0.0  0.119121  0.000217  1.026825  0.0  0.121419  0.000126  1.026424  0.0  0.122029  0.117365  0.000307  1.027542  0.0
H  H17  1  0.01800512  0.19971595  0.01731427  1  0.110036  0.000123  0.965971  0.0  0.119248  0.000217  1.026568  0.0  0.121538  0.000126  1.026193  0.0  0.122069  0.117486  0.000307  1.027296  0.0
H  H18  1  0.26469974  0.95121932  0.95465168  1  0.112515  -0.000235  0.956045  0.0  0.119365  -4.7e-05  1.019952  0.0  0.122225  -0.000137  1.018569  0.0  0.120942  0.117288  1.7e-05  1.021009  0.0
H  H19  1  0.73530753  0.04879661  0.04532710  1  0.112501  -0.000241  0.955883  0.0  0.119387  -4.7e-05  1.019756  0.0  0.122243  -0.000138  1.018371  0.0  0.120964  0.11731  1.7e-05  1.020815  0.0
H  H20  1  0.55981179  0.42351933  0.39563362  1  0.091288  -0.000612  0.955617  0.0  0.098634  -0.000326  1.02337  0.0  0.100793  -0.000405  1.021063  0.0  0.134859  0.097159  -0.000257  1.024875  0.0
H  H21  1  0.44017279  0.57648317  0.60437514  1  0.091293  -0.000618  0.955671  0.0  0.098652  -0.000326  1.023405  0.0  0.100807  -0.000404  1.021104  0.0  0.134879  0.097175  -0.000257  1.024906  0.0
H  H22  1  0.06983428  0.34701897  0.50093727  1  0.116929  -0.000247  0.997012  0.0  0.12475  -0.000116  1.059222  0.0  0.127645  -0.00022  1.058213  0.0  0.11907  0.122712  7.3e-05  1.060006  0.0
H  H23  1  0.93015059  0.65296468  0.49907599  1  0.116746  -0.000244  0.997172  0.0  0.124652  -0.000117  1.059301  0.0  0.127546  -0.00022  1.058295  0.0  0.118975  0.122608  7.3e-05  1.060075  0.0
H  H24  1  0.85963968  0.16188898  0.69121604  1  0.105431  -0.000158  0.953415  0.0  0.116847  1e-05  1.007867  0.0  0.119432  -5.1e-05  1.006963  0.0  0.119221  0.115023  7.1e-05  1.008552  0.0
H  H25  1  0.14033309  0.83810608  0.30879773  1  0.105445  -0.000166  0.953309  0.0  0.116852  1e-05  1.007781  0.0  0.119434  -5.1e-05  1.006881  0.0  0.119198  0.115026  7.1e-05  1.008469  0.0
C  C26  1  0.33076223  0.33152505  0.99059350  1  -0.068185  -0.005948  3.766549  -0.004  -0.039967  -0.003411  3.996606  -0.002  -0.048388  -0.004302  4.018429  -0.003  -0.018624  -0.035032  -0.002419  3.982478  -0.002
C  C27  1  0.66923164  0.66849036  0.00940258  1  -0.068685  -0.005814  3.766826  -0.004  -0.040282  -0.003414  3.9967  -0.002  -0.048707  -0.004308  4.018532  -0.003  -0.018786  -0.035346  -0.00242  3.982573  -0.002
C  C28  1  0.27764095  0.48449827  0.98458397  1  -0.052807  0.007521  3.709197  0.006  -0.0806  0.008683  3.958297  0.007  -0.077801  0.006893  3.976648  0.005  -0.081061  -0.082162  0.009152  3.946068  0.007
C  C29  1  0.72238123  0.51551321  0.01541453  1  -0.052563  0.007441  3.709221  0.006  -0.080392  0.008682  3.958242  0.007  -0.077595  0.006897  3.976598  0.005  -0.080888  -0.081976  0.009151  3.946019  0.007
C  C30  1  0.25948474  0.54138002  0.10131043  1  -0.069762  -0.005433  3.764855  -0.004  -0.080994  -0.002635  4.018592  -0.002  -0.085517  -0.003477  4.039397  -0.002  -0.088337  -0.078141  -0.0024  4.005072  -0.002
C  C31  1  0.74052129  0.45861977  0.89869883  1  -0.06995  -0.005303  3.765257  -0.004  -0.081217  -0.002635  4.019022  -0.002  -0.085739  -0.003484  4.039823  -0.002  -0.088409  -0.078374  -0.002399  4.005503  -0.002
C  C32  1  0.28659286  0.44593961  0.22519314  1  -0.064152  0.006874  3.724727  0.006  -0.092306  0.00777  3.974805  0.006  -0.089121  0.006253  3.992648  0.005  -0.087662  -0.094438  0.008295  3.963267  0.007
C  C33  1  0.71341207  0.55404790  0.77481246  1  -0.063935  0.006756  3.724624  0.006  -0.092093  0.007769  3.974732  0.006  -0.088893  0.006258  3.992559  0.005  -0.087578  -0.094227  0.008294  3.963207  0.007
C  C34  1  0.33197550  0.29180303  0.23366283  1  -0.099559  -0.004228  3.793741  -0.003  -0.071909  -0.001897  4.030193  -0.001  -0.081797  -0.003168  4.051847  -0.002  -0.027959  -0.06569  -0.00016  4.01656  -0.001
C  C35  1  0.66801212  0.70819371  0.76633894  1  -0.099752  -0.004093  3.793841  -0.003  -0.072078  -0.001897  4.030275  -0.001  -0.081967  -0.003173  4.05193  -0.002  -0.028017  -0.065861  -0.000158  4.016645  -0.001
C  C36  1  0.35817184  0.23573683  0.11502305  1  -0.08505  0.004026  3.701501  0.004  -0.121726  0.00393  3.949051  0.003  -0.118282  0.003471  3.966091  0.003  -0.079771  -0.124166  0.007423  3.938478  0.006
C  C37  1  0.64183147  0.76426607  0.88496938  1  -0.084869  0.003892  3.701793  0.004  -0.121602  0.00393  3.949261  0.003  -0.118166  0.003474  3.966309  0.003  -0.079715  -0.124036  0.00742  3.938681  0.006
C  C38  1  0.36126752  0.26746572  0.86590611  1  0.62874  0.004085  3.926823  0.002  0.581503  0.007897  4.215704  0.005  0.614988  0.006342  4.211034  0.004  0.203461  0.558764  0.009705  4.217151  0.006
C  C39  1  0.63874328  0.73254924  0.13408590  1  0.628919  0.004082  3.926882  0.002  0.581604  0.007897  4.215786  0.005  0.615089  0.006342  4.211126  0.004  0.203457  0.558862  0.009704  4.217231  0.006
C  C40  1  0.34827120  0.18735748  0.36821392  1  0.651585  0.016107  3.900669  0.016  0.592407  0.026372  4.202152  0.024  0.630161  0.019446  4.192458  0.018  0.216171  0.565462  0.034532  4.208512  0.03
C  C41  1  0.65173609  0.81262758  0.63178108  1  0.651565  0.016076  3.90098  0.016  0.592415  0.026362  4.202404  0.023  0.630164  0.019436  4.192716  0.018  0.216097  0.565458  0.034516  4.208774  0.03
C  C42  1  0.15152168  0.94321836  0.67338108  1  0.21623  0.005044  3.664306  0.005  0.157985  0.007252  3.936516  0.007  0.171423  0.006236  3.949888  0.006  0.145814  0.149247  0.008402  3.9272  0.008
C  C43  1  0.84847966  0.05677899  0.32660915  1  0.21654  0.005089  3.664025  0.005  0.158283  0.00725  3.936206  0.007  0.171715  0.006242  3.949576  0.006  0.145948  0.149542  0.008404  3.926887  0.008
C  C44  1  0.06135084  0.85743399  0.89348192  1  -0.025416  -0.00069  3.705238  0.0  -0.057354  0.000149  3.961295  0.0  -0.056704  -0.000376  3.981292  0.0  -0.000108  -0.0577  0.000642  3.94808  0.0
C  C45  1  0.93866234  0.14256539  0.10651340  1  -0.025572  -0.000773  3.705501  0.0  -0.057576  0.00015  3.961598  0.0  -0.056937  -0.000378  3.981585  0.0  -0.000195  -0.057924  0.000642  3.948391  0.0
C  C46  1  0.19964371  0.93298555  0.87783492  1  -0.01026  0.001595  3.739722  0.002  -0.040659  0.002926  4.001089  0.003  -0.03988  0.0024  4.02338  0.003  -0.001526  -0.041074  0.003358  3.985612  0.004
C  C47  1  0.80037854  0.06702363  0.12215925  1  -0.010131  0.001654  3.740134  0.002  -0.040579  0.002923  4.001543  0.003  -0.03979  0.0024  4.023832  0.003  -0.001483  -0.04099  0.003356  3.986056  0.004
C  C48  1  0.66757917  0.37647550  0.45192906  1  0.216096  0.004575  3.679894  0.005  0.157349  0.006598  3.954103  0.006  0.170964  0.005603  3.967453  0.006  0.144589  0.148493  0.007538  3.944544  0.007
C  C49  1  0.33240451  0.62352366  0.54807873  1  0.215986  0.004592  3.680028  0.005  0.157296  0.006592  3.954257  0.006  0.170903  0.005595  3.96761  0.006  0.144642  0.14845  0.007531  3.9447  0.007
C  C50  1  0.93332174  0.33582369  0.50814600  1  -0.041073  0.000282  3.701018  0.0  -0.077479  0.001077  3.964934  0.001  -0.076963  0.000537  3.984694  0.001  -0.010781  -0.077623  0.001578  3.951708  0.001
C  C51  1  0.06666034  0.66417002  0.49186633  1  -0.040954  0.000255  3.700777  0.0  -0.077372  0.001077  3.964621  0.001  -0.076862  0.000535  3.984393  0.001  -0.010744  -0.077502  0.001578  3.951381  0.001
C  C52  1  0.82821441  0.24398718  0.60139726  1  -0.006684  0.00116  3.743647  0.002  -0.034241  0.002564  4.004955  0.003  -0.032818  0.001996  4.025495  0.003  -0.001913  -0.03529  0.003199  3.99083  0.003
C  C53  1  0.17176546  0.75600323  0.39861434  1  -0.006792  0.0012  3.743452  0.002  -0.03432  0.002561  4.00479  0.003  -0.032904  0.001994  4.025335  0.003  -0.001839  -0.035366  0.003195  3.99066  0.003
N  N54  1  0.25418400  0.98656877  0.74016682  1  -0.395642  0.025314  3.221197  0.01  -0.323213  0.028262  3.50816  0.008  -0.345457  0.025573  3.523949  0.006  -0.346836  -0.306799  0.03074  3.496551  0.01
N  N55  1  0.74581514  0.01343299  0.25981886  1  -0.395808  0.025299  3.221194  0.01  -0.32336  0.028267  3.50815  0.008  -0.345609  0.025575  3.523943  0.006  -0.346932  -0.306945  0.030745  3.49653  0.01
N  N56  1  0.03367515  0.86499747  0.76315419  1  -0.283659  0.000924  3.492211  0.001  -0.218372  0.002134  3.727607  0.002  -0.233518  0.001615  3.744175  0.002  -0.384423  -0.208276  0.002765  3.716386  0.003
N  N57  1  0.96633773  0.13500532  0.23684426  1  -0.28373  0.000901  3.492132  0.001  -0.218385  0.002135  3.727408  0.002  -0.233506  0.001613  3.743952  0.002  -0.384464  -0.208287  0.002765  3.716197  0.003
N  N58  1  0.66267518  0.27026295  0.56524093  1  -0.398465  0.025881  3.237881  0.013  -0.327694  0.028297  3.524773  0.011  -0.349787  0.025638  3.54081  0.009  -0.351817  -0.311638  0.03097  3.513235  0.013
N  N59  1  0.33729704  0.72973427  0.43476852  1  -0.398265  0.02584  3.237597  0.013  -0.327565  0.028298  3.524502  0.011  -0.349647  0.025641  3.540544  0.009  -0.351879  -0.311521  0.030971  3.512969  0.013
N  N60  1  0.82840677  0.41869098  0.41465662  1  -0.295981  0.000804  3.48512  0.001  -0.231466  0.001904  3.726352  0.002  -0.24721  0.001339  3.741113  0.001  -0.384527  -0.220987  0.002487  3.716277  0.002
N  N61  1  0.17158582  0.58130247  0.58535477  1  -0.296075  0.000821  3.485159  0.001  -0.231672  0.001902  3.726509  0.002  -0.247413  0.001338  3.741267  0.001  -0.384647  -0.221197  0.002486  3.71644  0.002
O  O62  1  0.27061568  0.32664562  0.77068088  1  -0.650662  0.018781  1.941041  0.013  -0.596774  0.027183  2.180113  0.02  -0.623826  0.023643  2.169973  0.017  -0.317513  -0.576444  0.030422  2.186461  0.023
O  O63  1  0.72937491  0.67335655  0.22931707  1  -0.650638  0.018786  1.941124  0.013  -0.596798  0.027179  2.180308  0.02  -0.623857  0.023641  2.170176  0.017  -0.317462  -0.576462  0.03042  2.186647  0.023
O  O64  1  0.47869183  0.15218090  0.85936732  1  -0.624116  0.029691  1.952419  0.022  -0.562053  0.034882  2.199543  0.025  -0.592043  0.030753  2.188873  0.021  -0.312604  -0.539324  0.039778  2.205412  0.03
O  O65  1  0.52131388  0.84783075  0.14061961  1  -0.624128  0.029683  1.952217  0.022  -0.562082  0.034883  2.199454  0.025  -0.592036  0.030751  2.188709  0.021  -0.312632  -0.539357  0.03978  2.205326  0.03
O  O66  1  0.35120832  0.24309404  0.46925478  1  -0.630627  0.037528  2.07407  0.024  -0.562376  0.049049  2.347981  0.032  -0.591474  0.042494  2.332897  0.026  -0.305212  -0.541416  0.056076  2.35883  0.038
O  O67  1  0.64877652  0.75690388  0.53074723  1  -0.63048  0.037531  2.074478  0.024  -0.562265  0.049039  2.348465  0.032  -0.591331  0.042485  2.333331  0.026  -0.305071  -0.541301  0.056067  2.359313  0.038
O  O68  1  0.35068113  0.04903926  0.37607862  1  -0.658205  0.032103  2.085359  0.017  -0.593903  0.043823  2.372334  0.024  -0.622804  0.038125  2.354798  0.019  -0.316416  -0.571742  0.048386  2.383869  0.027
O  O69  1  0.64932300  0.95095267  0.62392411  1  -0.658208  0.032111  2.084803  0.017  -0.593963  0.043816  2.371802  0.024  -0.622861  0.038118  2.354264  0.019  -0.316482  -0.571817  0.048381  2.383381  0.027
