# generated using pymatgen
data_AgH5C8(ClO)2
_symmetry_space_group_name_H-M   'P 1'
_cell_length_a   5.08552607
_cell_length_b   12.35977735
_cell_length_c   15.27017713
_cell_angle_alpha   102.24086587
_cell_angle_beta   89.98389754
_cell_angle_gamma   101.88384922
_symmetry_Int_Tables_number   1
_chemical_formula_structural   AgH5C8(ClO)2
_chemical_formula_sum   'Ag4 H20 C32 Cl8 O8'
_cell_volume   916.95122254
_cell_formula_units_Z   4
loop_
 _symmetry_equiv_pos_site_id
 _symmetry_equiv_pos_as_xyz
  1  'x, y, z'
loop_
 _atom_site_type_symbol
 _atom_site_label
 _atom_site_symmetry_multiplicity
 _atom_site_fract_x
 _atom_site_fract_y
 _atom_site_fract_z
 _atom_site_occupancy
 _atom_site_hle17_bader_spin_density
 _atom_site_hle17_ddec_charge
 _atom_site_hle17_ddec_spin_density
 _atom_site_hle17_ddec_sum_bond_order
 _atom_site_hle17_magmom
 _atom_site_hse06_10hf_bader_spin_density
 _atom_site_hse06_10hf_ddec_charge
 _atom_site_hse06_10hf_ddec_spin_density
 _atom_site_hse06_10hf_ddec_sum_bond_order
 _atom_site_hse06_10hf_magmom
 _atom_site_hse06_bader_spin_density
 _atom_site_hse06_ddec_charge
 _atom_site_hse06_ddec_spin_density
 _atom_site_hse06_ddec_sum_bond_order
 _atom_site_hse06_magmom
 _atom_site_pbe_bader_spin_density
 _atom_site_pbe_cm5_charge
 _atom_site_pbe_ddec_charge
 _atom_site_pbe_ddec_spin_density
 _atom_site_pbe_ddec_sum_bond_order
 _atom_site_pbe_magmom
Ag  Ag0  1  0.79564841  0.00143124  0.44199883  1  0  0.547543  0  1.489458  0  0  0.427073  0  1.9708  0  0  0.462867  0  1.907365  0  0  0.387727  0.402204  0  2.014487  0
Ag  Ag1  1  0.79393324  0.99834864  0.05791875  1  0  0.547491  0  1.490013  0  0  0.427119  0  1.971627  0  0  0.462861  0  1.908213  0  0  0.387682  0.402274  0  2.01532  0
Ag  Ag2  1  0.20434524  0.99856882  0.55799906  1  0  0.547543  0  1.48947  0  0  0.427075  0  1.970823  0  0  0.462869  0  1.907387  0  0  0.387714  0.402205  0  2.01451  0
Ag  Ag3  1  0.20606549  0.00164976  0.94208280  1  0  0.547526  0  1.490004  0  0  0.427152  0  1.971623  0  0  0.462895  0  1.908208  0  0  0.387701  0.402307  0  2.015318  0
H  H4  1  0.02243203  0.45383655  0.24207168  1  0  0.106298  0  0.977856  0  0  0.114551  0  1.04352  0  0  0.116776  0  1.043832  0  0  0.097105  0.112939  0  1.043419  0
H  H5  1  0.56821233  0.54676457  0.25818237  1  0  0.104792  0  0.978826  0  0  0.113732  0  1.043843  0  0  0.115883  0  1.044277  0  0  0.096612  0.112087  0  1.043754  0
H  H6  1  0.97756950  0.54616354  0.75792949  1  0  0.106293  0  0.977843  0  0  0.114545  0  1.043511  0  0  0.116772  0  1.04382  0  0  0.097109  0.112932  0  1.043411  0
H  H7  1  0.43178920  0.45323552  0.74181815  1  0  0.10478  0  0.978854  0  0  0.113708  0  1.043884  0  0  0.11585  0  1.044326  0  0  0.096595  0.112063  0  1.043796  0
H  H8  1  0.12343446  0.34887686  0.09181215  1  0  0.09303  0  0.949221  0  0  0.10101  0  1.012356  0  0  0.103845  0  1.011013  0  0  0.096808  0.098994  0  1.013385  0
H  H9  1  0.77542924  0.65157770  0.40830767  1  0  0.092919  0  0.949349  0  0  0.100966  0  1.012279  0  0  0.103693  0  1.011069  0  0  0.096646  0.099032  0  1.013195  0
H  H10  1  0.87655049  0.65112152  0.90818744  1  0  0.093061  0  0.949228  0  0  0.101032  0  1.012362  0  0  0.103868  0  1.011018  0  0  0.096843  0.099017  0  1.013391  0
H  H11  1  0.22457313  0.34842407  0.59169182  1  0  0.092923  0  0.949393  0  0  0.100968  0  1.012332  0  0  0.103695  0  1.011123  0  0  0.09666  0.099035  0  1.013245  0
H  H12  1  0.40738825  0.20365470  0.08120578  1  0  0.116612  0  0.97974  0  0  0.121867  0  1.051377  0  0  0.126631  0  1.046786  0  0  0.096361  0.118376  0  1.054841  0
H  H13  1  0.20529221  0.79633092  0.41862958  1  0  0.117347  0  0.978875  0  0  0.121985  0  1.051058  0  0  0.126713  0  1.046506  0  0  0.096709  0.118501  0  1.054531  0
H  H14  1  0.59259627  0.79634282  0.91879301  1  0  0.116582  0  0.979803  0  0  0.121864  0  1.051414  0  0  0.12663  0  1.04682  0  0  0.096393  0.118372  0  1.054879  0
H  H15  1  0.79470778  0.20367000  0.58136976  1  0  0.117311  0  0.979009  0  0  0.121972  0  1.051142  0  0  0.1267  0  1.046592  0  0  0.096694  0.118489  0  1.054614  0
H  H16  1  0.53636358  0.33276467  0.44972405  1  0  0.109483  0  0.95579  0  0  0.119521  0  1.025698  0  0  0.12192  0  1.024312  0  0  0.09367  0.117791  0  1.026731  0
H  H17  1  0.20357437  0.66710356  0.05012130  1  0  0.110275  0  0.954433  0  0  0.120538  0  1.02423  0  0  0.122962  0  1.02285  0  0  0.09402  0.118822  0  1.025242  0
H  H18  1  0.46363991  0.66723541  0.55027581  1  0  0.109469  0  0.955804  0  0  0.119515  0  1.025709  0  0  0.12192  0  1.024318  0  0  0.093661  0.117786  0  1.026741  0
H  H19  1  0.79642912  0.33289651  0.94987790  1  0  0.110238  0  0.954411  0  0  0.120495  0  1.024223  0  0  0.122917  0  1.022848  0  0  0.094005  0.118781  0  1.025234  0
H  H20  1  0.70421751  0.23545695  0.38376506  1  0  0.127828  0  0.955255  0  0  0.136597  0  1.024448  0  0  0.139533  0  1.022879  0  0  0.09743  0.134468  0  1.025687  0
H  H21  1  0.46861870  0.76461373  0.11593261  1  0  0.126452  0  0.956154  0  0  0.13544  0  1.025647  0  0  0.138373  0  1.024088  0  0  0.096454  0.133318  0  1.026896  0
H  H22  1  0.29578360  0.76454228  0.61623466  1  0  0.12784  0  0.955185  0  0  0.136607  0  1.024394  0  0  0.139543  0  1.022825  0  0  0.097431  0.134479  0  1.025635  0
H  H23  1  0.53138479  0.23538634  0.88406660  1  0  0.126469  0  0.956111  0  0  0.135453  0  1.025617  0  0  0.138387  0  1.024058  0  0  0.096459  0.133332  0  1.026865  0
C  C24  1  0.40286593  0.28542732  0.31102541  1  0  0.025771  0  3.729443  0  0  0.028651  0  3.969114  0  0  0.028577  0  3.992471  0  0  -0.018197  0.028685  0  3.953346  0
C  C25  1  0.11773803  0.71457508  0.18885238  1  0  0.024669  0  3.730257  0  0  0.02751  0  3.97005  0  0  0.027578  0  3.99321  0  0  -0.018193  0.027455  0  3.954434  0
C  C26  1  0.59713842  0.71457446  0.68897605  1  0  0.025953  0  3.729201  0  0  0.028839  0  3.968916  0  0  0.028766  0  3.992271  0  0  -0.018174  0.028872  0  3.953154  0
C  C27  1  0.88226743  0.28542500  0.81114748  1  0  0.024691  0  3.730275  0  0  0.027557  0  3.970056  0  0  0.027627  0  3.993215  0  0  -0.018188  0.027501  0  3.954441  0
C  C28  1  0.24690992  0.36743239  0.31353701  1  0  0.099265  0  3.739544  0  0  0.106727  0  4.007293  0  0  0.109418  0  4.027312  0  0  0.014172  0.104701  0  3.993871  0
C  C29  1  0.87928750  0.63280650  0.18648868  1  0  0.100259  0  3.738861  0  0  0.108041  0  4.006083  0  0  0.110716  0  4.026053  0  0  0.015232  0.10603  0  3.99268  0
C  C30  1  0.75309160  0.63256768  0.68646219  1  0  0.099106  0  3.739595  0  0  0.106523  0  4.007414  0  0  0.109214  0  4.02743  0  0  0.014095  0.104497  0  3.993997  0
C  C31  1  0.12071642  0.36719442  0.81351067  1  0  0.10023  0  3.738893  0  0  0.108033  0  4.006078  0  0  0.11071  0  4.026043  0  0  0.015222  0.106022  0  3.992678  0
C  C32  1  0.14386319  0.39000229  0.23616575  1  0  -0.143444  0  3.772614  0  0  -0.170069  0  4.03059  0  0  -0.172107  0  4.049995  0  0  -0.106194  -0.168608  0  4.017499  0
C  C33  1  0.75382874  0.61042512  0.26394831  1  0  -0.14038  0  3.772103  0  0  -0.167713  0  4.029787  0  0  -0.169717  0  4.049228  0  0  -0.10538  -0.166218  0  4.016702  0
C  C34  1  0.85613245  0.60999779  0.76383477  1  0  -0.143351  0  3.772551  0  0  -0.169957  0  4.030528  0  0  -0.171994  0  4.049928  0  0  -0.106145  -0.168494  0  4.017442  0
C  C35  1  0.24617672  0.38957496  0.73605155  1  0  -0.140387  0  3.772113  0  0  -0.167717  0  4.029792  0  0  -0.16972  0  4.049251  0  0  -0.10537  -0.166223  0  4.01671  0
C  C36  1  0.20036827  0.33075521  0.15250505  1  0  -0.030251  0  3.774146  0  0  -0.046724  0  4.037341  0  0  -0.047347  0  4.057261  0  0  -0.089687  -0.046285  0  4.023772  0
C  C37  1  0.87035415  0.66955461  0.34752843  1  0  -0.033403  0  3.777281  0  0  -0.049862  0  4.040537  0  0  -0.050497  0  4.060594  0  0  -0.090935  -0.049437  0  4.026905  0
C  C38  1  0.79961992  0.66924572  0.84749561  1  0  -0.030334  0  3.774185  0  0  -0.04679  0  4.037371  0  0  -0.047419  0  4.057301  0  0  -0.089731  -0.046345  0  4.023794  0
C  C39  1  0.12965370  0.33044631  0.65247092  1  0  -0.033357  0  3.777243  0  0  -0.049811  0  4.040508  0  0  -0.050451  0  4.060571  0  0  -0.090921  -0.049387  0  4.026877  0
C  C40  1  0.35633600  0.24915939  0.14601732  1  0  -0.149181  0  3.765807  0  0  -0.178138  0  4.029789  0  0  -0.180826  0  4.04831  0  0  -0.105351  -0.176272  0  4.017484  0
C  C41  1  0.10841542  0.75087069  0.35385652  1  0  -0.147945  0  3.766687  0  0  -0.176565  0  4.031164  0  0  -0.179185  0  4.049599  0  0  -0.105034  -0.174728  0  4.018869  0
C  C42  1  0.64364980  0.75084070  0.85398320  1  0  -0.149196  0  3.765881  0  0  -0.178151  0  4.029838  0  0  -0.18084  0  4.048357  0  0  -0.105405  -0.176284  0  4.017536  0
C  C43  1  0.89158877  0.24912683  0.64614160  1  0  -0.148004  0  3.766704  0  0  -0.176641  0  4.031196  0  0  -0.179258  0  4.049626  0  0  -0.10506  -0.1748  0  4.018894  0
C  C44  1  0.45150045  0.22756732  0.22484507  1  0  0.106047  0  3.728808  0  0  0.114582  0  3.991708  0  0  0.116957  0  4.01441  0  0  0.017483  0.112761  0  3.976406  0
C  C45  1  0.22495831  0.77234997  0.27496028  1  0  0.105368  0  3.731175  0  0  0.114341  0  3.993348  0  0  0.116684  0  4.016023  0  0  0.017094  0.112549  0  3.978029  0
C  C46  1  0.54849321  0.77243275  0.77515414  1  0  0.10603  0  3.728799  0  0  0.114527  0  3.991771  0  0  0.116902  0  4.014472  0  0  0.017468  0.112704  0  3.976477  0
C  C47  1  0.77504673  0.22764926  0.72503878  1  0  0.105422  0  3.731116  0  0  0.114371  0  3.993326  0  0  0.116715  0  4.015998  0  0  0.017101  0.112579  0  3.978008  0
C  C48  1  0.50731466  0.25834924  0.39375302  1  0  -0.315915  0  3.726537  0  0  -0.353092  0  3.959799  0  0  -0.360014  0  3.967963  0  0  -0.171838  -0.348225  0  3.954132  0
C  C49  1  0.24878398  0.74158403  0.10602967  1  0  -0.316397  0  3.728157  0  0  -0.354354  0  3.962452  0  0  -0.361461  0  3.970833  0  0  -0.171904  -0.349437  0  3.956727  0
C  C50  1  0.49268883  0.74165083  0.60624618  1  0  -0.315987  0  3.726446  0  0  -0.353136  0  3.959628  0  0  -0.360061  0  3.967788  0  0  -0.171837  -0.348268  0  3.953965  0
C  C51  1  0.75121866  0.25841435  0.89396926  1  0  -0.31638  0  3.728095  0  0  -0.354352  0  3.962452  0  0  -0.36146  0  3.97084  0  0  -0.171902  -0.349435  0  3.956726  0
C  C52  1  0.32030504  0.16239145  0.42636797  1  0  0.702065  0  3.829342  0  0  0.655728  0  4.114288  0  0  0.690554  0  4.111156  0  0  0.208362  0.63199  0  4.115461  0
C  C53  1  0.15728730  0.83738023  0.07340809  1  0  0.702715  0  3.830604  0  0  0.656261  0  4.115922  0  0  0.691113  0  4.112789  0  0  0.208254  0.632527  0  4.117117  0
C  C54  1  0.67969607  0.83760778  0.57363241  1  0  0.702121  0  3.829395  0  0  0.655806  0  4.114311  0  0  0.690632  0  4.11118  0  0  0.2084  0.632068  0  4.115487  0
C  C55  1  0.84271578  0.16261902  0.92659294  1  0  0.702778  0  3.830857  0  0  0.656325  0  4.116174  0  0  0.691177  0  4.113043  0  0  0.208335  0.632591  0  4.117369  0
Cl  Cl56  1  0.18018884  0.44630176  0.41670332  1  0  -0.091265  0  1.3763  0  0  -0.068765  0  1.613654  0  0  -0.073196  0  1.609197  0  0  0.009738  -0.065509  0  1.61679  0
Cl  Cl57  1  0.73308420  0.55405415  0.08339489  1  0  -0.091034  0  1.376437  0  0  -0.068598  0  1.613701  0  0  -0.073046  0  1.609286  0  0  0.00987  -0.065335  0  1.616798  0
Cl  Cl58  1  0.81981465  0.55369832  0.58329719  1  0  -0.09121  0  1.376376  0  0  -0.068695  0  1.613742  0  0  -0.073127  0  1.609287  0  0  0.009786  -0.065438  0  1.616879  0
Cl  Cl59  1  0.26691312  0.44594930  0.91660423  1  0  -0.091029  0  1.376434  0  0  -0.068598  0  1.613682  0  0  -0.073044  0  1.609266  0  0  0.009864  -0.065335  0  1.61678  0
Cl  Cl60  1  0.63868098  0.12330290  0.21772277  1  0  -0.065034  0  1.542878  0  0  -0.033095  0  1.832676  0  0  -0.039831  0  1.822372  0  0  0.029792  -0.028335  0  1.839994  0
Cl  Cl61  1  0.51698611  0.87631018  0.28192802  1  0  -0.064456  0  1.544421  0  0  -0.032466  0  1.834022  0  0  -0.039221  0  1.823755  0  0  0.030035  -0.027684  0  1.841285  0
Cl  Cl62  1  0.36131660  0.87669715  0.78227512  1  0  -0.065046  0  1.542915  0  0  -0.033102  0  1.832735  0  0  -0.039837  0  1.82243  0  0  0.029784  -0.028341  0  1.840056  0
Cl  Cl63  1  0.48301977  0.12369074  0.71807133  1  0  -0.064444  0  1.544409  0  0  -0.032452  0  1.834034  0  0  -0.039205  0  1.823767  0  0  0.030051  -0.02767  0  1.841296  0
O  O64  1  0.07814105  0.13382347  0.39644439  1  0  -0.593534  0  2.092801  0  0  -0.519116  0  2.357305  0  0  -0.551342  0  2.347912  0  0  -0.321219  -0.496815  0  2.362979  0
O  O65  1  0.94345719  0.86577766  0.10330757  1  0  -0.593203  0  2.093859  0  0  -0.518836  0  2.358775  0  0  -0.551038  0  2.349339  0  0  -0.320903  -0.49656  0  2.364482  0
O  O66  1  0.92186245  0.86617661  0.60355547  1  0  -0.593588  0  2.092823  0  0  -0.51919  0  2.35733  0  0  -0.551416  0  2.347935  0  0  -0.321253  -0.496889  0  2.363006  0
O  O67  1  0.05654828  0.13422244  0.89669491  1  0  -0.593242  0  2.093905  0  0  -0.518864  0  2.358822  0  0  -0.551065  0  2.349386  0  0  -0.320936  -0.496588  0  2.36453  0
O  O68  1  0.42725080  0.12095956  0.48393032  1  0  -0.645435  0  2.171551  0  0  -0.557488  0  2.45208  0  0  -0.592505  0  2.440179  0  0  -0.336357  -0.533097  0  2.459317  0
O  O69  1  0.30572913  0.87894196  0.01588486  1  0  -0.64535  0  2.170756  0  0  -0.55737  0  2.451511  0  0  -0.592332  0  2.439535  0  0  -0.336058  -0.532976  0  2.458659  0
O  O70  1  0.57274919  0.87904138  0.51607165  1  0  -0.645432  0  2.171552  0  0  -0.557501  0  2.452089  0  0  -0.592519  0  2.440189  0  0  -0.336349  -0.533109  0  2.459326  0
O  O71  1  0.69427436  0.12105811  0.98411435  1  0  -0.645382  0  2.170944  0  0  -0.5574  0  2.451686  0  0  -0.592365  0  2.439722  0  0  -0.33611  -0.533003  0  2.458832  0
