# generated using pymatgen
data_CoH12C18N2O5
_symmetry_space_group_name_H-M   'P 1'
_cell_length_a   13.59456862
_cell_length_b   15.14230661
_cell_length_c   17.52934319
_cell_angle_alpha   89.99996488
_cell_angle_beta   89.99995746
_cell_angle_gamma   90.00040308
_symmetry_Int_Tables_number   1
_chemical_formula_structural   CoH12C18N2O5
_chemical_formula_sum   'Co8 H96 C144 N16 O40'
_cell_volume   3608.47009770
_cell_formula_units_Z   8
loop_
 _symmetry_equiv_pos_site_id
 _symmetry_equiv_pos_as_xyz
  1  'x, y, z'
loop_
 _atom_site_type_symbol
 _atom_site_label
 _atom_site_symmetry_multiplicity
 _atom_site_fract_x
 _atom_site_fract_y
 _atom_site_fract_z
 _atom_site_occupancy
 _atom_site_pbe_bader_charge
 _atom_site_pbe_bader_spin_density
 _atom_site_pbe_cm5_charge
 _atom_site_pbe_ddec_charge
 _atom_site_pbe_ddec_spin_density
 _atom_site_pbe_ddec_sum_bond_order
 _atom_site_pbe_magmom
Co  Co0  1  0.47720113  0.12055894  0.44274374  1  1.305987  2.621751  0.692391  0.904602  2.851924  2.492142  2.595
Co  Co1  1  0.02279852  0.12055764  0.05725653  1  1.305999  2.621759  0.692377  0.904588  2.851942  2.49226  2.595
Co  Co2  1  0.97720325  0.37944111  0.55725438  1  1.306181  2.621744  0.692367  0.904565  2.851933  2.492299  2.595
Co  Co3  1  0.52279659  0.37944351  0.94274471  1  1.306106  2.621749  0.692381  0.90461  2.851932  2.492209  2.595
Co  Co4  1  0.52279874  0.87944475  0.55725552  1  1.306092  2.621744  0.692382  0.904575  2.851926  2.492219  2.595
Co  Co5  1  0.97720209  0.87944076  0.94274330  1  1.306002  2.621747  0.692371  0.904544  2.851923  2.492281  2.595
Co  Co6  1  0.02280104  0.62055729  0.44274203  1  1.305986  2.621746  0.692372  0.904613  2.85192  2.492162  2.595
Co  Co7  1  0.47720181  0.62055754  0.05725398  1  1.306229  2.621736  0.692366  0.904532  2.851921  2.492323  2.595
H  H8  1  0.57059834  0.07316538  0.86600888  1  0.087753  0.000404  0.1106  0.135236  0.000192  1.013826  0.0
H  H9  1  0.92940057  0.07316329  0.63399266  1  0.087779  0.000404  0.110602  0.135236  0.000192  1.01381  0.0
H  H10  1  0.07060554  0.42683673  0.13398891  1  0.087667  0.000404  0.11064  0.135289  0.000192  1.013718  0.0
H  H11  1  0.42939872  0.42683844  0.36600948  1  0.087678  0.000404  0.110621  0.135228  0.000192  1.013827  0.0
H  H12  1  0.42940080  0.92683698  0.13399210  1  0.087757  0.000404  0.110625  0.135273  0.000192  1.013775  0.0
H  H13  1  0.07060225  0.92683577  0.36600489  1  0.087804  0.000404  0.110596  0.135225  0.000192  1.013846  0.0
H  H14  1  0.92940021  0.57316365  0.86600750  1  0.087739  0.000404  0.110593  0.135227  0.000192  1.013811  0.0
H  H15  1  0.57059894  0.57316260  0.63398921  1  0.087675  0.000404  0.110623  0.135274  0.000192  1.013798  0.0
H  H16  1  0.56249944  0.97338955  0.73468369  1  0.137016  -3.8e-05  0.111948  0.145757  -0.000176  1.042787  0.0
H  H17  1  0.93750065  0.97339270  0.76531679  1  0.137064  -3.8e-05  0.111971  0.145795  -0.000176  1.042796  0.0
H  H18  1  0.06250264  0.52660812  0.26531497  1  0.137022  -3.8e-05  0.111953  0.145788  -0.000176  1.042736  0.0
H  H19  1  0.43749506  0.52661525  0.23468337  1  0.136958  -3.7e-05  0.111943  0.145787  -0.000176  1.042692  0.0
H  H20  1  0.43749602  0.02660556  0.26531557  1  0.137155  -3.8e-05  0.111969  0.145834  -0.000176  1.042669  0.0
H  H21  1  0.06250289  0.02660637  0.23468190  1  0.137074  -3.8e-05  0.111947  0.145809  -0.000176  1.042783  0.0
H  H22  1  0.93749650  0.47339227  0.73468201  1  0.137099  -3.7e-05  0.111948  0.145806  -0.000176  1.04274  0.0
H  H23  1  0.56250187  0.47339173  0.76531418  1  0.137104  -3.8e-05  0.111949  0.145795  -0.000176  1.042705  0.0
H  H24  1  0.65498778  0.18377309  0.53277500  1  0.09427  0.001318  0.11581  0.086569  0.000264  1.010085  0.001
H  H25  1  0.84501199  0.18376561  0.96722306  1  0.094358  0.001318  0.115831  0.086585  0.000264  1.010133  0.001
H  H26  1  0.15498571  0.31623418  0.46722331  1  0.094268  0.001318  0.115833  0.086589  0.000264  1.010118  0.001
H  H27  1  0.34501181  0.31623691  0.03277686  1  0.094409  0.001318  0.115825  0.086551  0.000265  1.010125  0.001
H  H28  1  0.34501283  0.81623060  0.46722426  1  0.09427  0.001318  0.115848  0.086552  0.000264  1.010136  0.001
H  H29  1  0.15498861  0.81622949  0.03277449  1  0.094301  0.001318  0.115804  0.086553  0.000264  1.01005  0.001
H  H30  1  0.84501784  0.68376686  0.53277652  1  0.094238  0.001318  0.115811  0.086575  0.000264  1.010103  0.001
H  H31  1  0.65498586  0.68376809  0.96722183  1  0.094235  0.001318  0.115813  0.086548  0.000264  1.010137  0.001
H  H32  1  0.83683763  0.18775721  0.51899976  1  0.127966  0.00066  0.110202  0.128824  0.000159  1.023406  0.0
H  H33  1  0.66316438  0.18775452  0.98100571  1  0.128108  0.00066  0.110208  0.128865  0.000159  1.023417  0.0
H  H34  1  0.33683404  0.31224262  0.48100244  1  0.128033  0.00066  0.110199  0.128842  0.000159  1.023432  0.0
H  H35  1  0.16316344  0.31224686  0.01899602  1  0.128057  0.00066  0.110206  0.128821  0.000159  1.023464  0.0
H  H36  1  0.16316444  0.81224054  0.48100464  1  0.128021  0.00066  0.110204  0.128821  0.000159  1.023401  0.0
H  H37  1  0.33683549  0.81224058  0.01899412  1  0.128074  0.00066  0.110205  0.128828  0.000159  1.023439  0.0
H  H38  1  0.66316950  0.68775908  0.51899967  1  0.127981  0.00066  0.110181  0.128807  0.000159  1.023423  0.0
H  H39  1  0.83683570  0.68775683  0.98100267  1  0.128013  0.00066  0.110209  0.128851  0.000159  1.023423  0.0
H  H40  1  0.80148634  0.05648193  0.30204188  1  0.035825  0.000884  0.104903  0.111278  0.000418  1.015675  0.0
H  H41  1  0.69852248  0.05648164  0.19796214  1  0.035496  0.000885  0.104927  0.111323  0.000418  1.015651  0.0
H  H42  1  0.30148504  0.44351306  0.69795977  1  0.035801  0.000884  0.104951  0.111345  0.000418  1.015669  0.0
H  H43  1  0.19851740  0.44351534  0.80203786  1  0.035455  0.000885  0.104903  0.111315  0.000418  1.01565  0.0
H  H44  1  0.19852089  0.94351516  0.69796081  1  0.035534  0.000884  0.104921  0.111314  0.000418  1.015633  0.0
H  H45  1  0.30147960  0.94351941  0.80203884  1  0.035785  0.000884  0.104907  0.111291  0.000418  1.015641  0.0
H  H46  1  0.69851409  0.55648799  0.30204120  1  0.035826  0.000884  0.104971  0.111343  0.000418  1.015669  0.0
H  H47  1  0.80148100  0.55648571  0.19795798  1  0.035564  0.000884  0.104942  0.111328  0.000418  1.015669  0.0
H  H48  1  0.61970344  0.05776054  0.32498517  1  0.109482  0.001616  0.112881  0.080494  0.000414  1.028586  0.001
H  H49  1  0.88030465  0.05776340  0.17501313  1  0.109338  0.001616  0.11283  0.080421  0.000413  1.028686  0.001
H  H50  1  0.11970216  0.44223924  0.67501430  1  0.109465  0.001616  0.112864  0.080488  0.000413  1.028633  0.001
H  H51  1  0.38030028  0.44224067  0.82498448  1  0.109692  0.001615  0.112872  0.080458  0.000413  1.028647  0.001
H  H52  1  0.38030231  0.94223786  0.67501238  1  0.109368  0.001616  0.112849  0.080451  0.000413  1.028703  0.001
H  H53  1  0.11969743  0.94223831  0.82498670  1  0.109713  0.001615  0.112838  0.080421  0.000413  1.028731  0.001
H  H54  1  0.88029624  0.55776115  0.32498610  1  0.109479  0.001615  0.112868  0.080476  0.000413  1.028657  0.001
H  H55  1  0.61969812  0.55776368  0.17501307  1  0.109449  0.001615  0.112864  0.080477  0.000413  1.028675  0.001
H  H56  1  0.96640093  0.11244947  0.33836149  1  0.09848  2.7e-05  0.104447  0.111943  1.7e-05  1.017924  0.0
H  H57  1  0.53359876  0.11245741  0.16164307  1  0.098384  2.7e-05  0.104391  0.111893  1.7e-05  1.018056  0.0
H  H58  1  0.46640070  0.38754127  0.66163836  1  0.098479  2.7e-05  0.10445  0.11194  1.7e-05  1.018001  0.0
H  H59  1  0.03359689  0.38754183  0.83835760  1  0.098371  2.7e-05  0.104422  0.111903  1.7e-05  1.018051  0.0
H  H60  1  0.03359820  0.88754233  0.66164348  1  0.098376  2.7e-05  0.104398  0.111913  1.7e-05  1.018071  0.0
H  H61  1  0.46640405  0.88754760  0.83835905  1  0.098401  2.7e-05  0.104405  0.11188  1.7e-05  1.018072  0.0
H  H62  1  0.53359696  0.61246043  0.33835805  1  0.098398  2.6e-05  0.104437  0.111925  1.7e-05  1.018041  0.0
H  H63  1  0.96640225  0.61245922  0.16164053  1  0.098418  2.7e-05  0.10444  0.111955  1.7e-05  1.018062  0.0
H  H64  1  0.97860209  0.12279463  0.51409596  1  0.094289  0.000263  0.101633  0.101261  0.000184  1.041058  0.0
H  H65  1  0.52140162  0.12279105  0.98590955  1  0.094354  0.000264  0.101612  0.101262  0.000184  1.041173  0.0
H  H66  1  0.47860636  0.37720609  0.48590673  1  0.094398  0.000264  0.101628  0.101265  0.000184  1.041139  0.0
H  H67  1  0.02140046  0.37720679  0.01409112  1  0.094278  0.000264  0.101592  0.101234  0.000184  1.041227  0.0
H  H68  1  0.02139926  0.87721170  0.48591015  1  0.094396  0.000264  0.101604  0.101277  0.000184  1.04116  0.0
H  H69  1  0.47860119  0.87720207  0.01409143  1  0.094262  0.000263  0.101615  0.101267  0.000184  1.041229  0.0
H  H70  1  0.52139646  0.62279760  0.51409082  1  0.094306  0.000263  0.101611  0.10128  0.000184  1.041241  0.0
H  H71  1  0.97860603  0.62279227  0.98590871  1  0.094437  0.000264  0.101621  0.101263  0.000184  1.041189  0.0
H  H72  1  0.13221395  0.09934307  0.57137902  1  0.076599  0.000811  0.106138  0.11375  0.000357  1.005929  0.0
H  H73  1  0.36778285  0.09934435  0.92862223  1  0.076647  0.000811  0.10614  0.113741  0.000357  1.005882  0.0
H  H74  1  0.63221930  0.40065480  0.42862501  1  0.076429  0.000811  0.106139  0.113716  0.000357  1.005861  0.0
H  H75  1  0.86778192  0.40065633  0.07137824  1  0.076651  0.000811  0.106113  0.113718  0.000357  1.005835  0.0
H  H76  1  0.86778151  0.90065797  0.42862367  1  0.0764  0.000811  0.106117  0.113692  0.000357  1.005883  0.0
H  H77  1  0.63221775  0.90065273  0.07137704  1  0.076391  0.000811  0.106143  0.113712  0.000357  1.005887  0.0
H  H78  1  0.36778131  0.59934756  0.57137653  1  0.07642  0.000811  0.106139  0.113674  0.000358  1.005836  0.0
H  H79  1  0.13222162  0.59934405  0.92862444  1  0.076447  0.000811  0.106141  0.113725  0.000357  1.005848  0.0
H  H80  1  0.12666274  0.13876646  0.32697510  1  0.074437  0.000945  0.107137  0.120397  0.000459  1.020848  0.0
H  H81  1  0.37332823  0.13876201  0.17302973  1  0.075212  0.000945  0.107134  0.120362  0.000459  1.020872  0.0
H  H82  1  0.62666901  0.36123667  0.67303007  1  0.075126  0.000945  0.107161  0.120384  0.000459  1.020849  0.0
H  H83  1  0.87332774  0.36123739  0.82697131  1  0.075214  0.000945  0.10717  0.120432  0.000459  1.020898  0.0
H  H84  1  0.87332757  0.86123524  0.67303044  1  0.074932  0.000945  0.107164  0.120409  0.000459  1.020864  0.0
H  H85  1  0.62667090  0.86122979  0.82697296  1  0.07498  0.000945  0.107147  0.120404  0.000459  1.020945  0.0
H  H86  1  0.37333601  0.63876900  0.32697318  1  0.074784  0.000945  0.107124  0.120382  0.000459  1.020952  0.0
H  H87  1  0.12667139  0.63876233  0.17302966  1  0.075151  0.000945  0.107171  0.120425  0.000459  1.02083  0.0
H  H88  1  0.31536725  0.10204800  0.56406779  1  0.084496  0.001418  0.114939  0.08635  0.00019  1.011882  0.001
H  H89  1  0.18463251  0.10204746  0.93593116  1  0.0845  0.001419  0.114926  0.086319  0.000191  1.011885  0.001
H  H90  1  0.81536963  0.39795368  0.43593271  1  0.084501  0.001418  0.114933  0.08631  0.00019  1.011936  0.001
H  H91  1  0.68463304  0.39795406  0.06406827  1  0.08447  0.001418  0.11493  0.086316  0.00019  1.011885  0.001
H  H92  1  0.68463262  0.89795305  0.43593147  1  0.084529  0.001419  0.114925  0.086327  0.000191  1.011871  0.001
H  H93  1  0.81536883  0.89795095  0.06406867  1  0.084436  0.001419  0.114939  0.086344  0.000191  1.011887  0.001
H  H94  1  0.18462950  0.60204406  0.56406427  1  0.084616  0.001419  0.114906  0.086252  0.00019  1.011994  0.001
H  H95  1  0.31537125  0.60204501  0.93593327  1  0.084526  0.001419  0.114928  0.086294  0.00019  1.011928  0.001
H  H96  1  0.30980278  0.13570542  0.33002707  1  0.091883  0.001483  0.113567  0.084409  0.000277  1.02118  0.001
H  H97  1  0.19019038  0.13570113  0.16997148  1  0.091562  0.001483  0.113554  0.084481  0.000278  1.021184  0.001
H  H98  1  0.80981055  0.36429754  0.66997115  1  0.091494  0.001483  0.113566  0.084492  0.000277  1.02117  0.001
H  H99  1  0.69018917  0.36429645  0.83002966  1  0.091591  0.001483  0.113528  0.084448  0.000277  1.021219  0.001
H  H100  1  0.69018606  0.86429563  0.66997048  1  0.091096  0.001483  0.113582  0.084487  0.000277  1.021271  0.001
H  H101  1  0.80981023  0.86429397  0.83002892  1  0.091506  0.001483  0.11356  0.084479  0.000277  1.021217  0.001
H  H102  1  0.19019226  0.63570152  0.33002583  1  0.091797  0.001483  0.11357  0.084479  0.000277  1.021133  0.001
H  H103  1  0.30981217  0.63570393  0.16997131  1  0.091071  0.001483  0.113555  0.084477  0.000277  1.021268  0.001
C  C104  1  0.51392660  0.08236469  0.60135436  1  1.591886  -0.004135  0.209978  0.53877  -0.00497  4.269517  0.0
C  C105  1  0.98607164  0.08236343  0.89864546  1  1.591515  -0.004133  0.209978  0.53889  -0.004971  4.269296  0.0
C  C106  1  0.01392760  0.41763641  0.39864232  1  1.592096  -0.004132  0.210064  0.538987  -0.004972  4.269205  0.0
C  C107  1  0.48607071  0.41764064  0.10135608  1  1.591416  -0.004132  0.210054  0.538998  -0.004971  4.269158  0.0
C  C108  1  0.48607842  0.91763504  0.39864718  1  1.591558  -0.004133  0.210031  0.538855  -0.004972  4.269229  0.0
C  C109  1  0.01392308  0.91763365  0.10135209  1  1.591554  -0.004135  0.210036  0.538953  -0.004973  4.269185  0.0
C  C110  1  0.98607889  0.58236133  0.60135295  1  1.591456  -0.004132  0.210142  0.539095  -0.004972  4.269007  0.0
C  C111  1  0.51392033  0.58236635  0.89864489  1  1.591788  -0.004135  0.210071  0.538971  -0.004972  4.269282  0.0
C  C112  1  0.52743424  0.10100783  0.68276185  1  0.412968  0.008405  0.062593  0.068984  0.004245  3.948007  0.007
C  C113  1  0.97256856  0.10100721  0.81723910  1  0.412965  0.008403  0.062645  0.069028  0.004244  3.94787  0.007
C  C114  1  0.02743222  0.39899401  0.31723482  1  0.412849  0.008403  0.062647  0.068963  0.004243  3.948027  0.007
C  C115  1  0.47256300  0.39899744  0.18276245  1  0.413061  0.008405  0.062613  0.06897  0.004245  3.947941  0.007
C  C116  1  0.47257593  0.89899387  0.31723912  1  0.412935  0.008404  0.062626  0.069063  0.004245  3.947591  0.007
C  C117  1  0.02743131  0.89898922  0.18275902  1  0.412969  0.008406  0.062657  0.069001  0.004245  3.947628  0.007
C  C118  1  0.97256765  0.60100770  0.68276045  1  0.412984  0.008405  0.062619  0.068985  0.004245  3.94777  0.007
C  C119  1  0.52742290  0.60100426  0.81723738  1  0.41297  0.008404  0.06254  0.06893  0.004245  3.947733  0.007
C  C120  1  0.53262996  0.18092100  0.78730482  1  0.405685  0.000859  0.064791  0.083262  -0.000147  3.941462  0.001
C  C121  1  0.96736979  0.18092240  0.71269666  1  0.405453  0.000857  0.064808  0.083398  -0.000148  3.941254  0.001
C  C122  1  0.03263551  0.31907889  0.21269413  1  0.405357  0.000858  0.064797  0.083267  -0.000147  3.941417  0.001
C  C123  1  0.46736644  0.31908354  0.28730604  1  0.405387  0.000858  0.064773  0.083229  -0.000148  3.941579  0.001
C  C124  1  0.46736108  0.81907608  0.21269615  1  0.405806  0.000857  0.064782  0.083358  -0.000148  3.941374  0.001
C  C125  1  0.03263817  0.81907601  0.28730318  1  0.405518  0.000855  0.064794  0.083276  -0.00015  3.941257  0.001
C  C126  1  0.96736510  0.68092083  0.78730456  1  0.40549  0.000857  0.064787  0.083324  -0.000148  3.941368  0.001
C  C127  1  0.53263343  0.68091949  0.71269322  1  0.405396  0.000858  0.064781  0.083376  -0.000148  3.941427  0.001
C  C128  1  0.55370200  0.09522606  0.80864107  1  0.004818  -0.000443  -0.108121  -0.181946  -0.000821  4.005726  0.0
C  C129  1  0.94629561  0.09522866  0.69135932  1  0.004839  -0.000443  -0.108079  -0.181938  -0.000821  4.005671  0.0
C  C130  1  0.05370750  0.40477199  0.19135559  1  0.004892  -0.000444  -0.108117  -0.181989  -0.000822  4.005736  0.0
C  C131  1  0.44629585  0.40477913  0.30864282  1  0.004583  -0.000443  -0.108159  -0.181921  -0.000821  4.005745  0.0
C  C132  1  0.44629272  0.90477037  0.19135820  1  0.004766  -0.000443  -0.108108  -0.18204  -0.00082  4.005633  0.0
C  C133  1  0.05370868  0.90477173  0.30863880  1  0.004547  -0.000443  -0.108073  -0.181876  -0.00082  4.005652  0.0
C  C134  1  0.94629531  0.59522575  0.80864082  1  0.004852  -0.000443  -0.108095  -0.181934  -0.000821  4.005648  0.0
C  C135  1  0.55370622  0.59522654  0.69135645  1  0.004706  -0.000443  -0.108097  -0.182028  -0.00082  4.005714  0.0
C  C136  1  0.55075359  0.04380392  0.74134192  1  -0.028509  -0.002899  -0.108172  -0.183884  -0.003367  3.993778  -0.001
C  C137  1  0.94924655  0.04380517  0.75865735  1  -0.028483  -0.0029  -0.108222  -0.183959  -0.003368  3.993783  -0.001
C  C138  1  0.05075650  0.45619609  0.25865530  1  -0.028373  -0.002899  -0.108286  -0.18397  -0.003367  3.993782  -0.001
C  C139  1  0.44924212  0.45619999  0.24134250  1  -0.028237  -0.0029  -0.108165  -0.18393  -0.003368  3.993609  -0.001
C  C140  1  0.44925143  0.95619382  0.25865677  1  -0.028413  -0.0029  -0.108255  -0.184023  -0.003368  3.993584  -0.001
C  C141  1  0.05075553  0.95619257  0.24133963  1  -0.028112  -0.002902  -0.108279  -0.184113  -0.00337  3.993743  -0.001
C  C142  1  0.94924558  0.54380496  0.74134110  1  -0.028562  -0.0029  -0.108244  -0.184034  -0.003369  3.993776  -0.001
C  C143  1  0.55074893  0.54380369  0.75865676  1  -0.02835  -0.002901  -0.10822  -0.183934  -0.003369  3.993531  -0.001
C  C144  1  0.52823586  0.26251158  0.83236639  1  1.596018  -0.003846  0.188652  0.506986  -0.004918  4.322255  -0.004
C  C145  1  0.97175939  0.26251567  0.66763676  1  1.596686  -0.003845  0.188615  0.506885  -0.004919  4.32234  -0.004
C  C146  1  0.02824375  0.23748499  0.16763485  1  1.595574  -0.003847  0.188691  0.50708  -0.00492  4.322136  -0.004
C  C147  1  0.47175682  0.23749029  0.33236479  1  1.5962  -0.003845  0.188684  0.506981  -0.004918  4.3224  -0.004
C  C148  1  0.47175592  0.73748220  0.16763801  1  1.596259  -0.003844  0.188723  0.506951  -0.004918  4.322226  -0.004
C  C149  1  0.02824343  0.73748603  0.33236650  1  1.595272  -0.003849  0.188656  0.506988  -0.00492  4.322348  -0.004
C  C150  1  0.97175759  0.76251210  0.83236670  1  1.595809  -0.003848  0.188647  0.50695  -0.004919  4.322358  -0.004
C  C151  1  0.52824231  0.76251208  0.66763333  1  1.596268  -0.003846  0.188638  0.506916  -0.004919  4.322341  -0.004
C  C152  1  0.69053865  0.15434837  0.48317417  1  0.453527  -0.00722  0.042672  0.098369  -0.007663  3.947104  -0.004
C  C153  1  0.80946358  0.15434825  0.01682580  1  0.453384  -0.007221  0.042733  0.098456  -0.007664  3.94727  -0.004
C  C154  1  0.19053456  0.34565318  0.51682526  1  0.453478  -0.00722  0.042701  0.098389  -0.007664  3.94737  -0.004
C  C155  1  0.30946418  0.34565603  0.98317299  1  0.453479  -0.007221  0.042638  0.098363  -0.007665  3.947108  -0.004
C  C156  1  0.30946416  0.84564805  0.51682681  1  0.453473  -0.007221  0.042701  0.098499  -0.007664  3.947111  -0.004
C  C157  1  0.19053777  0.84565081  0.98317232  1  0.45351  -0.007221  0.042726  0.098426  -0.007664  3.947034  -0.004
C  C158  1  0.80946679  0.65434721  0.48317457  1  0.453484  -0.00722  0.042652  0.098307  -0.007663  3.947156  -0.004
C  C159  1  0.69053422  0.65434898  0.01682456  1  0.453459  -0.00722  0.042771  0.098529  -0.007663  3.947301  -0.004
C  C160  1  0.79196005  0.15587356  0.47537008  1  -0.002732  0.003314  -0.080577  -0.169355  0.001339  3.895253  0.003
C  C161  1  0.70804219  0.15586949  0.02463445  1  -0.002642  0.003315  -0.08061  -0.169464  0.001339  3.895377  0.003
C  C162  1  0.29195667  0.34412929  0.52463043  1  -0.002641  0.003314  -0.080616  -0.169465  0.001339  3.895359  0.003
C  C163  1  0.20804206  0.34413018  0.97536668  1  -0.002622  0.003314  -0.080549  -0.169277  0.00134  3.895179  0.003
C  C164  1  0.20804203  0.84412418  0.52463603  1  -0.002578  0.003314  -0.080552  -0.169317  0.001339  3.8952  0.003
C  C165  1  0.29195989  0.84412891  0.97536595  1  -0.002667  0.003315  -0.080523  -0.169289  0.00134  3.895247  0.003
C  C166  1  0.70804467  0.65587506  0.47536940  1  -0.002617  0.003314  -0.080616  -0.169414  0.00134  3.895229  0.003
C  C167  1  0.79195634  0.65587416  0.02463030  1  -0.002663  0.003315  -0.080662  -0.16956  0.001339  3.895277  0.003
C  C168  1  0.83559869  0.11965995  0.40950509  1  -0.045353  -0.01181  0.009084  0.153788  -0.012402  4.021517  -0.007
C  C169  1  0.66439959  0.11965622  0.09049889  1  -0.04556  -0.011812  0.00903  0.153824  -0.012404  4.021658  -0.007
C  C170  1  0.33559994  0.38034317  0.59049597  1  -0.045358  -0.011812  0.009009  0.153814  -0.012404  4.0216  -0.007
C  C171  1  0.16439907  0.38034186  0.90949999  1  -0.045615  -0.011813  0.009028  0.153687  -0.012405  4.021656  -0.007
C  C172  1  0.16439897  0.88033713  0.59049931  1  -0.045684  -0.01181  0.009043  0.153715  -0.012402  4.021705  -0.007
C  C173  1  0.33560175  0.88034020  0.90950037  1  -0.04569  -0.011812  0.009007  0.153682  -0.012404  4.021737  -0.007
C  C174  1  0.66440140  0.61966448  0.40950272  1  -0.045464  -0.011811  0.009026  0.153763  -0.012403  4.021495  -0.007
C  C175  1  0.83559860  0.61966117  0.09049756  1  -0.045483  -0.011812  0.009103  0.153933  -0.012403  4.021479  -0.007
C  C176  1  0.77147223  0.08458453  0.35433762  1  0.022754  0.003356  -0.087191  -0.18654  0.001275  3.951744  0.003
C  C177  1  0.72853239  0.08458381  0.14566467  1  0.023001  0.003355  -0.087257  -0.186675  0.001275  3.951541  0.003
C  C178  1  0.27147297  0.41541554  0.64566405  1  0.022731  0.003356  -0.087233  -0.186649  0.001275  3.951736  0.003
C  C179  1  0.22852852  0.41541600  0.85433360  1  0.023095  0.003357  -0.087285  -0.186708  0.001276  3.95173  0.003
C  C180  1  0.22853205  0.91541387  0.64566507  1  0.023117  0.003355  -0.087243  -0.1866  0.001275  3.95154  0.003
C  C181  1  0.27146969  0.91541459  0.85433574  1  0.023142  0.003355  -0.087231  -0.186616  0.001275  3.951607  0.003
C  C182  1  0.72852690  0.58458550  0.35433635  1  0.02298  0.003356  -0.087256  -0.186654  0.001275  3.951841  0.003
C  C183  1  0.77147135  0.58458439  0.14566338  1  0.022922  0.003356  -0.087265  -0.186685  0.001275  3.95172  0.003
C  C184  1  0.67078864  0.08465223  0.36690572  1  0.405932  -0.007955  0.038612  0.087752  -0.008515  3.979432  -0.005
C  C185  1  0.82921746  0.08465347  0.13309486  1  0.405622  -0.007957  0.038698  0.087926  -0.008517  3.979292  -0.005
C  C186  1  0.17078865  0.41534787  0.63309544  1  0.405562  -0.007957  0.038628  0.087806  -0.008516  3.979446  -0.005
C  C187  1  0.32921284  0.41535159  0.86690278  1  0.405161  -0.007957  0.038609  0.087848  -0.008517  3.979428  -0.005
C  C188  1  0.32921638  0.91534617  0.63309469  1  0.405616  -0.007955  0.038614  0.087796  -0.008514  3.979417  -0.005
C  C189  1  0.17078388  0.91534691  0.86690383  1  0.405235  -0.007957  0.038674  0.08787  -0.008517  3.979385  -0.005
C  C190  1  0.82921048  0.58465119  0.36690497  1  0.405479  -0.007956  0.038618  0.087813  -0.008515  3.979553  -0.005
C  C191  1  0.67078630  0.58465408  0.13309477  1  0.405591  -0.007957  0.038618  0.087803  -0.008516  3.97941  -0.005
C  C192  1  0.94133797  0.11733238  0.39752572  1  -0.006733  -0.006595  -0.078255  -0.113516  -0.007244  3.929481  -0.003
C  C193  1  0.55866470  0.11732797  0.10248226  1  -0.006774  -0.006596  -0.078239  -0.113596  -0.007245  3.929588  -0.003
C  C194  1  0.44133629  0.38266547  0.60247642  1  -0.006713  -0.006595  -0.07825  -0.113577  -0.007244  3.929573  -0.003
C  C195  1  0.05866274  0.38266284  0.89752067  1  -0.006758  -0.006593  -0.078267  -0.113477  -0.007242  3.929678  -0.003
C  C196  1  0.05866337  0.88267065  0.60248210  1  -0.006745  -0.006596  -0.078231  -0.113574  -0.007246  3.929621  -0.003
C  C197  1  0.44133664  0.88266845  0.89751872  1  -0.006772  -0.006594  -0.078249  -0.113437  -0.007243  3.92948  -0.003
C  C198  1  0.55866137  0.61734416  0.39752170  1  -0.00678  -0.006594  -0.07824  -0.113473  -0.007243  3.929528  -0.003
C  C199  1  0.94133640  0.61733754  0.10247859  1  -0.006775  -0.006595  -0.078305  -0.113694  -0.007244  3.929737  -0.003
C  C200  1  0.00648151  0.11919835  0.45576833  1  -0.037919  -0.006289  -0.079303  -0.110315  -0.006973  3.954716  -0.003
C  C201  1  0.49351666  0.11919342  0.04423480  1  -0.037808  -0.006294  -0.07922  -0.110129  -0.006979  3.954513  -0.003
C  C202  1  0.50648292  0.38080667  0.54423292  1  -0.037966  -0.006291  -0.079258  -0.110168  -0.006976  3.95459  -0.003
C  C203  1  0.99351914  0.38079947  0.95576503  1  -0.037783  -0.006292  -0.079207  -0.110191  -0.006977  3.95467  -0.003
C  C204  1  0.99351468  0.88080666  0.54423493  1  -0.03808  -0.006291  -0.079215  -0.110159  -0.006976  3.95451  -0.003
C  C205  1  0.50648395  0.88079706  0.95576503  1  -0.037784  -0.006294  -0.079225  -0.110296  -0.006979  3.954604  -0.003
C  C206  1  0.49351842  0.61920428  0.45576520  1  -0.037787  -0.006289  -0.079251  -0.110323  -0.006974  3.954952  -0.003
C  C207  1  0.00648220  0.61919299  0.04423423  1  -0.037839  -0.00629  -0.079224  -0.110061  -0.006975  3.954622  -0.003
C  C208  1  0.11270923  0.11761240  0.44970418  1  -0.062634  -0.010598  0.006399  0.14579  -0.011103  4.028152  -0.006
C  C209  1  0.38728820  0.11761208  0.05029838  1  -0.062614  -0.010598  0.006349  0.145572  -0.011103  4.028189  -0.006
C  C210  1  0.61271285  0.38239064  0.55029815  1  -0.06249  -0.010599  0.006377  0.145531  -0.011104  4.028079  -0.006
C  C211  1  0.88728775  0.38238608  0.94970322  1  -0.062544  -0.010599  0.006344  0.145567  -0.011104  4.028169  -0.006
C  C212  1  0.88728549  0.88238865  0.55030079  1  -0.062283  -0.010599  0.006314  0.145538  -0.011103  4.028223  -0.006
C  C213  1  0.61271462  0.88238434  0.94970146  1  -0.062469  -0.010599  0.006364  0.145656  -0.011103  4.028198  -0.006
C  C214  1  0.38728776  0.61761899  0.44970168  1  -0.062492  -0.010599  0.006339  0.145652  -0.011104  4.028227  -0.006
C  C215  1  0.11271506  0.61760638  0.05029889  1  -0.062072  -0.010601  0.006395  0.145423  -0.011105  4.02814  -0.006
C  C216  1  0.16890366  0.10716038  0.51648647  1  -0.059734  0.001601  -0.082671  -0.17552  0.000338  3.941747  0.002
C  C217  1  0.33109541  0.10716469  0.98351419  1  -0.059672  0.0016  -0.082691  -0.175431  0.000337  3.941569  0.002
C  C218  1  0.66890668  0.39283971  0.48351525  1  -0.059486  0.001601  -0.082673  -0.175344  0.000338  3.941595  0.002
C  C219  1  0.83109447  0.39283840  0.01648516  1  -0.059695  0.001601  -0.082628  -0.175394  0.000338  3.941696  0.002
C  C220  1  0.83109548  0.89283802  0.48351564  1  -0.059409  0.001601  -0.082614  -0.175287  0.000338  3.941473  0.002
C  C221  1  0.66890593  0.89283701  0.01648621  1  -0.05939  0.001601  -0.082724  -0.175417  0.000338  3.94157  0.002
C  C222  1  0.33109539  0.60716463  0.51648401  1  -0.059479  0.001602  -0.082617  -0.175256  0.000339  3.941509  0.002
C  C223  1  0.16890834  0.60715670  0.98351639  1  -0.059843  0.001601  -0.082726  -0.175402  0.000338  3.941569  0.002
C  C224  1  0.16511994  0.12799542  0.38083564  1  0.0308  0.004196  -0.084186  -0.174777  0.002077  3.912671  0.004
C  C225  1  0.33487462  0.12799406  0.11916406  1  0.030112  0.004195  -0.084109  -0.174585  0.002077  3.912536  0.004
C  C226  1  0.66512562  0.37200795  0.61916780  1  0.030103  0.004196  -0.084124  -0.174561  0.002078  3.912458  0.004
C  C227  1  0.83487343  0.37200377  0.88083529  1  0.030094  0.004195  -0.084084  -0.174606  0.002077  3.912578  0.004
C  C228  1  0.83487184  0.87200298  0.61916705  1  0.030343  0.004196  -0.084107  -0.174661  0.002078  3.912587  0.004
C  C229  1  0.66512672  0.87200038  0.88083406  1  0.030279  0.004195  -0.084063  -0.174635  0.002077  3.912567  0.004
C  C230  1  0.33487646  0.62800036  0.38083146  1  0.030347  0.004196  -0.084083  -0.174703  0.002078  3.91261  0.004
C  C231  1  0.16512865  0.62798869  0.11916854  1  0.030101  0.004197  -0.084168  -0.174628  0.002078  3.912504  0.004
C  C232  1  0.27075758  0.10837188  0.51278978  1  0.507726  -0.007615  0.044093  0.094882  -0.008358  3.967386  -0.005
C  C233  1  0.22923930  0.10837488  0.98720974  1  0.507718  -0.007615  0.04418  0.094913  -0.008358  3.967359  -0.005
C  C234  1  0.77076059  0.39162952  0.48721074  1  0.507689  -0.007616  0.044126  0.094865  -0.008359  3.967413  -0.005
C  C235  1  0.72923982  0.39163153  0.01279024  1  0.507762  -0.007616  0.044178  0.094955  -0.008359  3.967436  -0.005
C  C236  1  0.72923862  0.89162454  0.48721062  1  0.507743  -0.007616  0.044171  0.094864  -0.008359  3.967356  -0.005
C  C237  1  0.77076057  0.89162748  0.01279009  1  0.507763  -0.007615  0.044164  0.09488  -0.008358  3.967407  -0.005
C  C238  1  0.22924075  0.60836823  0.51278795  1  0.507676  -0.007616  0.044177  0.09497  -0.008359  3.967376  -0.005
C  C239  1  0.27076152  0.60836885  0.98721073  1  0.507662  -0.007616  0.044201  0.095015  -0.00836  3.967334  -0.005
C  C240  1  0.26709449  0.12770384  0.38223555  1  0.455712  -0.006188  0.039853  0.085788  -0.006508  3.961023  -0.004
C  C241  1  0.23289787  0.12770184  0.11776472  1  0.455506  -0.006189  0.039799  0.08557  -0.006509  3.960934  -0.004
C  C242  1  0.76710017  0.37229885  0.61776612  1  0.455469  -0.006188  0.039758  0.085525  -0.006507  3.960951  -0.004
C  C243  1  0.73289888  0.37229733  0.88223582  1  0.455472  -0.006188  0.039804  0.085601  -0.006508  3.960995  -0.004
C  C244  1  0.73289582  0.87229522  0.61776657  1  0.455711  -0.006189  0.039718  0.08557  -0.006509  3.960921  -0.004
C  C245  1  0.76710274  0.87229458  0.88223511  1  0.45547  -0.006189  0.039739  0.08555  -0.006509  3.961021  -0.004
C  C246  1  0.23290191  0.62770285  0.38223143  1  0.455626  -0.006188  0.039808  0.085718  -0.006508  3.960958  -0.004
C  C247  1  0.26710246  0.62769843  0.11776800  1  0.45585  -0.006188  0.039762  0.085564  -0.006508  3.960849  -0.004
N  N248  1  0.62951637  0.11889917  0.43043463  1  -1.208629  0.050983  -0.330718  -0.259132  0.027361  3.582045  0.045
N  N249  1  0.87048631  0.11889808  0.06956365  1  -1.208354  0.050988  -0.330729  -0.259196  0.027364  3.582247  0.045
N  N250  1  0.12951471  0.38110265  0.56956370  1  -1.208295  0.050988  -0.33069  -0.259103  0.027364  3.582282  0.045
N  N251  1  0.37048504  0.38110526  0.93043454  1  -1.208312  0.050988  -0.330611  -0.259083  0.027363  3.582138  0.045
N  N252  1  0.37048570  0.88110055  0.56956350  1  -1.208336  0.050985  -0.330722  -0.259183  0.027362  3.582171  0.045
N  N253  1  0.12951356  0.88109834  0.93043447  1  -1.208302  0.050985  -0.330762  -0.259173  0.027362  3.582145  0.045
N  N254  1  0.87048663  0.61889773  0.43043442  1  -1.208307  0.050982  -0.330645  -0.259043  0.02736  3.582112  0.045
N  N255  1  0.62951263  0.61890106  0.06956415  1  -1.208356  0.050985  -0.330704  -0.259121  0.027362  3.58222  0.045
N  N256  1  0.32034657  0.11900716  0.44696414  1  -1.18129  0.052389  -0.323678  -0.244531  0.027096  3.56059  0.05
N  N257  1  0.17965086  0.11900487  0.05303499  1  -1.181016  0.052388  -0.323714  -0.244479  0.027095  3.560703  0.05
N  N258  1  0.82034944  0.38099388  0.55303578  1  -1.180953  0.052388  -0.323692  -0.244453  0.027096  3.560498  0.05
N  N259  1  0.67965041  0.38099661  0.94696559  1  -1.181014  0.052384  -0.323763  -0.244544  0.027093  3.560619  0.05
N  N260  1  0.67964889  0.88099190  0.55303398  1  -1.180888  0.052391  -0.3237  -0.244467  0.027097  3.560654  0.05
N  N261  1  0.82034974  0.88099221  0.94696541  1  -1.180991  0.052389  -0.323687  -0.244443  0.027096  3.560736  0.05
N  N262  1  0.17965264  0.61900386  0.44696348  1  -1.181322  0.052393  -0.323773  -0.244639  0.027099  3.560658  0.05
N  N263  1  0.32035093  0.61900642  0.05303539  1  -1.180981  0.052395  -0.323687  -0.244482  0.027099  3.560446  0.05
O  O264  1  0.48209650  0.14284152  0.55675086  1  -1.139565  0.09551  -0.303333  -0.520299  0.049312  2.338585  0.08
O  O265  1  0.01789402  0.14284256  0.94325093  1  -1.139398  0.095519  -0.303355  -0.520344  0.049318  2.338482  0.08
O  O266  1  0.98210370  0.35715725  0.44324726  1  -1.139681  0.095511  -0.303371  -0.52038  0.049315  2.338362  0.08
O  O267  1  0.51789718  0.35716186  0.05675145  1  -1.139415  0.095518  -0.303398  -0.520434  0.049317  2.338347  0.08
O  O268  1  0.51790043  0.85715821  0.44325068  1  -1.139532  0.09551  -0.303372  -0.520366  0.049313  2.338624  0.08
O  O269  1  0.98209850  0.85715650  0.05674719  1  -1.139577  0.095512  -0.303411  -0.520384  0.049314  2.338533  0.08
O  O270  1  0.01790941  0.64283786  0.55674915  1  -1.139572  0.095504  -0.303405  -0.520436  0.04931  2.338413  0.08
O  O271  1  0.48209755  0.64284315  0.94324838  1  -1.139539  0.095509  -0.303382  -0.520403  0.049313  2.338668  0.08
O  O272  1  0.51631173  0.18527236  0.71017073  1  -1.047594  0.000967  -0.107858  -0.08949  -0.000175  2.586258  0.0
O  O273  1  0.98369173  0.18527447  0.78983188  1  -1.047675  0.000967  -0.107903  -0.089611  -0.000176  2.586088  0.0
O  O274  1  0.01631202  0.31472809  0.28982880  1  -1.047561  0.000967  -0.107854  -0.089485  -0.000175  2.586173  0.0
O  O275  1  0.48368621  0.31473223  0.21017194  1  -1.047626  0.000967  -0.10786  -0.08949  -0.000175  2.586301  0.0
O  O276  1  0.48369255  0.81472472  0.28983024  1  -1.047696  0.000967  -0.10787  -0.089516  -0.000176  2.585958  0.0
O  O277  1  0.01631255  0.81472262  0.21016852  1  -1.047736  0.000967  -0.10788  -0.089436  -0.000176  2.585967  0.0
O  O278  1  0.98368858  0.68527427  0.71016989  1  -1.047606  0.000967  -0.107899  -0.089541  -0.000175  2.586056  0.0
O  O279  1  0.51630336  0.68527013  0.78982732  1  -1.047538  0.000967  -0.107843  -0.089525  -0.000176  2.585984  0.0
O  O280  1  0.53658757  0.00485346  0.58030795  1  -1.167085  0.092668  -0.31309  -0.56555  0.04862  2.548146  0.077
O  O281  1  0.96341375  0.00485270  0.91969419  1  -1.166912  0.092657  -0.313085  -0.565609  0.048616  2.54802  0.077
O  O282  1  0.03658768  0.49514580  0.41969271  1  -1.167052  0.092662  -0.313111  -0.565643  0.048617  2.548134  0.077
O  O283  1  0.46341124  0.49514991  0.08030736  1  -1.166855  0.09267  -0.313097  -0.565616  0.048619  2.548206  0.077
O  O284  1  0.46341672  0.99514759  0.41969701  1  -1.167005  0.092668  -0.313128  -0.565622  0.048622  2.547931  0.077
O  O285  1  0.03657877  0.99514768  0.08030735  1  -1.166968  0.092665  -0.31307  -0.565625  0.048621  2.548058  0.077
O  O286  1  0.96341955  0.50484930  0.58030713  1  -1.166963  0.092672  -0.313133  -0.565698  0.04862  2.54812  0.077
O  O287  1  0.53657980  0.50485444  0.91969646  1  -1.16725  0.092677  -0.313098  -0.565624  0.048625  2.547979  0.077
O  O288  1  0.53443384  0.25185732  0.90511412  1  -1.149598  0.091076  -0.312029  -0.540458  0.047388  2.327005  0.076
O  O289  1  0.96555985  0.25185944  0.59488618  1  -1.149866  0.091091  -0.312002  -0.540357  0.047397  2.32682  0.076
O  O290  1  0.03444336  0.24814127  0.09488425  1  -1.149287  0.091089  -0.312009  -0.540441  0.047396  2.326762  0.076
O  O291  1  0.46556024  0.24814318  0.40511424  1  -1.149471  0.091079  -0.312026  -0.540443  0.047392  2.326899  0.076
O  O292  1  0.46555352  0.74813712  0.09488742  1  -1.149787  0.091092  -0.312021  -0.54038  0.047398  2.326751  0.076
O  O293  1  0.03444223  0.74814424  0.40511480  1  -1.149063  0.091075  -0.312029  -0.540476  0.047389  2.326895  0.076
O  O294  1  0.96555798  0.75185582  0.90511558  1  -1.149098  0.09108  -0.311969  -0.540386  0.047392  2.326952  0.076
O  O295  1  0.53444331  0.75185853  0.59488502  1  -1.149546  0.091079  -0.311982  -0.54038  0.04739  2.326971  0.076
O  O296  1  0.52072066  0.33776826  0.80150098  1  -1.168855  0.03873  -0.314116  -0.559912  0.019434  2.195192  0.032
O  O297  1  0.97927370  0.33777239  0.69849813  1  -1.168956  0.038723  -0.314106  -0.559905  0.019431  2.195477  0.032
O  O298  1  0.02073014  0.16222627  0.19849512  1  -1.168434  0.038731  -0.314162  -0.559951  0.019435  2.195331  0.032
O  O299  1  0.47926763  0.16223494  0.30149828  1  -1.168765  0.038724  -0.314154  -0.559904  0.01943  2.195382  0.032
O  O300  1  0.47927406  0.66222750  0.19850398  1  -1.168981  0.038715  -0.314176  -0.559922  0.019426  2.195339  0.032
O  O301  1  0.02072764  0.66222734  0.30150227  1  -1.168427  0.038736  -0.314119  -0.559912  0.019438  2.195306  0.032
O  O302  1  0.97927340  0.83777015  0.80150129  1  -1.168859  0.038732  -0.314157  -0.559921  0.019435  2.19526  0.032
O  O303  1  0.52072341  0.83776808  0.69850098  1  -1.168875  0.038728  -0.314131  -0.559899  0.019433  2.195218  0.032
