# generated using pymatgen
data_ZnPH7C4N2O3
_symmetry_space_group_name_H-M   'P 1'
_cell_length_a   5.21213147
_cell_length_b   9.57039794
_cell_length_c   14.72457749
_cell_angle_alpha   90.00118370
_cell_angle_beta   89.99954793
_cell_angle_gamma   90.00099940
_symmetry_Int_Tables_number   1
_chemical_formula_structural   ZnPH7C4N2O3
_chemical_formula_sum   'Zn4 P4 H28 C16 N8 O12'
_cell_volume   734.49391052
_cell_formula_units_Z   4
loop_
 _symmetry_equiv_pos_site_id
 _symmetry_equiv_pos_as_xyz
  1  'x, y, z'
loop_
 _atom_site_type_symbol
 _atom_site_label
 _atom_site_symmetry_multiplicity
 _atom_site_fract_x
 _atom_site_fract_y
 _atom_site_fract_z
 _atom_site_occupancy
 _atom_site_hle17_bader_spin_density
 _atom_site_hle17_ddec_charge
 _atom_site_hle17_ddec_spin_density
 _atom_site_hle17_ddec_sum_bond_order
 _atom_site_hle17_magmom
 _atom_site_hse06_10hf_bader_spin_density
 _atom_site_hse06_10hf_ddec_charge
 _atom_site_hse06_10hf_ddec_spin_density
 _atom_site_hse06_10hf_ddec_sum_bond_order
 _atom_site_hse06_10hf_magmom
 _atom_site_hse06_bader_spin_density
 _atom_site_hse06_ddec_charge
 _atom_site_hse06_ddec_spin_density
 _atom_site_hse06_ddec_sum_bond_order
 _atom_site_hse06_magmom
 _atom_site_pbe_bader_spin_density
 _atom_site_pbe_cm5_charge
 _atom_site_pbe_ddec_charge
 _atom_site_pbe_ddec_spin_density
 _atom_site_pbe_ddec_sum_bond_order
 _atom_site_pbe_magmom
Zn  Zn0  1  0.43528026  0.60861972  0.92688795  1  0  1.137844  0  1.84901  0  0  0.967145  0  2.330205  0  0  1.009535  0  2.271508  0  0  0.707037  0.937713  0  2.370739  0
Zn  Zn1  1  0.06476404  0.39137752  0.42687999  1  0  1.137885  0  1.848814  0  0  0.967241  0  2.329965  0  0  1.009645  0  2.271279  0  0  0.70707  0.937812  0  2.370514  0
Zn  Zn2  1  0.56478336  0.10864280  0.57312155  1  0  1.137885  0  1.849285  0  0  0.967113  0  2.330587  0  0  1.009502  0  2.271872  0  0  0.706996  0.937679  0  2.371135  0
Zn  Zn3  1  0.93522876  0.89136375  0.07312971  1  0  1.13784  0  1.849162  0  0  0.967137  0  2.330377  0  0  1.009516  0  2.271673  0  0  0.707035  0.93771  0  2.370909  0
P  P4  1  0.43974688  0.73359547  0.12796195  1  0  1.423677  0  4.979909  0  0  1.244397  0  5.478454  0  0  1.295847  0  5.440202  0  0  0.269647  1.208556  0  5.504171  0
P  P5  1  0.06025817  0.26639427  0.62795182  1  0  1.423965  0  4.979735  0  0  1.244632  0  5.478266  0  0  1.296085  0  5.440013  0  0  0.269768  1.208794  0  5.503978  0
P  P6  1  0.56025837  0.23359674  0.37204972  1  0  1.423938  0  4.979286  0  0  1.244575  0  5.47786  0  0  1.296027  0  5.439606  0  0  0.269696  1.208734  0  5.503567  0
P  P7  1  0.93978916  0.76639954  0.87206045  1  0  1.423628  0  4.979629  0  0  1.244324  0  5.478177  0  0  1.295775  0  5.439936  0  0  0.26969  1.208482  0  5.503879  0
H  H8  1  0.34949001  0.67841892  0.21098001  1  0  -0.160255  0  0.913068  0  0  -0.125347  0  0.995425  0  0  -0.130697  0  0.993649  0  0  0.080598  -0.121822  0  0.996913  0
H  H9  1  0.15050111  0.32157662  0.71096908  1  0  -0.160359  0  0.913181  0  0  -0.12534  0  0.99543  0  0  -0.130692  0  0.993657  0  0  0.080619  -0.121818  0  0.996921  0
H  H10  1  0.65049054  0.17844455  0.28902345  1  0  -0.160416  0  0.913218  0  0  -0.125369  0  0.995447  0  0  -0.130719  0  0.993672  0  0  0.080627  -0.121844  0  0.996938  0
H  H11  1  0.84958627  0.82155221  0.78903034  1  0  -0.160365  0  0.913076  0  0  -0.125357  0  0.995324  0  0  -0.130712  0  0.993558  0  0  0.080593  -0.121826  0  0.996803  0
H  H12  1  0.63017369  0.08687714  0.77442423  1  0  0.113054  0  0.948005  0  0  0.131004  0  1.014761  0  0  0.132488  0  1.013919  0  0  0.109978  0.12966  0  1.01568  0
H  H13  1  0.86979227  0.91312123  0.27444978  1  0  0.112882  0  0.948212  0  0  0.130958  0  1.014852  0  0  0.132441  0  1.014011  0  0  0.109911  0.129617  0  1.01576  0
H  H14  1  0.36982020  0.58688249  0.72556528  1  0  0.112952  0  0.948071  0  0  0.130968  0  1.014766  0  0  0.132449  0  1.013929  0  0  0.109982  0.129628  0  1.015674  0
H  H15  1  0.13020694  0.41313442  0.22555205  1  0  0.11287  0  0.948128  0  0  0.130948  0  1.014784  0  0  0.132431  0  1.013944  0  0  0.109923  0.129605  0  1.015705  0
H  H16  1  0.31354021  0.01684603  0.77097677  1  0  0.110503  0  0.942335  0  0  0.13028  0  1.004897  0  0  0.131284  0  1.004204  0  0  0.107962  0.129513  0  1.005173  0
H  H17  1  0.18640311  0.98314412  0.27097577  1  0  0.110623  0  0.942236  0  0  0.130415  0  1.004814  0  0  0.131426  0  1.004105  0  0  0.107977  0.129642  0  1.00508  0
H  H18  1  0.68644579  0.51685255  0.72901588  1  0  0.110641  0  0.942144  0  0  0.130431  0  1.004707  0  0  0.131435  0  1.004017  0  0  0.108015  0.129662  0  1.004979  0
H  H19  1  0.81354644  0.48315587  0.22902768  1  0  0.110513  0  0.942122  0  0  0.130316  0  1.004702  0  0  0.131323  0  1.004005  0  0  0.107975  0.129547  0  1.004977  0
H  H20  1  0.51235514  0.98505492  0.86800991  1  0  0.123945  0  0.948422  0  0  0.141199  0  1.011722  0  0  0.14246  0  1.011126  0  0  0.107471  0.140167  0  1.01234  0
H  H21  1  0.98761961  0.01494959  0.36801174  1  0  0.124035  0  0.94851  0  0  0.141349  0  1.011739  0  0  0.142607  0  1.011145  0  0  0.107515  0.140313  0  1.012353  0
H  H22  1  0.48762403  0.48505718  0.63198558  1  0  0.124089  0  0.948505  0  0  0.141369  0  1.011745  0  0  0.142628  0  1.011152  0  0  0.107512  0.140334  0  1.012361  0
H  H23  1  0.01234253  0.51496091  0.13197868  1  0  0.123918  0  0.948401  0  0  0.141179  0  1.011741  0  0  0.142438  0  1.011146  0  0  0.107496  0.140149  0  1.012346  0
H  H24  1  0.66753954  0.33183867  0.82333792  1  0  0.098736  0  0.955879  0  0  0.107175  0  1.022202  0  0  0.109374  0  1.020081  0  0  0.137289  0.105625  0  1.023514  0
H  H25  1  0.83239813  0.66816650  0.32334738  1  0  0.098742  0  0.955621  0  0  0.107181  0  1.021967  0  0  0.109363  0  1.019892  0  0  0.137282  0.105627  0  1.023275  0
H  H26  1  0.33242536  0.83184312  0.67664738  1  0  0.098699  0  0.95573  0  0  0.107127  0  1.02207  0  0  0.109326  0  1.019949  0  0  0.137281  0.105579  0  1.023385  0
H  H27  1  0.16758786  0.16818163  0.17665594  1  0  0.098697  0  0.955599  0  0  0.107181  0  1.021887  0  0  0.109355  0  1.019837  0  0  0.137264  0.105615  0  1.023211  0
H  H28  1  0.96995989  0.39700480  0.96268875  1  0  0.111379  0  0.960602  0  0  0.119876  0  1.021846  0  0  0.122227  0  1.021157  0  0  0.118935  0.118075  0  1.022705  0
H  H29  1  0.52999100  0.60300170  0.46269725  1  0  0.111359  0  0.960552  0  0  0.119853  0  1.02181  0  0  0.122205  0  1.021121  0  0  0.118919  0.118055  0  1.022669  0
H  H30  1  0.03001851  0.89699341  0.53729674  1  0  0.111418  0  0.96051  0  0  0.119923  0  1.021754  0  0  0.122273  0  1.021069  0  0  0.118975  0.118126  0  1.022611  0
H  H31  1  0.47001603  0.10298298  0.03730724  1  0  0.111373  0  0.960392  0  0  0.119852  0  1.021705  0  0  0.122203  0  1.021014  0  0  0.118925  0.118051  0  1.022566  0
H  H32  1  0.00701055  0.11457205  0.91114812  1  0  0.132333  0  0.969191  0  0  0.141522  0  1.027785  0  0  0.144608  0  1.026692  0  0  0.123865  0.139186  0  1.028997  0
H  H33  1  0.49297089  0.88544036  0.41116017  1  0  0.132287  0  0.969227  0  0  0.141433  0  1.027877  0  0  0.144521  0  1.02678  0  0  0.123866  0.1391  0  1.029078  0
H  H34  1  0.99297651  0.61456563  0.58884447  1  0  0.132247  0  0.969461  0  0  0.14144  0  1.028023  0  0  0.144529  0  1.026928  0  0  0.123809  0.139106  0  1.029231  0
H  H35  1  0.50702748  0.38542053  0.08884401  1  0  0.1323  0  0.96939  0  0  0.141457  0  1.028008  0  0  0.144546  0  1.026911  0  0  0.12385  0.139121  0  1.029219  0
C  C36  1  0.46138186  0.06079027  0.81527768  1  0  -0.179254  0  3.609523  0  0  -0.283529  0  3.856556  0  0  -0.280633  0  3.865333  0  0  -0.131856  -0.285047  0  3.850324  0
C  C37  1  0.03859278  0.93919712  0.31528861  1  0  -0.179323  0  3.60994  0  0  -0.283777  0  3.85696  0  0  -0.28086  0  3.865701  0  0  -0.13196  -0.285305  0  3.850761  0
C  C38  1  0.53861507  0.56079598  0.68471284  1  0  -0.179553  0  3.609915  0  0  -0.283933  0  3.857048  0  0  -0.281015  0  3.865782  0  0  -0.132033  -0.285467  0  3.850849  0
C  C39  1  0.96138996  0.43922042  0.18471765  1  0  -0.178983  0  3.609221  0  0  -0.283397  0  3.856311  0  0  -0.280497  0  3.865088  0  0  -0.131882  -0.284923  0  3.850092  0
C  C40  1  0.48288499  0.31424338  0.85510052  1  0  0.157496  0  3.662289  0  0  0.097612  0  3.925478  0  0  0.110592  0  3.940021  0  0  0.145661  0.089391  0  3.915213  0
C  C41  1  0.01705972  0.68573797  0.35512170  1  0  0.158259  0  3.661209  0  0  0.098435  0  3.924337  0  0  0.111416  0  3.93886  0  0  0.146065  0.090223  0  3.914086  0
C  C42  1  0.51708130  0.81426328  0.64488047  1  0  0.158107  0  3.661573  0  0  0.098278  0  3.924691  0  0  0.111267  0  3.939208  0  0  0.145945  0.090058  0  3.914423  0
C  C43  1  0.98292489  0.18573617  0.14488050  1  0  0.158192  0  3.66152  0  0  0.098303  0  3.924673  0  0  0.111283  0  3.939189  0  0  0.145994  0.090098  0  3.914428  0
C  C44  1  0.12042611  0.34123847  0.92723148  1  0  0.005455  0  3.73972  0  0  -0.030043  0  4.012481  0  0  -0.027734  0  4.032289  0  0  -0.002441  -0.031593  0  3.999392  0
C  C45  1  0.37954336  0.65878281  0.42723054  1  0  0.005531  0  3.739997  0  0  -0.02992  0  4.012757  0  0  -0.027614  0  4.032568  0  0  -0.002383  -0.031469  0  3.999668  0
C  C46  1  0.87956210  0.84123146  0.57276550  1  0  0.005502  0  3.739693  0  0  -0.030017  0  4.012475  0  0  -0.027709  0  4.032288  0  0  -0.002402  -0.031569  0  3.999385  0
C  C47  1  0.62046921  0.15877404  0.07277470  1  0  0.005535  0  3.740188  0  0  -0.029942  0  4.012959  0  0  -0.027631  0  4.032764  0  0  -0.002421  -0.031494  0  3.999872  0
C  C48  1  0.13375483  0.20337343  0.90120671  1  0  -0.081281  0  3.650876  0  0  -0.119461  0  3.907  0  0  -0.119442  0  3.926548  0  0  3.3e-05  -0.119402  0  3.894137  0
C  C49  1  0.36620964  0.79663866  0.40121918  1  0  -0.08106  0  3.651127  0  0  -0.119158  0  3.907153  0  0  -0.11914  0  3.926706  0  0  0.000139  -0.119098  0  3.89429  0
C  C50  1  0.86624262  0.70335562  0.59877824  1  0  -0.081199  0  3.650599  0  0  -0.119324  0  3.906649  0  0  -0.119312  0  3.926202  0  0  0.000118  -0.119273  0  3.893814  0
C  C51  1  0.63377067  0.29663817  0.09878450  1  0  -0.081277  0  3.650995  0  0  -0.119403  0  3.907055  0  0  -0.11938  0  3.926591  0  0  -2.9e-05  -0.119347  0  3.8942  0
N  N52  1  0.33958935  0.40925299  0.89810898  1  0  -0.405564  0  3.311775  0  0  -0.327941  0  3.616103  0  0  -0.34807  0  3.628567  0  0  -0.361712  -0.314451  0  3.607521  0
N  N53  1  0.16039440  0.59074333  0.39812318  1  0  -0.405874  0  3.312027  0  0  -0.328405  0  3.616527  0  0  -0.348533  0  3.628983  0  0  -0.361924  -0.314914  0  3.607958  0
N  N54  1  0.66041437  0.90925517  0.60187192  1  0  -0.405701  0  3.312022  0  0  -0.328108  0  3.616354  0  0  -0.348231  0  3.628812  0  0  -0.361783  -0.314617  0  3.607776  0
N  N55  1  0.83960075  0.09074185  0.10187912  1  0  -0.405684  0  3.312491  0  0  -0.328149  0  3.616918  0  0  -0.348269  0  3.629361  0  0  -0.361777  -0.31466  0  3.608338  0
N  N56  1  0.36411400  0.18887079  0.85579592  1  0  -0.014625  0  3.61191  0  0  0.08552  0  3.827799  0  0  0.071118  0  3.85568  0  0  -0.244784  0.095036  0  3.808627  0
N  N57  1  0.13584220  0.81111790  0.35580155  1  0  -0.015314  0  3.611896  0  0  0.084804  0  3.827938  0  0  0.070397  0  3.855816  0  0  -0.245033  0.094324  0  3.808758  0
N  N58  1  0.63584847  0.68888140  0.64420310  1  0  -0.015071  0  3.611633  0  0  0.085018  0  3.827694  0  0  0.070613  0  3.855582  0  0  -0.244986  0.094535  0  3.808514  0
N  N59  1  0.86417885  0.31112534  0.14420300  1  0  -0.01531  0  3.61132  0  0  0.084814  0  3.827425  0  0  0.070405  0  3.855298  0  0  -0.244931  0.094335  0  3.80825  0
O  O60  1  0.38216123  0.61741813  0.05858471  1  0  -0.861728  0  2.063329  0  0  -0.761853  0  2.362769  0  0  -0.789331  0  2.335723  0  0  -0.387853  -0.74269  0  2.381407  0
O  O61  1  0.11790723  0.38256417  0.55857805  1  0  -0.861765  0  2.063293  0  0  -0.761932  0  2.362768  0  0  -0.789416  0  2.335735  0  0  -0.387918  -0.74277  0  2.381407  0
O  O62  1  0.61785967  0.11739817  0.44141658  1  0  -0.861819  0  2.063101  0  0  -0.761946  0  2.362632  0  0  -0.789425  0  2.335592  0  0  -0.387845  -0.742782  0  2.381266  0
O  O63  1  0.88212637  0.88258362  0.94143237  1  0  -0.861719  0  2.063186  0  0  -0.761851  0  2.362638  0  0  -0.789328  0  2.33559  0  0  -0.387887  -0.742688  0  2.381273  0
O  O64  1  0.29486418  0.87082176  0.10918895  1  0  -0.856149  0  2.033413  0  0  -0.758013  0  2.335356  0  0  -0.785666  0  2.309065  0  0  -0.390474  -0.738391  0  2.353234  0
O  O65  1  0.20514909  0.12916947  0.60918419  1  0  -0.856356  0  2.03349  0  0  -0.758176  0  2.335435  0  0  -0.785836  0  2.309146  0  0  -0.390566  -0.73856  0  2.353316  0
O  O66  1  0.70509345  0.37084807  0.39082047  1  0  -0.856243  0  2.033028  0  0  -0.758107  0  2.334972  0  0  -0.785768  0  2.308694  0  0  -0.390583  -0.738484  0  2.352854  0
O  O67  1  0.79493435  0.62915091  0.89082287  1  0  -0.856203  0  2.033199  0  0  -0.758074  0  2.335155  0  0  -0.785735  0  2.308872  0  0  -0.390614  -0.738446  0  2.353029  0
O  O68  1  0.72742398  0.75995134  0.14391137  1  0  -0.855511  0  2.043982  0  0  -0.75947  0  2.347674  0  0  -0.787879  0  2.322523  0  0  -0.389319  -0.739446  0  2.363958  0
O  O69  1  0.77257264  0.24004599  0.64388758  1  0  -0.855527  0  2.043899  0  0  -0.759522  0  2.347677  0  0  -0.787938  0  2.322512  0  0  -0.389351  -0.739482  0  2.363921  0
O  O70  1  0.27258783  0.25994192  0.35609182  1  0  -0.855496  0  2.043432  0  0  -0.759535  0  2.347165  0  0  -0.787953  0  2.322026  0  0  -0.389302  -0.739521  0  2.363471  0
O  O71  1  0.22746813  0.74006559  0.85612231  1  0  -0.855349  0  2.043928  0  0  -0.759384  0  2.347621  0  0  -0.787798  0  2.322476  0  0  -0.389256  -0.739382  0  2.363955  0
