# generated using pymatgen
data_Al6H68C99N3O28F3
_symmetry_space_group_name_H-M   'P 1'
_cell_length_a   12.78713367
_cell_length_b   13.06264685
_cell_length_c   27.65596713
_cell_angle_alpha   90.26637686
_cell_angle_beta   90.04971723
_cell_angle_gamma   59.19687848
_symmetry_Int_Tables_number   1
_chemical_formula_structural   Al6H68C99N3O28F3
_chemical_formula_sum   'Al6 H68 C99 N3 O28 F3'
_cell_volume   3967.77152386
_cell_formula_units_Z   1
loop_
 _symmetry_equiv_pos_site_id
 _symmetry_equiv_pos_as_xyz
  1  'x, y, z'
loop_
 _atom_site_type_symbol
 _atom_site_label
 _atom_site_symmetry_multiplicity
 _atom_site_fract_x
 _atom_site_fract_y
 _atom_site_fract_z
 _atom_site_occupancy
 _atom_site_pbe_bader_charge
 _atom_site_pbe_bader_spin_density
 _atom_site_pbe_cm5_charge
 _atom_site_pbe_ddec_charge
 _atom_site_pbe_ddec_spin_density
 _atom_site_pbe_ddec_sum_bond_order
 _atom_site_pbe_magmom
Al  Al0  1  0.85429877  0.56186390  0.49650399  1  2.49839  0  0.393499  1.684493  0  2.564482  0
Al  Al1  1  0.59228446  0.58496110  0.49642068  1  2.476179  0  0.505705  1.66045  0  2.512182  0
Al  Al2  1  0.60084445  0.81012677  0.49795226  1  2.478537  0  0.505212  1.662634  0  2.511784  0
Al  Al3  1  0.82553085  0.07905537  0.98557363  1  2.49493  0  0.396115  1.688683  0  2.553888  0
Al  Al4  1  0.08193980  0.06987051  0.98112024  1  2.482609  0  0.505863  1.664055  0  2.505443  0
Al  Al5  1  0.08693609  0.83816505  0.98296610  1  2.474773  0  0.506611  1.660937  0  2.510728  0
H  H6  1  0.39570633  0.96208777  0.19562781  1  0.070401  0  0.103926  0.053259  0  0.947505  0
H  H7  1  0.30283776  0.00825497  0.86240849  1  0.115595  0  0.111532  0.117941  0  0.993903  0
H  H8  1  0.05084061  0.67483799  0.86005480  1  0.09398  0  0.107484  0.112494  0  1.002991  0
H  H9  1  0.70644393  0.25181863  0.85859170  1  0.086136  0  0.109842  0.116742  0  1.000615  0
H  H10  1  0.43765311  0.94273700  0.62286441  1  0.082161  0  0.11026  0.116372  0  1.004856  0
H  H11  1  0.96197758  0.61098194  0.62226869  1  0.110032  0  0.116416  0.127453  0  0.990374  0
H  H12  1  0.61201087  0.41102537  0.62219495  1  0.082291  0  0.107055  0.112593  0  1.005367  0
H  H13  1  0.37122572  0.06842417  0.78885181  1  0.060939  0  0.103522  0.102932  0  0.99384  0
H  H14  1  0.11292384  0.54985972  0.78506419  1  0.049566  0  0.101208  0.09982  0  0.998258  0
H  H15  1  0.57311769  0.31275618  0.78559148  1  0.044636  0  0.100713  0.099242  0  0.999435  0
H  H16  1  0.41500849  0.04766808  0.70109014  1  0.0348  0  0.100922  0.09927  0  1.012256  0
H  H17  1  0.97964642  0.63864792  0.20170446  1  0.042894  0  0.102452  0.050885  0  0.952377  0
H  H18  1  0.08295614  0.52826728  0.69785872  1  0.05958  0  0.102683  0.102322  0  0.998047  0
H  H19  1  0.53989300  0.36763696  0.69896375  1  0.055498  0  0.099772  0.098886  0  1.002643  0
H  H20  1  0.24105347  0.71467029  0.85549982  1  0.084895  0  0.109813  0.116117  0  1.007816  0
H  H21  1  0.72929247  0.02245172  0.86068269  1  0.084275  0  0.113246  0.121451  0  1.000885  0
H  H22  1  0.06335713  0.20535520  0.85001624  1  0.099662  0  0.106841  0.112992  0  1.0097  0
H  H23  1  0.26525390  0.60870826  0.77741275  1  0.058811  0  0.100011  0.099619  0  1.015983  0
H  H24  1  0.60956258  0.10590211  0.78485221  1  0.040854  0  0.100297  0.098443  0  1.008895  0
H  H25  1  0.14251929  0.23072267  0.77131879  1  0.065899  0  0.09748  0.097155  0  1.017928  0
H  H26  1  0.31120168  0.58650998  0.68985649  1  0.074352  0  0.103661  0.103663  0  0.995342  0
H  H27  1  0.58106196  0.08551177  0.69749199  1  0.062806  0  0.10083  0.09896  0  1.000802  0
H  H28  1  0.66767271  0.35501017  0.18966286  1  0.080101  0  0.106564  0.057254  0  0.945453  0
H  H29  1  0.10909069  0.28643911  0.68474537  1  0.075334  0  0.103296  0.104056  0  0.993976  0
H  H30  1  0.44823744  0.92617104  0.27820793  1  0.053368  0  0.098638  0.106236  0  0.990016  0
H  H31  1  0.94398017  0.63740686  0.28508177  1  0.028986  0  0.099006  0.105556  0  1.00039  0
H  H32  1  0.63570578  0.39884512  0.27312112  1  0.038881  0  0.097996  0.104521  0  0.996714  0
H  H33  1  0.37809739  0.64771126  0.61616629  1  0.101981  0  0.111818  0.118604  0  0.993965  0
H  H34  1  0.64243201  0.96011572  0.62262268  1  0.085404  0  0.10699  0.111984  0  1.004501  0
H  H35  1  0.96935298  0.36354552  0.61358000  1  0.109625  0  0.116674  0.127828  0  0.988709  0
H  H36  1  0.16479792  0.90873108  0.29355594  1  0.046254  0  0.099295  0.102228  0  0.986968  0
H  H37  1  0.92951416  0.92958921  0.29894352  1  0.040869  0  0.098231  0.099511  0  0.988048  0
H  H38  1  0.95677300  0.14875787  0.29419568  1  0.02777  0  0.098403  0.099976  0  0.990911  0
H  H39  1  0.54530868  0.77278208  0.26490053  1  0.070692  0  0.10402  0.120125  0  0.978966  0
H  H40  1  0.22032435  0.00675728  0.28927224  1  0.028823  0  0.095297  0.094582  0  0.985029  0
H  H41  1  0.02578214  0.77420648  0.29998984  1  0.054515  0  0.098181  0.100822  0  0.984975  0
H  H42  1  0.80503651  0.18481941  0.28706449  1  0.020218  0  0.093808  0.089932  0  1.006562  0
H  H43  1  0.18250618  0.02105578  0.20565851  1  0.023235  0  0.09427  0.089662  0  0.99815  0
H  H44  1  0.05837507  0.77433044  0.21604435  1  0.01884  0  0.092304  0.085959  0  0.999943  0
H  H45  1  0.83763925  0.15143367  0.20325368  1  0.028827  0  0.095212  0.092462  0  0.992914  0
H  H46  1  0.13851904  0.91358661  0.20914331  1  0.025888  0  0.094591  0.09299  0  1.01663  0
H  H47  1  0.95942651  0.93023799  0.21505708  1  0.042023  0  0.094711  0.094879  0  1.006111  0
H  H48  1  0.98740787  0.12191895  0.20991947  1  0.052453  0  0.093212  0.091423  0  1.024793  0
H  H49  1  0.47178126  0.63221101  0.27455563  1  0.057674  0  0.1095  0.059963  0  0.977705  0
H  H50  1  0.78782834  0.69765748  0.27194134  1  0.059254  0  0.103069  0.117971  0  0.981605  0
H  H51  1  0.64618767  0.91615416  0.27392265  1  0.054786  0  0.10853  0.062296  0  0.96866  0
H  H52  1  0.88463568  0.46450627  0.27883130  1  0.045126  0  0.111127  0.065886  0  0.962156  0
H  H53  1  0.45561882  0.65008523  0.19079569  1  0.098462  0  0.097498  0.116442  0  0.999052  0
H  H54  1  0.67537447  0.92129818  0.19096028  1  0.074217  0  0.101219  0.118404  0  0.97913  0
H  H55  1  0.90361552  0.44276024  0.19505332  1  0.079002  0  0.098706  0.115616  0  0.991328  0
H  H56  1  0.21065078  0.72423388  0.27575535  1  0.380061  0  0.277502  0.20815  0  1.018572  0
H  H57  1  0.26681146  0.53115191  0.30159843  1  0.018485  0  0.101785  0.112313  0  0.982247  0
H  H58  1  0.42144728  0.49188128  0.30204599  1  0.026305  0  0.099673  0.105977  0  0.994971  0
H  H59  1  0.34454357  0.51370697  0.24560421  1  -0.01245  0  0.078961  0.070243  0  1.012104  0
H  H60  1  0.74720497  0.07092035  0.28516643  1  0.356534  0  0.274867  0.204268  0  1.02571  0
H  H61  1  0.67443684  0.50983027  0.26486597  1  0.067068  0  0.102862  0.116884  0  0.985571  0
H  H62  1  0.54539759  0.22265967  0.30104400  1  0.046835  0  0.101123  0.109901  0  0.986107  0
H  H63  1  0.49694016  0.11841306  0.29401957  1  0.038538  0  0.097411  0.101978  0  0.990384  0
H  H64  1  0.54471274  0.16524515  0.24217950  1  0.00807  0  0.078931  0.070046  0  1.013039  0
H  H65  1  0.08360022  0.21751899  0.28240343  1  0.354663  0  0.279344  0.210585  0  1.000149  0
H  H66  1  0.19472767  0.29848503  0.31598978  1  0.041646  0  0.102714  0.112832  0  0.980021  0
H  H67  1  0.06175215  0.44159969  0.31595208  1  0.03281  0  0.101031  0.108681  0  0.992946  0
H  H68  1  0.13508741  0.37382296  0.25985334  1  0.001539  0  0.076349  0.065825  0  1.016023  0
H  H69  1  0.30163369  0.68953841  0.19597790  1  0.029192  0  0.097964  0.104731  0  0.987268  0
H  H70  1  0.73201042  0.01777399  0.20079441  1  0.031135  0  0.097676  0.103519  0  0.988738  0
H  H71  1  0.02930767  0.29700242  0.20288251  1  0.018578  0  0.09668  0.102023  0  0.986625  0
H  H72  1  0.05330082  0.44608764  0.46686996  1  0.585409  0  0.290437  0.381172  0  0.926155  0
H  H73  1  0.62287152  0.22227054  0.96775762  1  0.559353  0  0.287051  0.374947  0  0.936179  0
C  C74  1  0.77576137  0.77407605  0.43037600  1  1.633018  0  0.277129  0.720132  0  4.15485  0
C  C75  1  0.30426105  0.85273290  0.14001490  1  -0.401937  0  -0.007448  6.7e-05  0  3.983233  0
C  C76  1  0.89097537  0.83576220  0.14609054  1  -0.534867  0  -0.019566  -0.025917  0  4.018061  0
C  C77  1  0.87699316  0.28214949  0.14096815  1  -0.493677  0  -0.017331  -0.021809  0  4.015503  0
C  C78  1  0.38411505  0.80957148  0.33771448  1  -0.367891  0  -0.008285  -0.002143  0  4.00474  0
C  C79  1  0.81674514  0.82281714  0.34221737  1  -0.408276  0  -0.018498  -0.021216  0  4.033044  0
C  C80  1  0.80515085  0.36187919  0.33767728  1  -0.492952  0  -0.018496  -0.022035  0  4.038282  0
C  C81  1  0.40876197  0.79805768  0.38055579  1  0.132904  0  -0.046069  -0.217026  0  3.949996  0
C  C82  1  0.80041899  0.80691975  0.38406899  1  0.18359  0  -0.046511  -0.209716  0  3.96469  0
C  C83  1  0.78517200  0.39101796  0.37995013  1  0.243894  0  -0.048664  -0.213429  0  3.96751  0
C  C84  1  0.90573316  0.19221104  0.91073623  1  1.533399  0  0.271753  0.647269  0  4.080998  0
C  C85  1  0.76428314  0.44394226  0.42733014  1  1.654091  0  0.277652  0.722115  0  4.1511  0
C  C86  1  0.22595550  0.88457515  0.91459824  1  1.534289  0  0.279846  0.651747  0  4.068063  0
C  C87  1  0.91438727  0.87163542  0.91548128  1  1.561534  0  0.272097  0.642079  0  4.084544  0
C  C88  1  0.91383541  0.20812622  0.05017489  1  1.664645  0  0.280166  0.718422  0  4.156463  0
C  C89  1  0.22668889  0.88672939  0.04951095  1  1.632112  0  0.285228  0.730722  0  4.139072  0
C  C90  1  0.91846216  0.87500166  0.05441413  1  1.655909  0  0.283296  0.715798  0  4.155071  0
C  C91  1  0.41119269  0.88568665  0.64112927  1  -0.020635  0  -0.07292  -0.131242  0  3.912401  0
C  C92  1  0.90121344  0.69243416  0.64221232  1  -0.013473  0  -0.071521  -0.132616  0  3.911398  0
C  C93  1  0.69870948  0.38412589  0.63967397  1  -0.053801  0  -0.077515  -0.138693  0  3.930589  0
C  C94  1  0.38406189  0.90040229  0.69066908  1  -0.033408  0  -0.003346  0.076791  0  4.033571  0
C  C95  1  0.92132225  0.70395330  0.69119021  1  -0.016125  0  -0.005664  0.075024  0  4.041998  0
C  C96  1  0.45780193  0.77160832  0.42870608  1  1.653327  0  0.284392  0.731168  0  4.138107  0
C  C97  1  0.71781248  0.34746528  0.68805702  1  0.029354  0  -0.00728  0.074944  0  4.040761  0
C  C98  1  0.33168370  0.92526041  0.79184482  1  -0.021214  0  -0.003441  0.07709  0  4.033328  0
C  C99  1  0.95638064  0.72926616  0.79142024  1  -0.005913  0  -0.006029  0.076031  0  4.039727  0
C  C100  1  0.75624719  0.28362668  0.78773623  1  -0.040261  0  -0.00579  0.075924  0  4.040928  0
C  C101  1  0.77583644  0.76226060  0.56778562  1  1.564356  0  0.273305  0.637654  0  4.091149  0
C  C102  1  0.76332166  0.44378535  0.56455102  1  1.562117  0  0.271636  0.637318  0  4.09117  0
C  C103  1  0.45358453  0.77212922  0.56391648  1  1.538446  0  0.27947  0.651672  0  4.071507  0
C  C104  1  0.36510636  0.00115813  0.76753348  1  -0.027169  0  -0.086049  -0.127993  0  4.012936  0
C  C105  1  0.03750901  0.62223608  0.76534632  1  -0.042683  0  -0.090449  -0.134526  0  4.028958  0
C  C106  1  0.64424326  0.31362422  0.76414238  1  -0.081355  0  -0.089824  -0.131464  0  4.026224  0
C  C107  1  0.36894263  0.71227578  0.20854938  1  -0.063938  0  -0.158821  -0.26553  0  3.810911  0
C  C108  1  0.38947696  0.98961421  0.71913635  1  -0.018557  0  -0.0855  -0.122543  0  4.005723  0
C  C109  1  0.02103925  0.61019863  0.71735710  1  -0.053364  0  -0.087179  -0.125803  0  4.012445  0
C  C110  1  0.62588883  0.34395927  0.71644158  1  0.012654  0  -0.089256  -0.128744  0  4.019578  0
C  C111  1  0.30231661  0.93797892  0.84119128  1  -0.055101  0  -0.073882  -0.13526  0  3.919221  0
C  C112  1  0.97319927  0.74465865  0.84043594  1  -0.114123  0  -0.078946  -0.142024  0  3.937975  0
C  C113  1  0.77608532  0.25449507  0.83687183  1  0.049699  0  -0.076892  -0.13882  0  3.929003  0
C  C114  1  0.27012321  0.86212149  0.86374430  1  0.055198  0  -0.015789  -0.045687  0  4.013617  0
C  C115  1  0.89153485  0.85001487  0.86473512  1  0.0747  0  -0.015823  -0.042371  0  4.019327  0
C  C116  1  0.88560823  0.22801649  0.85899574  1  -0.026838  0  -0.017746  -0.044688  0  4.019574  0
C  C117  1  0.37771338  0.71853061  0.63731122  1  -0.116184  0  -0.072437  -0.131117  0  3.91269  0
C  C118  1  0.74190232  0.93241753  0.21184002  1  -0.048373  0  -0.157168  -0.260064  0  3.818191  0
C  C119  1  0.72006499  0.89028305  0.64224305  1  0.014308  0  -0.077721  -0.13981  0  3.934988  0
C  C120  1  0.90135639  0.35705862  0.63495528  1  -0.004103  0  -0.072233  -0.133715  0  3.910906  0
C  C121  1  0.34844855  0.73119292  0.68667901  1  0.028939  0  -0.002405  0.077679  0  4.030527  0
C  C122  1  0.73743346  0.90597530  0.69115273  1  -0.039303  0  -0.006247  0.075229  0  4.040034  0
C  C123  1  0.92454326  0.31911338  0.68308436  1  0.024408  0  -0.005417  0.076201  0  4.041927  0
C  C124  1  0.35268638  0.82229817  0.71402606  1  0.012307  0  0.010722  0.013182  0  3.893126  0
C  C125  1  0.83828557  0.81138489  0.71630157  1  -0.027281  0  0.007817  0.008386  0  3.90228  0
C  C126  1  0.83125080  0.31606963  0.71043884  1  -0.051471  0  0.008589  0.007262  0  3.900952  0
C  C127  1  0.31603721  0.65463003  0.71105967  1  -0.053448  0  -0.086079  -0.1271  0  4.007321  0
C  C128  1  0.65622113  0.01291816  0.71721888  1  -0.053401  0  -0.089003  -0.130709  0  4.0246  0
C  C129  1  0.93333412  0.35722896  0.21284411  1  -0.053643  0  -0.15899  -0.264323  0  3.827915  0
C  C130  1  0.03779356  0.28614314  0.70631036  1  -0.07065  0  -0.088428  -0.130371  0  4.016173  0
C  C131  1  0.29074914  0.66679171  0.75938459  1  -0.033836  0  -0.086478  -0.123938  0  4.005271  0
C  C132  1  0.67211451  0.02440049  0.76529392  1  -0.002583  0  -0.088492  -0.126259  0  4.015605  0
C  C133  1  0.05608436  0.25566036  0.75399975  1  -0.05769  0  -0.090087  -0.128718  0  4.016777  0
C  C134  1  0.29520166  0.75665309  0.78774970  1  -0.002709  0  -0.003371  0.078326  0  4.032438  0
C  C135  1  0.77183470  0.93075637  0.79147183  1  -0.014784  0  -0.005485  0.076558  0  4.040219  0
C  C136  1  0.96288565  0.25531014  0.78269268  1  0.013057  0  -0.006056  0.075803  0  4.035992  0
C  C137  1  0.45216046  0.84873377  0.26062768  1  -0.049149  0  -0.15546  -0.279337  0  3.855896  0
C  C138  1  0.86519975  0.71105121  0.26688853  1  -0.035588  0  -0.156406  -0.280622  0  3.861824  0
C  C139  1  0.70568689  0.41529821  0.25865674  1  -0.047548  0  -0.156599  -0.280296  0  3.865772  0
C  C140  1  0.37915771  0.70248021  0.26467111  1  0.34823  0  0.011164  0.110838  0  3.778129  0
C  C141  1  0.32667638  0.83468863  0.76440897  1  -0.00629  0  0.010955  0.010242  0  3.895779  0
C  C142  1  0.85550896  0.82377102  0.76626262  1  0.038141  0  0.008987  0.009546  0  3.901475  0
C  C143  1  0.85030090  0.28450888  0.76010427  1  0.028133  0  0.008485  0.012061  0  3.897624  0
C  C144  1  0.26784854  0.77153119  0.83728413  1  -0.032811  0  -0.073649  -0.132643  0  3.912605  0
C  C145  1  0.79100422  0.94161483  0.84060428  1  -0.051377  0  -0.073765  -0.133606  0  3.915736  0
C  C146  1  0.97828619  0.22802303  0.83209424  1  -0.076731  0  -0.078362  -0.138686  0  3.928008  0
C  C147  1  0.40922770  0.79484714  0.61472107  1  0.051549  0  -0.016228  -0.048362  0  4.015864  0
C  C148  1  0.80062605  0.78413725  0.61816364  1  -0.025714  0  -0.016556  -0.043694  0  4.023815  0
C  C149  1  0.78890176  0.39070745  0.61369926  1  -0.046714  0  -0.016669  -0.043035  0  4.023198  0
C  C150  1  0.23097821  0.92370471  0.27443698  1  -0.040724  0  -0.153316  -0.188046  0  3.842569  0
C  C151  1  0.72033668  0.93388018  0.26729805  1  0.317683  0  0.011346  0.098584  0  3.808639  0
C  C152  1  0.94592815  0.84670161  0.28171595  1  -0.064901  0  -0.153742  -0.192342  0  3.841616  0
C  C153  1  0.87288306  0.20593298  0.27392274  1  -0.000705  0  -0.154475  -0.187046  0  3.846871  0
C  C154  1  0.21062114  0.93156901  0.21911466  1  -0.01075  0  -0.153494  -0.192008  0  3.852183  0
C  C155  1  0.96690629  0.84648138  0.22662054  1  -0.0264  0  -0.153411  -0.190393  0  3.851641  0
C  C156  1  0.89222837  0.18668358  0.21871673  1  -0.044322  0  -0.154263  -0.18996  0  3.844174  0
C  C157  1  0.27795524  0.86333236  0.09734553  1  0.180206  0  -0.039266  -0.206483  0  3.93746  0
C  C158  1  0.90327718  0.84670622  0.10324217  1  0.315092  0  -0.038957  -0.197736  0  3.95397  0
C  C159  1  0.89481936  0.25749424  0.09823148  1  0.24612  0  -0.041029  -0.199596  0  3.950306  0
C  C160  1  0.36133291  0.82105185  0.28598314  1  0.110076  0  0.004958  0.128125  0  3.880208  0
C  C161  1  0.83632373  0.83004748  0.29104863  1  0.13239  0  0.004958  0.136395  0  3.884858  0
C  C162  1  0.92145843  0.37052787  0.26881985  1  0.367282  0  0.012427  0.102548  0  3.792759  0
C  C163  1  0.82633117  0.33775673  0.28631894  1  0.10985  0  0.003841  0.132052  0  3.892802  0
C  C164  1  0.42602314  0.86981753  0.20615588  1  0.497691  0  0.031074  0.187916  0  3.805711  0
C  C165  1  0.88822254  0.71066119  0.21245039  1  0.518755  0  0.030338  0.189256  0  3.80359  0
C  C166  1  0.72218585  0.39160293  0.20401258  1  0.489478  0  0.031941  0.189272  0  3.794025  0
C  C167  1  0.32822599  0.84000624  0.19170649  1  0.11249  0  -0.00191  0.107698  0  3.914828  0
C  C168  1  0.87132487  0.83163141  0.19754868  1  0.114152  0  -0.002462  0.110489  0  3.919326  0
C  C169  1  0.85760574  0.30516580  0.19249589  1  0.097953  0  -0.002341  0.110908  0  3.920202  0
C  C170  1  0.33395216  0.54642499  0.28343315  1  0.33759  0  -0.146841  -0.21732  0  4.024746  0
C  C171  1  0.56292396  0.14246548  0.28108067  1  0.262982  0  -0.146773  -0.213401  0  4.029813  0
C  C172  1  0.11033758  0.35647801  0.29613219  1  0.300525  0  -0.146175  -0.218376  0  4.030134  0
N  N173  1  0.29722351  0.67161862  0.28827632  1  -1.084848  0  -0.495431  -0.358723  0  3.44944  0
N  N174  1  0.68537698  0.04553268  0.29200882  1  -1.033718  0  -0.495651  -0.353482  0  3.464759  0
N  N175  1  0.03491679  0.30254466  0.29548967  1  -1.060335  0  -0.492684  -0.349608  0  3.45172  0
O  O176  1  0.84262473  0.46766933  0.44262246  1  -1.218582  0  -0.209973  -0.562259  0  2.290549  0
O  O177  1  0.84202769  0.46220340  0.54572771  1  -1.249037  0  -0.211919  -0.558867  0  2.365339  0
O  O178  1  0.47118356  0.67658234  0.54327414  1  -1.261329  0  -0.233981  -0.597338  0  2.298839  0
O  O179  1  0.67647627  0.84390043  0.54789056  1  -1.28128  0  -0.249675  -0.616406  0  2.288231  0
O  O180  1  0.85063207  0.66360858  0.54846423  1  -1.249004  0  -0.210153  -0.54972  0  2.356317  0
O  O181  1  0.65972225  0.47234277  0.54524997  1  -1.282845  0  -0.249643  -0.614637  0  2.283752  0
O  O182  1  0.47865018  0.84590598  0.54447175  1  -1.268725  0  -0.234692  -0.598707  0  2.304866  0
O  O183  1  0.68029519  0.65339716  0.49651958  1  -1.609706  0  -0.39124  -1.269679  0  2.294763  0
O  O184  1  0.83570895  0.96724457  0.93560846  1  -1.250733  0  -0.214742  -0.569237  0  2.370388  0
O  O185  1  0.00516252  0.17491857  0.93031266  1  -1.277133  0  -0.24901  -0.615263  0  2.289622  0
O  O186  1  0.20430299  0.80907614  0.93452903  1  -1.269185  0  -0.234744  -0.599231  0  2.307594  0
O  O187  1  0.47764479  0.67360816  0.44717195  1  -1.237575  0  -0.227572  -0.587676  0  2.241433  0
O  O188  1  0.82696593  0.17707288  0.93184728  1  -1.251406  0  -0.223579  -0.587412  0  2.355584  0
O  O189  1  0.20508793  0.98183365  0.93480379  1  -1.267394  0  -0.234903  -0.597458  0  2.293677  0
O  O190  1  0.01653257  0.79327461  0.93492989  1  -1.275741  0  -0.251249  -0.615602  0  2.272246  0
O  O191  1  0.00021068  0.99496433  0.98338979  1  -1.60798  0  -0.391684  -1.269886  0  2.289355  0
O  O192  1  0.83731817  0.18158572  0.03557115  1  -1.210695  0  -0.204176  -0.553403  0  2.301136  0
O  O193  1  0.19945854  0.98639609  0.03060945  1  -1.245777  0  -0.225747  -0.588423  0  2.250256  0
O  O194  1  0.01516674  0.79706568  0.03176625  1  -1.258755  0  -0.242565  -0.608614  0  2.236558  0
O  O195  1  0.67727568  0.85251045  0.45202752  1  -1.252781  0  -0.243321  -0.60554  0  2.227813  0
O  O196  1  0.83816421  0.97554812  0.03879535  1  -1.211889  0  -0.197102  -0.523456  0  2.270772  0
O  O197  1  0.00971297  0.19030532  0.02713925  1  -1.254222  0  -0.243947  -0.607167  0  2.21842  0
O  O198  1  0.20638133  0.80886675  0.03068896  1  -1.238962  0  -0.228129  -0.589651  0  2.239881  0
O  O199  1  0.84941073  0.66996183  0.44495935  1  -1.223322  0  -0.211169  -0.565366  0  2.295345  0
O  O200  1  0.66537525  0.46703177  0.44918667  1  -1.25373  0  -0.243933  -0.60812  0  2.231698  0
O  O201  1  0.48351158  0.84480676  0.44838698  1  -1.247085  0  -0.22879  -0.591773  0  2.244692  0
O  O202  1  0.01412500  0.47828495  0.49764743  1  -1.37606  0  -0.582535  -1.000515  0  1.796665  0
O  O203  1  0.66616568  0.15418384  0.98870186  1  -1.353568  0  -0.581667  -0.997163  0  1.800027  0
F  F204  1  0.53428014  0.79699257  0.18017068  1  -0.622916  0  -0.135034  -0.189708  0  1.269368  0
F  F205  1  0.80548721  0.68938749  0.18688302  1  -0.621602  0  -0.136949  -0.194222  0  1.265287  0
F  F206  1  0.68088005  0.50080732  0.17977030  1  -0.625828  0  -0.134695  -0.192912  0  1.258047  0
