# generated using pymatgen
data_CuH7C10INO2
_symmetry_space_group_name_H-M   'P 1'
_cell_length_a   4.23424119
_cell_length_b   14.82624384
_cell_length_c   15.82593603
_cell_angle_alpha   89.99991373
_cell_angle_beta   90.00011439
_cell_angle_gamma   89.09743788
_symmetry_Int_Tables_number   1
_chemical_formula_structural   CuH7C10INO2
_chemical_formula_sum   'Cu4 H28 C40 I4 N4 O8'
_cell_volume   993.39564291
_cell_formula_units_Z   4
loop_
 _symmetry_equiv_pos_site_id
 _symmetry_equiv_pos_as_xyz
  1  'x, y, z'
loop_
 _atom_site_type_symbol
 _atom_site_label
 _atom_site_symmetry_multiplicity
 _atom_site_fract_x
 _atom_site_fract_y
 _atom_site_fract_z
 _atom_site_occupancy
 _atom_site_hle17_bader_spin_density
 _atom_site_hle17_ddec_charge
 _atom_site_hle17_ddec_spin_density
 _atom_site_hle17_ddec_sum_bond_order
 _atom_site_hle17_magmom
 _atom_site_hse06_10hf_bader_spin_density
 _atom_site_hse06_10hf_ddec_charge
 _atom_site_hse06_10hf_ddec_spin_density
 _atom_site_hse06_10hf_ddec_sum_bond_order
 _atom_site_hse06_10hf_magmom
 _atom_site_hse06_bader_spin_density
 _atom_site_hse06_ddec_charge
 _atom_site_hse06_ddec_spin_density
 _atom_site_hse06_ddec_sum_bond_order
 _atom_site_hse06_magmom
 _atom_site_pbe_bader_spin_density
 _atom_site_pbe_cm5_charge
 _atom_site_pbe_ddec_charge
 _atom_site_pbe_ddec_spin_density
 _atom_site_pbe_ddec_sum_bond_order
 _atom_site_pbe_magmom
Cu  Cu0  1  0.67304599  0.98468008  0.93424629  1  0  0.268579  0  2.12846  0  0  0.190239  0  2.593644  0  0  0.20201  0  2.54146  0  0  0.260292  0.184958  0  2.627839  0
Cu  Cu1  1  0.82695051  0.51532169  0.43424779  1  0  0.268666  0  2.128467  0  0  0.19027  0  2.593631  0  0  0.20199  0  2.54145  0  0  0.260264  0.185001  0  2.627695  0
Cu  Cu2  1  0.32694651  0.01532104  0.06575100  1  0  0.268478  0  2.128566  0  0  0.190162  0  2.593772  0  0  0.201904  0  2.541592  0  0  0.260247  0.184904  0  2.627966  0
Cu  Cu3  1  0.17304666  0.48468144  0.56575266  1  0  0.268606  0  2.128546  0  0  0.190216  0  2.593689  0  0  0.202005  0  2.541506  0  0  0.260297  0.184936  0  2.627873  0
H  H4  1  0.10051554  0.04154551  0.55351860  1  0  0.398966  0  0.894144  0  0  0.368014  0  0.970955  0  0  0.381157  0  0.957035  0  0  0.304935  0.358814  0  0.980489  0
H  H5  1  0.39949670  0.45844683  0.05352395  1  0  0.398825  0  0.894368  0  0  0.367925  0  0.97109  0  0  0.381066  0  0.957159  0  0  0.304902  0.358723  0  0.980622  0
H  H6  1  0.89948668  0.95844547  0.44647490  1  0  0.398838  0  0.894334  0  0  0.367954  0  0.971034  0  0  0.381097  0  0.957104  0  0  0.304912  0.358754  0  0.980563  0
H  H7  1  0.60050302  0.54154955  0.94648092  1  0  0.398851  0  0.894263  0  0  0.367896  0  0.971071  0  0  0.381037  0  0.957182  0  0  0.304881  0.358693  0  0.980608  0
H  H8  1  0.90752070  0.00348026  0.76229448  1  0  0.08317  0  0.95081  0  0  0.087524  0  1.025994  0  0  0.091106  0  1.0218  0  0  0.107491  0.084787  0  1.029108  0
H  H9  1  0.59247662  0.49652113  0.26229709  1  0  0.083145  0  0.95085  0  0  0.087538  0  1.025972  0  0  0.091128  0  1.021764  0  0  0.107491  0.084784  0  1.029115  0
H  H10  1  0.09247655  0.99652018  0.23770028  1  0  0.083107  0  0.950832  0  0  0.087535  0  1.025932  0  0  0.091125  0  1.021721  0  0  0.107488  0.084778  0  1.029086  0
H  H11  1  0.40751585  0.50348133  0.73770715  1  0  0.083124  0  0.950817  0  0  0.087488  0  1.025999  0  0  0.091074  0  1.021796  0  0  0.107509  0.084747  0  1.029131  0
H  H12  1  0.46408564  0.80100141  0.60841287  1  0  0.108932  0  0.940827  0  0  0.118088  0  1.006036  0  0  0.121866  0  1.001745  0  0  0.107051  0.115198  0  1.009255  0
H  H13  1  0.03591761  0.69899827  0.10841460  1  0  0.108931  0  0.9408  0  0  0.118096  0  1.006006  0  0  0.121872  0  1.00172  0  0  0.107064  0.115206  0  1.009222  0
H  H14  1  0.53593777  0.19899222  0.39158632  1  0  0.108934  0  0.940716  0  0  0.118092  0  1.005949  0  0  0.121877  0  1.001643  0  0  0.107021  0.115193  0  1.009169  0
H  H15  1  0.96406550  0.30100085  0.89158585  1  0  0.108967  0  0.940678  0  0  0.11812  0  1.005902  0  0  0.121901  0  1.001609  0  0  0.107056  0.115228  0  1.009123  0
H  H16  1  0.13668327  0.68568348  0.68201925  1  0  0.088634  0  1.000467  0  0  0.097296  0  1.06855  0  0  0.099967  0  1.067918  0  0  0.080341  0.095039  0  1.069379  0
H  H17  1  0.36332290  0.81431675  0.18202036  1  0  0.08869  0  1.000397  0  0  0.097344  0  1.068493  0  0  0.100008  0  1.067883  0  0  0.080356  0.095089  0  1.069315  0
H  H18  1  0.86333772  0.31431218  0.31798246  1  0  0.088613  0  1.000458  0  0  0.097251  0  1.068586  0  0  0.099917  0  1.06797  0  0  0.080337  0.094989  0  1.069411  0
H  H19  1  0.63667667  0.18568503  0.81798009  1  0  0.088661  0  1.000417  0  0  0.097331  0  1.068491  0  0  0.100003  0  1.067857  0  0  0.080355  0.095072  0  1.069317  0
H  H20  1  0.91682180  0.62446220  0.81477436  1  0  0.098042  0  0.946756  0  0  0.108674  0  1.006378  0  0  0.111672  0  1.005358  0  0  0.100227  0.106423  0  1.007387  0
H  H21  1  0.58316434  0.87553911  0.31477650  1  0  0.097995  0  0.946818  0  0  0.108641  0  1.006436  0  0  0.11164  0  1.005416  0  0  0.100223  0.106388  0  1.007447  0
H  H22  1  0.08318495  0.37553618  0.18522798  1  0  0.09801  0  0.946821  0  0  0.108653  0  1.006431  0  0  0.111649  0  1.005415  0  0  0.100224  0.106439  0  1.00739  0
H  H23  1  0.41682101  0.12446472  0.68522331  1  0  0.098008  0  0.946816  0  0  0.108653  0  1.006413  0  0  0.111648  0  1.005397  0  0  0.100228  0.1064  0  1.007423  0
H  H24  1  0.03710686  0.69764714  0.95247084  1  0  0.095981  0  0.957755  0  0  0.103331  0  1.023304  0  0  0.106608  0  1.020628  0  0  0.098169  0.100946  0  1.025278  0
H  H25  1  0.46288252  0.80235335  0.45247138  1  0  0.096089  0  0.957721  0  0  0.103412  0  1.023283  0  0  0.106686  0  1.02061  0  0  0.098222  0.10102  0  1.025264  0
H  H26  1  0.96289506  0.30235531  0.04753214  1  0  0.09604  0  0.957695  0  0  0.103347  0  1.023292  0  0  0.106618  0  1.020624  0  0  0.098192  0.100963  0  1.025254  0
H  H27  1  0.53710519  0.19765048  0.54752907  1  0  0.095965  0  0.957703  0  0  0.103286  0  1.023301  0  0  0.106559  0  1.020631  0  0  0.098138  0.100903  0  1.025264  0
H  H28  1  0.37672458  0.83295353  0.95776909  1  0  0.089468  0  1.017831  0  0  0.094534  0  1.093516  0  0  0.099165  0  1.089571  0  0  0.079047  0.090721  0  1.097023  0
H  H29  1  0.12326950  0.66704964  0.45777028  1  0  0.089464  0  1.017824  0  0  0.094546  0  1.093501  0  0  0.099179  0  1.089553  0  0  0.079051  0.090732  0  1.096991  0
H  H30  1  0.62328437  0.16705093  0.04222946  1  0  0.089444  0  1.017822  0  0  0.094516  0  1.093515  0  0  0.09915  0  1.089566  0  0  0.079038  0.090701  0  1.097019  0
H  H31  1  0.87671576  0.33295757  0.54222890  1  0  0.089446  0  1.017825  0  0  0.094523  0  1.093497  0  0  0.09916  0  1.089535  0  0  0.079049  0.090707  0  1.097001  0
C  C32  1  0.75895476  0.94435866  0.75622401  1  0  0.144172  0  3.642166  0  0  0.098187  0  3.899498  0  0  0.110368  0  3.912902  0  0  0.053065  0.0903  0  3.890861  0
C  C33  1  0.74104510  0.55564205  0.25622541  1  0  0.144243  0  3.642239  0  0  0.09824  0  3.899586  0  0  0.110421  0  3.912988  0  0  0.053043  0.090352  0  3.890925  0
C  C34  1  0.24105197  0.05564040  0.24377328  1  0  0.144292  0  3.642249  0  0  0.098233  0  3.899631  0  0  0.110414  0  3.913036  0  0  0.052984  0.090358  0  3.891  0
C  C35  1  0.25894971  0.44436109  0.74377630  1  0  0.14428  0  3.642104  0  0  0.098262  0  3.899466  0  0  0.110443  0  3.912871  0  0  0.053043  0.090371  0  3.890841  0
C  C36  1  0.69972865  0.90686634  0.67555075  1  0  -0.14759  0  3.791304  0  0  -0.124397  0  4.038136  0  0  -0.139875  0  4.060881  0  0  -0.024868  -0.114626  0  4.023367  0
C  C37  1  0.80026350  0.59313452  0.17555339  1  0  -0.147695  0  3.791382  0  0  -0.12451  0  4.038221  0  0  -0.139989  0  4.06096  0  0  -0.024843  -0.114739  0  4.023434  0
C  C38  1  0.30027335  0.09313273  0.32444654  1  0  -0.147791  0  3.791397  0  0  -0.124593  0  4.038239  0  0  -0.140069  0  4.060982  0  0  -0.024877  -0.114816  0  4.023466  0
C  C39  1  0.19971956  0.40686662  0.82445021  1  0  -0.147731  0  3.791331  0  0  -0.124516  0  4.038161  0  0  -0.139995  0  4.060902  0  0  -0.024915  -0.114749  0  4.023407  0
C  C40  1  0.51182097  0.83147009  0.66974004  1  0  -0.026963  0  3.655111  0  0  -0.069224  0  3.909066  0  0  -0.058525  0  3.920618  0  0  -0.056623  -0.076595  0  3.901826  0
C  C41  1  0.98818300  0.66852872  0.16974141  1  0  -0.026787  0  3.655012  0  0  -0.069077  0  3.908948  0  0  -0.058361  0  3.920507  0  0  -0.056596  -0.076444  0  3.901688  0
C  C42  1  0.48820002  0.16852556  0.33025915  1  0  -0.02673  0  3.654821  0  0  -0.069057  0  3.908771  0  0  -0.058337  0  3.920331  0  0  -0.056514  -0.076425  0  3.901514  0
C  C43  1  0.01180949  0.33147307  0.83025904  1  0  -0.026892  0  3.654804  0  0  -0.069179  0  3.908804  0  0  -0.058483  0  3.920353  0  0  -0.056566  -0.076551  0  3.901567  0
C  C44  1  0.38616632  0.79377762  0.74393280  1  0  0.006799  0  3.794237  0  0  0.029233  0  4.020693  0  0  0.022805  0  4.046252  0  0  -0.007796  0.033187  0  4.003859  0
C  C45  1  0.11383805  0.70621980  0.24393582  1  0  0.006604  0  3.794352  0  0  0.029129  0  4.020709  0  0  0.022654  0  4.046335  0  0  -0.007852  0.033073  0  4.003878  0
C  C46  1  0.61385235  0.20621669  0.25606449  1  0  0.006526  0  3.794312  0  0  0.029094  0  4.020651  0  0  0.022605  0  4.046294  0  0  -0.007868  0.033069  0  4.003792  0
C  C47  1  0.88614973  0.29378133  0.75606589  1  0  0.006773  0  3.794076  0  0  0.029218  0  4.020537  0  0  0.022791  0  4.046091  0  0  -0.007804  0.033179  0  4.00369  0
C  C48  1  0.45450238  0.83597686  0.82321972  1  0  0.203989  0  3.722076  0  0  0.200729  0  3.952269  0  0  0.208068  0  3.974487  0  0  0.109113  0.195991  0  3.937686  0
C  C49  1  0.04549779  0.66402381  0.32322340  1  0  0.204115  0  3.721812  0  0  0.200798  0  3.952061  0  0  0.208149  0  3.974288  0  0  0.109168  0.196066  0  3.937467  0
C  C50  1  0.54550190  0.16402558  0.17677693  1  0  0.204061  0  3.721966  0  0  0.200717  0  3.952253  0  0  0.208071  0  3.974484  0  0  0.109115  0.195984  0  3.937674  0
C  C51  1  0.95449464  0.33598000  0.67677894  1  0  0.203915  0  3.72198  0  0  0.200664  0  3.952169  0  0  0.208005  0  3.974389  0  0  0.109073  0.195926  0  3.937587  0
C  C52  1  0.19188828  0.71671070  0.74261724  1  0  -0.094848  0  3.729276  0  0  -0.117019  0  3.977458  0  0  -0.118778  0  4.000868  0  0  -0.090745  -0.115738  0  3.962069  0
C  C53  1  0.30811131  0.78328808  0.24261836  1  0  -0.094932  0  3.729116  0  0  -0.117114  0  3.977284  0  0  -0.118862  0  4.000699  0  0  -0.090792  -0.115834  0  3.961891  0
C  C54  1  0.80812798  0.28328496  0.25738384  1  0  -0.094694  0  3.729249  0  0  -0.11689  0  3.977436  0  0  -0.118634  0  4.00086  0  0  -0.090716  -0.115615  0  3.962048  0
C  C55  1  0.69187880  0.21671439  0.75738209  1  0  -0.094927  0  3.729319  0  0  -0.117107  0  3.977507  0  0  -0.118868  0  4.000917  0  0  -0.090776  -0.115829  0  3.96211  0
C  C56  1  0.07035767  0.68275138  0.81656167  1  0  -0.057663  0  3.736622  0  0  -0.072858  0  3.992616  0  0  -0.076672  0  4.014315  0  0  -0.087805  -0.070486  0  3.978187  0
C  C57  1  0.42963534  0.81725000  0.31656471  1  0  -0.057521  0  3.73646  0  0  -0.072743  0  3.992446  0  0  -0.076554  0  4.014136  0  0  -0.08778  -0.070369  0  3.978013  0
C  C58  1  0.92964904  0.31724836  0.18343877  1  0  -0.057703  0  3.736715  0  0  -0.072899  0  3.992706  0  0  -0.07671  0  4.014395  0  0  -0.087824  -0.070553  0  3.978265  0
C  C59  1  0.57034998  0.18275451  0.68343700  1  0  -0.057542  0  3.736626  0  0  -0.072721  0  3.992594  0  0  -0.076532  0  4.014289  0  0  -0.087765  -0.07035  0  3.97816  0
C  C60  1  0.13845786  0.72458222  0.89459054  1  0  -0.016516  0  3.703792  0  0  -0.034665  0  3.956904  0  0  -0.032859  0  3.976015  0  0  -0.078686  -0.03567  0  3.944035  0
C  C61  1  0.36153572  0.77542105  0.39459359  1  0  -0.016614  0  3.70388  0  0  -0.034721  0  3.956999  0  0  -0.032912  0  3.976107  0  0  -0.07875  -0.035727  0  3.944122  0
C  C62  1  0.86154875  0.27542156  0.10540928  1  0  -0.016581  0  3.703715  0  0  -0.034691  0  3.956827  0  0  -0.03288  0  3.975934  0  0  -0.078759  -0.035695  0  3.943969  0
C  C63  1  0.63845424  0.22458682  0.60540812  1  0  -0.016438  0  3.703742  0  0  -0.034581  0  3.95689  0  0  -0.032775  0  3.976004  0  0  -0.07864  -0.035584  0  3.944019  0
C  C64  1  0.32651786  0.79975553  0.89793252  1  0  -0.142001  0  3.71182  0  0  -0.162005  0  3.966456  0  0  -0.168079  0  3.985572  0  0  -0.094416  -0.158551  0  3.954573  0
C  C65  1  0.17348758  0.70024636  0.39793558  1  0  -0.142058  0  3.711725  0  0  -0.162075  0  3.966381  0  0  -0.168148  0  3.985491  0  0  -0.094416  -0.158613  0  3.954469  0
C  C66  1  0.67349820  0.20024756  0.10206540  1  0  -0.141923  0  3.711641  0  0  -0.161935  0  3.966322  0  0  -0.168004  0  3.985424  0  0  -0.094349  -0.158481  0  3.954435  0
C  C67  1  0.82650716  0.29975948  0.60206613  1  0  -0.142028  0  3.711772  0  0  -0.162049  0  3.96643  0  0  -0.168122  0  3.985551  0  0  -0.094439  -0.158597  0  3.954549  0
C  C68  1  0.83353665  0.94685934  0.59813985  1  0  0.669324  0  3.805991  0  0  0.617781  0  4.101203  0  0  0.652617  0  4.092475  0  0  0.239827  0.594082  0  4.106875  0
C  C69  1  0.66648105  0.55313485  0.09814375  1  0  0.669363  0  3.806051  0  0  0.617886  0  4.101167  0  0  0.652729  0  4.092431  0  0  0.239826  0.594192  0  4.106841  0
C  C70  1  0.16648450  0.05313025  0.40185428  1  0  0.669316  0  3.806145  0  0  0.617935  0  4.101152  0  0  0.65276  0  4.092436  0  0  0.239852  0.594231  0  4.106822  0
C  C71  1  0.33352575  0.44686152  0.90186049  1  0  0.669377  0  3.806062  0  0  0.617856  0  4.101208  0  0  0.652697  0  4.092473  0  0  0.239825  0.594156  0  4.106882  0
I  I72  1  0.82797152  0.90621602  0.07854534  1  0  -0.361222  0  1.77775  0  0  -0.303842  0  2.235864  0  0  -0.321216  0  2.19306  0  0  -0.148228  -0.289848  0  2.264411  0
I  I73  1  0.67201280  0.59378435  0.57854437  1  0  -0.361278  0  1.777844  0  0  -0.303829  0  2.235905  0  0  -0.321219  0  2.193105  0  0  -0.148252  -0.289844  0  2.264432  0
I  I74  1  0.17201392  0.09378444  0.92145322  1  0  -0.361191  0  1.777746  0  0  -0.30379  0  2.23585  0  0  -0.321176  0  2.193052  0  0  -0.148221  -0.289799  0  2.264399  0
I  I75  1  0.32797026  0.40621679  0.42145355  1  0  -0.361309  0  1.777743  0  0  -0.303857  0  2.235768  0  0  -0.321231  0  2.19296  0  0  -0.148256  -0.289864  0  2.264234  0
N  N76  1  0.64027791  0.91162024  0.82740336  1  0  -0.299321  0  3.317217  0  0  -0.22491  0  3.599459  0  0  -0.240499  0  3.60971  0  0  -0.349847  -0.215805  0  3.593031  0
N  N77  1  0.85971779  0.58838035  0.32740478  1  0  -0.299369  0  3.31727  0  0  -0.224958  0  3.599554  0  0  -0.240537  0  3.609785  0  0  -0.349854  -0.215858  0  3.593077  0
N  N78  1  0.35972645  0.08837882  0.17259330  1  0  -0.299269  0  3.317375  0  0  -0.224836  0  3.599675  0  0  -0.24042  0  3.609915  0  0  -0.349751  -0.215766  0  3.593296  0
N  N79  1  0.14027227  0.41162414  0.67259693  1  0  -0.29929  0  3.317183  0  0  -0.22487  0  3.599425  0  0  -0.240466  0  3.609687  0  0  -0.349797  -0.215764  0  3.593016  0
O  O80  1  0.02166161  0.01572736  0.61067793  1  0  -0.543501  0  2.121061  0  0  -0.49054  0  2.341903  0  0  -0.514075  0  2.329486  0  0  -0.316565  -0.474348  0  2.350046  0
O  O81  1  0.47833442  0.48426964  0.11068455  1  0  -0.543415  0  2.121172  0  0  -0.490564  0  2.342008  0  0  -0.514104  0  2.329578  0  0  -0.316596  -0.474371  0  2.350155  0
O  O82  1  0.97833104  0.98426836  0.38931304  1  0  -0.543387  0  2.121221  0  0  -0.490575  0  2.342029  0  0  -0.51411  0  2.329612  0  0  -0.316594  -0.474378  0  2.350168  0
O  O83  1  0.52164869  0.51572947  0.88932158  1  0  -0.543379  0  2.121123  0  0  -0.490424  0  2.341944  0  0  -0.51396  0  2.329545  0  0  -0.316495  -0.474228  0  2.350086  0
O  O84  1  0.76873567  0.91645757  0.52653272  1  0  -0.566387  0  1.987541  0  0  -0.514175  0  2.200317  0  0  -0.536818  0  2.190733  0  0  -0.283966  -0.498777  0  2.206642  0
O  O85  1  0.73126733  0.58353541  0.02653660  1  0  -0.566421  0  1.987681  0  0  -0.514177  0  2.200429  0  0  -0.53682  0  2.19085  0  0  -0.283899  -0.498781  0  2.206756  0
O  O86  1  0.23127609  0.08353001  0.47346331  1  0  -0.566446  0  1.987535  0  0  -0.514254  0  2.20025  0  0  -0.536892  0  2.190674  0  0  -0.28394  -0.498855  0  2.206572  0
O  O87  1  0.26873725  0.41645556  0.97346890  1  0  -0.566464  0  1.987518  0  0  -0.514228  0  2.200255  0  0  -0.536872  0  2.190667  0  0  -0.283994  -0.498829  0  2.206579  0
