# generated using pymatgen
data_CdH12C16SN4O5
_symmetry_space_group_name_H-M   'P 1'
_cell_length_a   7.02481513
_cell_length_b   7.78152206
_cell_length_c   16.55622480
_cell_angle_alpha   73.34668630
_cell_angle_beta   83.57779490
_cell_angle_gamma   83.71661632
_symmetry_Int_Tables_number   1
_chemical_formula_structural   CdH12C16SN4O5
_chemical_formula_sum   'Cd2 H24 C32 S2 N8 O10'
_cell_volume   858.77266823
_cell_formula_units_Z   2
loop_
 _symmetry_equiv_pos_site_id
 _symmetry_equiv_pos_as_xyz
  1  'x, y, z'
loop_
 _atom_site_type_symbol
 _atom_site_label
 _atom_site_symmetry_multiplicity
 _atom_site_fract_x
 _atom_site_fract_y
 _atom_site_fract_z
 _atom_site_occupancy
 _atom_site_hle17_bader_spin_density
 _atom_site_hle17_ddec_charge
 _atom_site_hle17_ddec_spin_density
 _atom_site_hle17_ddec_sum_bond_order
 _atom_site_hle17_magmom
 _atom_site_hse06_10hf_bader_spin_density
 _atom_site_hse06_10hf_ddec_charge
 _atom_site_hse06_10hf_ddec_spin_density
 _atom_site_hse06_10hf_ddec_sum_bond_order
 _atom_site_hse06_10hf_magmom
 _atom_site_hse06_bader_spin_density
 _atom_site_hse06_ddec_charge
 _atom_site_hse06_ddec_spin_density
 _atom_site_hse06_ddec_sum_bond_order
 _atom_site_hse06_magmom
 _atom_site_pbe_bader_spin_density
 _atom_site_pbe_cm5_charge
 _atom_site_pbe_ddec_charge
 _atom_site_pbe_ddec_spin_density
 _atom_site_pbe_ddec_sum_bond_order
 _atom_site_pbe_magmom
Cd  Cd0  1  0.66352934  0.99035227  0.59755293  1  0  1.176607  0  1.57281  0  0  0.992394  0  2.005555  0  0  1.054167  0  1.948746  0  0  0.771608  0.948413  0  2.044297  0
Cd  Cd1  1  0.33646997  0.00964897  0.40244614  1  0  1.176596  0  1.572834  0  0  0.992377  0  2.005573  0  0  1.054139  0  1.948786  0  0  0.771585  0.948397  0  2.044313  0
H  H2  1  0.84608785  0.66624103  0.65886920  1  0  0.420261  0  0.83764  0  0  0.396196  0  0.904687  0  0  0.405355  0  0.89431  0  0  0.304362  0.389663  0  0.912099  0
H  H3  1  0.15390916  0.33376930  0.34113141  1  0  0.420225  0  0.837694  0  0  0.396141  0  0.904785  0  0  0.405304  0  0.894401  0  0  0.304287  0.38961  0  0.912203  0
H  H4  1  0.00954143  0.76858226  0.59534402  1  0  0.425732  0  0.876293  0  0  0.391646  0  0.944976  0  0  0.403303  0  0.928226  0  0  0.282151  0.383385  0  0.956803  0
H  H5  1  0.99046073  0.23141707  0.40465938  1  0  0.425797  0  0.876201  0  0  0.391733  0  0.944846  0  0  0.403389  0  0.928097  0  0  0.282182  0.383474  0  0.956674  0
H  H6  1  0.72022188  0.01807812  0.78090020  1  0  0.088962  0  0.925952  0  0  0.097955  0  0.98755  0  0  0.100632  0  0.98465  0  0  0.120446  0.095931  0  0.989758  0
H  H7  1  0.27978492  0.98193670  0.21909591  1  0  0.088882  0  0.926085  0  0  0.097888  0  0.987659  0  0  0.10056  0  0.984766  0  0  0.120467  0.095864  0  0.989866  0
H  H8  1  0.54079584  0.09904869  0.90560032  1  0  0.108252  0  0.967433  0  0  0.108226  0  1.047103  0  0  0.112594  0  1.043876  0  0  0.103917  0.105131  0  1.0495  0
H  H9  1  0.45920085  0.90094996  0.09439852  1  0  0.108197  0  0.967385  0  0  0.108147  0  1.047115  0  0  0.112513  0  1.043888  0  0  0.1039  0.105052  0  1.049513  0
H  H10  1  0.02167153  0.16091601  0.77697163  1  0  0.118124  0  0.948441  0  0  0.126906  0  1.011517  0  0  0.130915  0  1.008746  0  0  0.10809  0.123926  0  1.013805  0
H  H11  1  0.97832218  0.83908399  0.22302719  1  0  0.118126  0  0.948439  0  0  0.126903  0  1.011516  0  0  0.130912  0  1.008748  0  0  0.108082  0.123925  0  1.013807  0
H  H12  1  0.22066184  0.07023256  0.66132511  1  0  0.10394  0  0.92888  0  0  0.114207  0  0.98505  0  0  0.116378  0  0.983427  0  0  0.124633  0.112518  0  0.986416  0
H  H13  1  0.77933925  0.92978236  0.33867062  1  0  0.103938  0  0.928894  0  0  0.114166  0  0.985089  0  0  0.116338  0  0.983461  0  0  0.124624  0.112447  0  0.986489  0
H  H14  1  0.97184107  0.35027870  0.18158494  1  0  0.113707  0  0.9531  0  0  0.121683  0  1.017909  0  0  0.125406  0  1.01561  0  0  0.106906  0.118963  0  1.019696  0
H  H15  1  0.02816407  0.64970532  0.81841392  1  0  0.113772  0  0.953151  0  0  0.12176  0  1.017953  0  0  0.125472  0  1.015665  0  0  0.10693  0.119041  0  1.019741  0
H  H16  1  0.69659282  0.45606253  0.26844527  1  0  0.078808  0  0.928232  0  0  0.086777  0  0.989843  0  0  0.089371  0  0.98787  0  0  0.109763  0.084831  0  0.991429  0
H  H17  1  0.30342078  0.54392082  0.73155817  1  0  0.078733  0  0.928206  0  0  0.086718  0  0.989816  0  0  0.08931  0  0.987843  0  0  0.109749  0.084773  0  0.991394  0
H  H18  1  0.30541681  0.40604028  0.10896636  1  0  0.055525  0  0.994671  0  0  0.055545  0  1.075451  0  0  0.058502  0  1.072833  0  0  0.096567  0.053394  0  1.077365  0
H  H19  1  0.69457645  0.59396142  0.89103956  1  0  0.055573  0  0.994512  0  0  0.055612  0  1.075278  0  0  0.058566  0  1.072659  0  0  0.096598  0.053471  0  1.077163  0
H  H20  1  0.55712367  0.29303816  0.01750625  1  0  0.101597  0  0.978196  0  0  0.106126  0  1.050832  0  0  0.10996  0  1.048392  0  0  0.098894  0.103411  0  1.052661  0
H  H21  1  0.44285789  0.70695040  0.98249972  1  0  0.101627  0  0.978146  0  0  0.106165  0  1.050786  0  0  0.109991  0  1.04836  0  0  0.098911  0.10345  0  1.052618  0
H  H22  1  0.46459190  0.42213566  0.59666279  1  0  0.120176  0  0.93393  0  0  0.127424  0  0.996427  0  0  0.131452  0  0.994381  0  0  0.108469  0.12453  0  0.998099  0
H  H23  1  0.53540026  0.57788148  0.40333668  1  0  0.120184  0  0.933944  0  0  0.127393  0  0.996451  0  0  0.13142  0  0.994425  0  0  0.108448  0.124491  0  0.998141  0
H  H24  1  0.09428319  0.45010087  0.58435312  1  0  0.11534  0  0.943822  0  0  0.125254  0  1.004313  0  0  0.128906  0  1.002446  0  0  0.108994  0.12264  0  1.00586  0
H  H25  1  0.90573286  0.54988991  0.41564398  1  0  0.115233  0  0.943903  0  0  0.125211  0  1.004308  0  0  0.128864  0  1.002438  0  0  0.108958  0.122582  0  1.005884  0
C  C26  1  0.56530190  0.05061464  0.78317540  1  0  0.145771  0  3.689423  0  0  0.116086  0  3.939635  0  0  0.123578  0  3.95722  0  0  0.055113  0.111186  0  3.927698  0
C  C27  1  0.43470594  0.94940580  0.21681825  1  0  0.145726  0  3.689556  0  0  0.116057  0  3.939772  0  0  0.123552  0  3.957356  0  0  0.055037  0.111155  0  3.927839  0
C  C28  1  0.46588052  0.09751122  0.85187020  1  0  -0.12241  0  3.673784  0  0  -0.144442  0  3.927225  0  0  -0.150687  0  3.946931  0  0  -0.075782  -0.14046  0  3.91408  0
C  C29  1  0.53411333  0.90248752  0.14812814  1  0  -0.122245  0  3.67368  0  0  -0.144282  0  3.927078  0  0  -0.150522  0  3.946782  0  0  -0.07576  -0.140297  0  3.913933  0
C  C30  1  0.26630714  0.13870491  0.85193140  1  0  0.069539  0  3.81817  0  0  0.081213  0  4.055516  0  0  0.082977  0  4.079202  0  0  0.005949  0.080188  0  4.03936  0
C  C31  1  0.73368699  0.86129139  0.14806538  1  0  0.069502  0  3.818219  0  0  0.081211  0  4.055515  0  0  0.082969  0  4.079207  0  0  0.005937  0.080185  0  4.039366  0
C  C32  1  0.17583768  0.13012358  0.78201457  1  0  -0.151131  0  3.680834  0  0  -0.172343  0  3.931723  0  0  -0.179517  0  3.951991  0  0  -0.080512  -0.167641  0  3.918196  0
C  C33  1  0.82415604  0.86987642  0.21798425  1  0  -0.15127  0  3.681078  0  0  -0.172501  0  3.931979  0  0  -0.179676  0  3.952249  0  0  -0.080551  -0.167803  0  3.91845  0
C  C34  1  0.28653812  0.07954991  0.71622987  1  0  0.14611  0  3.67569  0  0  0.116471  0  3.926864  0  0  0.12398  0  3.945268  0  0  0.055052  0.11152  0  3.914388  0
C  C35  1  0.71346977  0.92045123  0.28376948  1  0  0.146215  0  3.67562  0  0  0.116625  0  3.926756  0  0  0.124141  0  3.945152  0  0  0.055069  0.111702  0  3.914285  0
C  C36  1  0.16179772  0.18523017  0.92503027  1  0  0.089671  0  3.773272  0  0  0.080152  0  4.058459  0  0  0.087076  0  4.075638  0  0  0.123769  0.075531  0  4.046648  0
C  C37  1  0.83819780  0.81476595  0.07496768  1  0  0.089741  0  3.77317  0  0  0.080213  0  4.058347  0  0  0.087139  0  4.075526  0  0  0.123851  0.075592  0  4.046536  0
C  C38  1  0.94598742  0.26544789  0.03379318  1  0  0.105936  0  3.739068  0  0  0.093542  0  4.028003  0  0  0.101867  0  4.043998  0  0  0.126283  0.08796  0  4.017024  0
C  C39  1  0.05399971  0.73454550  0.96620601  1  0  0.105872  0  3.739178  0  0  0.093512  0  4.02805  0  0  0.101836  0  4.044048  0  0  0.126228  0.087936  0  4.017064  0
C  C40  1  0.78947351  0.32166056  0.08875725  1  0  0.056945  0  3.824169  0  0  0.071235  0  4.05896  0  0  0.07111  0  4.083903  0  0  -0.00511  0.071452  0  4.041929  0
C  C41  1  0.21051373  0.67833140  0.91124269  1  0  0.057036  0  3.824057  0  0  0.071388  0  4.058753  0  0  0.071261  0  4.083701  0  0  -0.00505  0.071604  0  4.041725  0
C  C42  1  0.82652021  0.36491764  0.16212749  1  0  -0.15077  0  3.695662  0  0  -0.173531  0  3.945968  0  0  -0.179524  0  3.96809  0  0  -0.085542  -0.169508  0  3.931067  0
C  C43  1  0.17348437  0.63507310  0.83787068  1  0  -0.15099  0  3.695925  0  0  -0.173792  0  3.946267  0  0  -0.179773  0  3.96839  0  0  -0.085634  -0.169775  0  3.931374  0
C  C44  1  0.67237799  0.42452037  0.21051618  1  0  0.128276  0  3.723226  0  0  0.104962  0  3.98786  0  0  0.10943  0  4.00553  0  0  0.040586  0.102036  0  3.97584  0
C  C45  1  0.32762952  0.57546693  0.78948768  1  0  0.12854  0  3.723167  0  0  0.105192  0  3.987822  0  0  0.109663  0  4.005488  0  0  0.040617  0.102271  0  3.975792  0
C  C46  1  0.45508990  0.39726470  0.12274654  1  0  0.108156  0  3.764943  0  0  0.086791  0  4.026013  0  0  0.091113  0  4.043437  0  0  0.031836  0.084077  0  4.014023  0
C  C47  1  0.54490419  0.60272586  0.87726356  1  0  0.10829  0  3.764483  0  0  0.086919  0  4.025585  0  0  0.091248  0  4.043  0  0  0.031827  0.084199  0  4.013607  0
C  C48  1  0.59801813  0.33391340  0.07047286  1  0  -0.151111  0  3.714811  0  0  -0.168734  0  3.95673  0  0  -0.174895  0  3.979134  0  0  -0.090439  -0.164611  0  3.94156  0
C  C49  1  0.40197219  0.66607395  0.92953168  1  0  -0.151343  0  3.714931  0  0  -0.169038  0  3.956938  0  0  -0.175197  0  3.979341  0  0  -0.090533  -0.164912  0  3.941773  0
C  C50  1  0.54833211  0.69822321  0.54180696  1  0  0.676425  0  3.931487  0  0  0.629783  0  4.218926  0  0  0.665114  0  4.212344  0  0  0.195556  0.605788  0  4.222436  0
C  C51  1  0.45167182  0.30179162  0.45818927  1  0  0.67627  0  3.931522  0  0  0.629747  0  4.218743  0  0  0.665084  0  4.212167  0  0  0.195511  0.605758  0  4.222246  0
C  C52  1  0.49902824  0.52109440  0.53653818  1  0  -0.151422  0  3.646118  0  0  -0.171321  0  3.904732  0  0  -0.176736  0  3.918759  0  0  -0.082497  -0.167829  0  3.895472  0
C  C53  1  0.50097310  0.47891607  0.46346104  1  0  -0.151308  0  3.646363  0  0  -0.17106  0  3.904804  0  0  -0.176514  0  3.918852  0  0  -0.082414  -0.167562  0  3.895555  0
C  C54  1  0.90875840  0.26677107  0.55838136  1  0  0.670167  0  3.932165  0  0  0.624666  0  4.220154  0  0  0.65885  0  4.214938  0  0  0.194089  0.601489  0  4.22265  0
C  C55  1  0.09124886  0.73322250  0.44161519  1  0  0.669817  0  3.932428  0  0  0.624406  0  4.220288  0  0  0.658592  0  4.215073  0  0  0.193951  0.601238  0  4.222769  0
C  C56  1  0.00993662  0.43399136  0.53596116  1  0  -0.163268  0  3.673926  0  0  -0.182283  0  3.930926  0  0  -0.187184  0  3.94532  0  0  -0.085665  -0.179222  0  3.921469  0
C  C57  1  0.99007361  0.56599903  0.46403924  1  0  -0.163007  0  3.673918  0  0  -0.182066  0  3.930806  0  0  -0.18697  0  3.945203  0  0  -0.085538  -0.179005  0  3.921378  0
S  S58  1  0.91761531  0.24678606  0.93374188  1  0  0.119195  0  2.484841  0  0  0.128515  0  2.806195  0  0  0.128383  0  2.808367  0  0  0.146028  0.12795  0  2.805146  0
S  S59  1  0.08237553  0.75319624  0.06626076  1  0  0.119166  0  2.4848  0  0  0.128468  0  2.806136  0  0  0.128338  0  2.808306  0  0  0.146003  0.127904  0  2.80509  0
N  N60  1  0.47792696  0.04123597  0.71647570  1  0  -0.326124  0  3.230742  0  0  -0.249639  0  3.491585  0  0  -0.270461  0  3.510932  0  0  -0.3206  -0.235392  0  3.47817  0
N  N61  1  0.52207858  0.95877776  0.28351876  1  0  -0.326096  0  3.2305  0  0  -0.24962  0  3.491317  0  0  -0.270441  0  3.510656  0  0  -0.320551  -0.235369  0  3.477887  0
N  N62  1  0.24733208  0.18318717  0.99270436  1  0  -0.199787  0  3.053772  0  0  -0.175166  0  3.341534  0  0  -0.183598  0  3.358781  0  0  -0.196128  -0.169127  0  3.329479  0
N  N63  1  0.75266164  0.81681283  0.00729446  1  0  -0.199804  0  3.053587  0  0  -0.175184  0  3.34135  0  0  -0.183614  0  3.358591  0  0  -0.196149  -0.169144  0  3.329296  0
N  N64  1  0.12595549  0.22746588  0.05384948  1  0  -0.203644  0  3.043461  0  0  -0.180354  0  3.334345  0  0  -0.189536  0  3.350909  0  0  -0.197287  -0.173818  0  3.322715  0
N  N65  1  0.87404117  0.77253261  0.94615059  1  0  -0.203558  0  3.043789  0  0  -0.180277  0  3.334641  0  0  -0.189456  0  3.351205  0  0  -0.197213  -0.173743  0  3.323009  0
N  N66  1  0.48892215  0.44528504  0.19089884  1  0  -0.29823  0  3.036176  0  0  -0.26948  0  3.307796  0  0  -0.278389  0  3.321671  0  0  -0.326404  -0.263225  0  3.298144  0
N  N67  1  0.51108723  0.55471268  0.80910626  1  0  -0.298388  0  3.035858  0  0  -0.269607  0  3.307482  0  0  -0.278516  0  3.321353  0  0  -0.326349  -0.26335  0  3.297824  0
O  O68  1  0.86190046  0.19713295  0.63617231  1  0  -0.627337  0  1.913855  0  0  -0.571825  0  2.144385  0  0  -0.600532  0  2.136701  0  0  -0.319764  -0.551338  0  2.148691  0
O  O69  1  0.13812251  0.80286042  0.36382484  1  0  -0.627143  0  1.914018  0  0  -0.571658  0  2.144511  0  0  -0.600362  0  2.136825  0  0  -0.319672  -0.551177  0  2.148817  0
O  O70  1  0.86389853  0.20177655  0.50024075  1  0  -0.664367  0  1.993109  0  0  -0.585554  0  2.217293  0  0  -0.617691  0  2.207949  0  0  -0.319288  -0.562981  0  2.222896  0
O  O71  1  0.13610804  0.79822509  0.49975497  1  0  -0.664286  0  1.993123  0  0  -0.585482  0  2.217239  0  0  -0.617619  0  2.207897  0  0  -0.319243  -0.562904  0  2.222833  0
O  O72  1  0.55017903  0.71425613  0.61628886  1  0  -0.631031  0  2.001014  0  0  -0.564368  0  2.243902  0  0  -0.594565  0  2.234  0  0  -0.315196  -0.543205  0  2.249859  0
O  O73  1  0.44982861  0.28576532  0.38370712  1  0  -0.631007  0  2.00084  0  0  -0.564412  0  2.243691  0  0  -0.594605  0  2.233785  0  0  -0.315168  -0.543256  0  2.249654  0
O  O74  1  0.59076457  0.82404060  0.47509339  1  0  -0.690206  0  2.009965  0  0  -0.62432  0  2.265619  0  0  -0.654389  0  2.253272  0  0  -0.339906  -0.603038  0  2.273184  0
O  O75  1  0.40923337  0.17597676  0.52490401  1  0  -0.69015  0  2.009727  0  0  -0.624306  0  2.265284  0  0  -0.654364  0  2.252919  0  0  -0.339898  -0.603021  0  2.272846  0
O  O76  1  0.92415004  0.76836081  0.64836356  1  0  -0.812416  0  1.79476  0  0  -0.750525  0  1.970872  0  0  -0.772839  0  1.94209  0  0  -0.579019  -0.734658  0  1.99075  0
O  O77  1  0.07585309  0.23164389  0.35163922  1  0  -0.812432  0  1.794758  0  0  -0.750533  0  1.970849  0  0  -0.772846  0  1.942058  0  0  -0.578952  -0.734662  0  1.990725  0
