# generated using pymatgen
data_Cu2Mo4H16C16N8O13
_symmetry_space_group_name_H-M   'P 1'
_cell_length_a   10.62037411
_cell_length_b   11.60332104
_cell_length_c   12.06643407
_cell_angle_alpha   93.90943468
_cell_angle_beta   115.90997803
_cell_angle_gamma   97.59551298
_symmetry_Int_Tables_number   1
_chemical_formula_structural   Cu2Mo4H16C16N8O13
_chemical_formula_sum   'Cu4 Mo8 H32 C32 N16 O26'
_cell_volume   1312.47145086
_cell_formula_units_Z   2
loop_
 _symmetry_equiv_pos_site_id
 _symmetry_equiv_pos_as_xyz
  1  'x, y, z'
loop_
 _atom_site_type_symbol
 _atom_site_label
 _atom_site_symmetry_multiplicity
 _atom_site_fract_x
 _atom_site_fract_y
 _atom_site_fract_z
 _atom_site_occupancy
 _atom_site_hle17_bader_spin_density
 _atom_site_hle17_ddec_charge
 _atom_site_hle17_ddec_spin_density
 _atom_site_hle17_ddec_sum_bond_order
 _atom_site_hle17_magmom
 _atom_site_hse06_10hf_bader_spin_density
 _atom_site_hse06_10hf_ddec_charge
 _atom_site_hse06_10hf_ddec_spin_density
 _atom_site_hse06_10hf_ddec_sum_bond_order
 _atom_site_hse06_10hf_magmom
 _atom_site_hse06_bader_spin_density
 _atom_site_hse06_ddec_charge
 _atom_site_hse06_ddec_spin_density
 _atom_site_hse06_ddec_sum_bond_order
 _atom_site_hse06_magmom
 _atom_site_pbe_bader_spin_density
 _atom_site_pbe_cm5_charge
 _atom_site_pbe_ddec_charge
 _atom_site_pbe_ddec_spin_density
 _atom_site_pbe_ddec_sum_bond_order
 _atom_site_pbe_magmom
Cu  Cu0  1  0.16494064  0.25324777  0.13532785  1  0  0.578635  0  1.689169  0  0  0.44733  0  2.160038  0  0  0.448561  0  2.114291  0  0  0.552151  0.44982  0  2.188716  0
Cu  Cu1  1  0.83505911  0.74675280  0.86467200  1  0  0.578688  0  1.689183  0  0  0.44739  0  2.160068  0  0  0.448568  0  2.114271  0  0  0.552169  0.449869  0  2.188744  0
Cu  Cu2  1  0.12324240  0.51152492  0.30874119  1  0  0.431822  0  1.811013  0  0  0.288178  0  2.298562  0  0  0.293874  0  2.252373  0  0  0.548996  0.287763  0  2.327562  0
Cu  Cu3  1  0.87675839  0.48847565  0.69126072  1  0  0.431816  0  1.810994  0  0  0.288156  0  2.298474  0  0  0.293874  0  2.252319  0  0  0.548997  0.287759  0  2.327535  0
Mo  Mo4  1  0.37873346  0.75116597  0.97353967  1  0  2.170447  0  4.085246  0  0  2.161707  0  4.632284  0  0  2.262632  0  4.593189  0  0  1.489442  2.089443  0  4.663347  0
Mo  Mo5  1  0.62126754  0.24883547  0.02646072  1  0  2.170349  0  4.085381  0  0  2.161526  0  4.632491  0  0  2.262491  0  4.593359  0  0  1.489371  2.089272  0  4.663548  0
Mo  Mo6  1  0.64149547  0.96576795  0.13416208  1  0  2.245084  0  4.05565  0  0  2.246211  0  4.571913  0  0  2.348415  0  4.536353  0  0  1.501084  2.168721  0  4.606662  0
Mo  Mo7  1  0.35850553  0.03423349  0.86583748  1  0  2.24502  0  4.055667  0  0  2.246142  0  4.571924  0  0  2.348336  0  4.536376  0  0  1.500995  2.168647  0  4.606682  0
Mo  Mo8  1  0.28521912  0.98076823  0.09244493  1  0  2.158099  0  4.056891  0  0  2.153038  0  4.593232  0  0  2.25459  0  4.555717  0  0  1.47806  2.081244  0  4.622234  0
Mo  Mo9  1  0.71478083  0.01923322  0.90755671  1  0  2.158033  0  4.056949  0  0  2.152965  0  4.593297  0  0  2.254526  0  4.555775  0  0  1.47803  2.081168  0  4.622302  0
Mo  Mo10  1  0.54672553  0.19976667  0.26282150  1  0  2.19983  0  4.074184  0  0  2.201524  0  4.607576  0  0  2.300026  0  4.574086  0  0  1.50082  2.128312  0  4.639919  0
Mo  Mo11  1  0.45327715  0.80023300  0.73718027  1  0  2.199784  0  4.074359  0  0  2.20149  0  4.607757  0  0  2.299996  0  4.574266  0  0  1.500806  2.128277  0  4.640103  0
H  H12  1  0.22998951  0.54064020  0.57349443  1  0  0.090915  0  0.937239  0  0  0.101087  0  1.000233  0  0  0.103847  0  0.997564  0  0  0.117157  0.098965  0  1.002356  0
H  H13  1  0.77000751  0.45936214  0.42650282  1  0  0.090913  0  0.937295  0  0  0.101092  0  1.000276  0  0  0.103849  0  0.997607  0  0  0.117163  0.098969  0  1.002398  0
H  H14  1  0.94695427  0.28378528  0.28175498  1  0  0.091074  0  0.936303  0  0  0.098461  0  1.003459  0  0  0.102135  0  0.999053  0  0  0.115902  0.095546  0  1.007074  0
H  H15  1  0.05304613  0.71621353  0.71824502  1  0  0.091067  0  0.936338  0  0  0.098452  0  1.003504  0  0  0.10212  0  0.999105  0  0  0.115899  0.095536  0  1.007119  0
H  H16  1  0.89586242  0.16521490  0.42508740  1  0  0.111941  0  0.968421  0  0  0.122101  0  1.026815  0  0  0.124656  0  1.02665  0  0  0.107391  0.120142  0  1.027335  0
H  H17  1  0.10413589  0.83478392  0.57491096  1  0  0.111918  0  0.96848  0  0  0.122072  0  1.026879  0  0  0.124622  0  1.026723  0  0  0.107376  0.120113  0  1.027398  0
H  H18  1  0.02002991  0.23945003  0.65591375  1  0  0.098851  0  0.960833  0  0  0.108936  0  1.022003  0  0  0.111894  0  1.019182  0  0  0.106879  0.106759  0  1.024172  0
H  H19  1  0.97996879  0.76055055  0.34408735  1  0  0.09883  0  0.960846  0  0  0.108908  0  1.022024  0  0  0.111863  0  1.019205  0  0  0.106864  0.106729  0  1.024194  0
H  H20  1  0.32434098  0.42646822  0.80752370  1  0  0.127897  0  0.90482  0  0  0.143695  0  0.962724  0  0  0.144576  0  0.962007  0  0  0.130719  0.142924  0  0.963407  0
H  H21  1  0.67565713  0.57352972  0.19247535  1  0  0.127868  0  0.904831  0  0  0.143678  0  0.962746  0  0  0.144557  0  0.96203  0  0  0.130701  0.142913  0  0.963423  0
H  H22  1  0.22948526  0.54458259  0.77533134  1  0  0.105861  0  0.96175  0  0  0.116232  0  1.032947  0  0  0.117393  0  1.032277  0  0  0.117057  0.115284  0  1.033392  0
H  H23  1  0.77051200  0.45541623  0.22466744  1  0  0.105877  0  0.961671  0  0  0.116246  0  1.032892  0  0  0.117409  0  1.032221  0  0  0.117053  0.115288  0  1.033356  0
H  H24  1  0.90878536  0.36903830  0.93256183  1  0  0.120652  0  0.941329  0  0  0.130699  0  0.999663  0  0  0.133314  0  0.996686  0  0  0.138574  0.128829  0  1.00181  0
H  H25  1  0.09121419  0.63096140  0.06743872  1  0  0.12066  0  0.941324  0  0  0.130715  0  0.999644  0  0  0.133328  0  0.996672  0  0  0.138578  0.128844  0  1.001791  0
H  H26  1  0.32451080  0.34325309  0.98732684  1  0  0.140778  0  0.963805  0  0  0.149146  0  1.024266  0  0  0.152369  0  1.020121  0  0  0.146898  0.146759  0  1.027194  0
H  H27  1  0.67548855  0.65674573  0.01267440  1  0  0.140804  0  0.963756  0  0  0.149176  0  1.024219  0  0  0.152398  0  1.020078  0  0  0.146913  0.146789  0  1.027148  0
H  H28  1  0.34703770  0.29218821  0.40599844  1  0  0.078787  0  0.957615  0  0  0.085272  0  1.030702  0  0  0.088192  0  1.027444  0  0  0.116852  0.083116  0  1.033026  0
H  H29  1  0.65296185  0.70781148  0.59400294  1  0  0.078802  0  0.95758  0  0  0.085284  0  1.030674  0  0  0.088205  0  1.027417  0  0  0.116857  0.083127  0  1.032999  0
H  H30  1  0.99588047  0.05157679  0.14910474  1  0  0.096365  0  0.954114  0  0  0.103619  0  1.02011  0  0  0.106263  0  1.017274  0  0  0.118759  0.101481  0  1.022509  0
H  H31  1  0.00412098  0.94842201  0.85089483  1  0  0.096352  0  0.954114  0  0  0.103606  0  1.020115  0  0  0.10625  0  1.017279  0  0  0.118765  0.101474  0  1.022506  0
H  H32  1  0.00904092  0.92393376  0.30731171  1  0  0.109925  0  0.972706  0  0  0.121972  0  1.02749  0  0  0.124411  0  1.02709  0  0  0.107348  0.120251  0  1.027883  0
H  H33  1  0.99095928  0.07606416  0.69268733  1  0  0.109913  0  0.972759  0  0  0.12196  0  1.027543  0  0  0.1244  0  1.027143  0  0  0.107327  0.120238  0  1.027936  0
H  H34  1  0.21152269  0.98012727  0.52697455  1  0  0.111797  0  0.964212  0  0  0.125234  0  1.019948  0  0  0.128231  0  1.017547  0  0  0.109451  0.122944  0  1.021952  0
H  H35  1  0.78847916  0.01987329  0.47302611  1  0  0.111787  0  0.964242  0  0  0.125224  0  1.01998  0  0  0.128218  0  1.017581  0  0  0.109447  0.122936  0  1.021981  0
H  H36  1  0.36087212  0.18137982  0.67670725  1  0  0.106363  0  0.928941  0  0  0.117515  0  0.99669  0  0  0.118165  0  0.994927  0  0  0.122409  0.11729  0  0.996974  0
H  H37  1  0.63912888  0.81862162  0.32329314  1  0  0.106382  0  0.928877  0  0  0.117498  0  0.996661  0  0  0.118149  0  0.994898  0  0  0.122403  0.117273  0  0.996945  0
H  H38  1  0.47397659  0.10415514  0.64117740  1  0  0.122171  0  0.909275  0  0  0.138431  0  0.965093  0  0  0.139841  0  0.963229  0  0  0.127493  0.137621  0  0.965659  0
H  H39  1  0.52602441  0.89584630  0.35882382  1  0  0.122161  0  0.909295  0  0  0.138406  0  0.965115  0  0  0.139818  0  0.963252  0  0  0.127484  0.137595  0  0.965681  0
H  H40  1  0.70078898  0.23078606  0.65764381  1  0  0.121037  0  0.904378  0  0  0.135059  0  0.957771  0  0  0.137641  0  0.954111  0  0  0.149717  0.133317  0  0.959928  0
H  H41  1  0.29920827  0.76921276  0.34235580  1  0  0.121013  0  0.90437  0  0  0.135049  0  0.957758  0  0  0.137636  0  0.954095  0  0  0.149688  0.133306  0  0.959918  0
H  H42  1  0.58463023  0.56008802  0.69311846  1  0  0.099961  0  0.981689  0  0  0.109734  0  1.045415  0  0  0.113263  0  1.040674  0  0  0.127368  0.107128  0  1.048906  0
H  H43  1  0.41536932  0.43991167  0.30688209  1  0  0.099974  0  0.981671  0  0  0.109731  0  1.045414  0  0  0.113258  0  1.040675  0  0  0.127389  0.107125  0  1.048905  0
C  C44  1  0.15711763  0.45664183  0.54479635  1  0  0.077278  0  3.661726  0  0  0.038219  0  3.911311  0  0  0.045787  0  3.926287  0  0  0.039706  0.03328  0  3.901482  0
C  C45  1  0.84288297  0.54335786  0.45520377  1  0  0.077192  0  3.661816  0  0  0.03814  0  3.911395  0  0  0.045721  0  3.926349  0  0  0.03968  0.033211  0  3.901564  0
C  C46  1  0.99964615  0.31280846  0.38161463  1  0  0.121959  0  3.673918  0  0  0.088008  0  3.926119  0  0  0.094658  0  3.94337  0  0  0.034411  0.083093  0  3.91599  0
C  C47  1  0.00035424  0.68719035  0.61838620  1  0  0.121946  0  3.674092  0  0  0.087982  0  3.926298  0  0  0.094625  0  3.943567  0  0  0.034379  0.083057  0  3.916196  0
C  C48  1  0.97220412  0.24707355  0.46298132  1  0  -0.097731  0  3.727045  0  0  -0.108341  0  3.978313  0  0  -0.116074  0  4.001927  0  0  -0.083603  -0.10376  0  3.963339  0
C  C49  1  0.02779607  0.75292438  0.53701937  1  0  -0.097688  0  3.727165  0  0  -0.108279  0  3.978418  0  0  -0.116014  0  4.002046  0  0  -0.08359  -0.103697  0  3.96344  0
C  C50  1  0.04012274  0.28878487  0.59002679  1  0  -0.061976  0  3.696866  0  0  -0.093398  0  3.95409  0  0  -0.088128  0  3.968792  0  0  -0.074103  -0.096906  0  3.944528  0
C  C51  1  0.95987536  0.71121307  0.40997227  1  0  -0.062036  0  3.696914  0  0  -0.093448  0  3.954148  0  0  -0.088181  0  3.968853  0  0  -0.07413  -0.096955  0  3.944587  0
C  C52  1  0.13437365  0.39589887  0.63223025  1  0  0.035682  0  3.748303  0  0  0.053234  0  4.002898  0  0  0.049422  0  4.024344  0  0  -0.005955  0.055719  0  3.988215  0
C  C53  1  0.86562467  0.60409995  0.36776811  1  0  0.035768  0  3.748201  0  0  0.053317  0  4.002826  0  0  0.049505  0  4.02427  0  0  -0.005943  0.055799  0  3.988145  0
C  C54  1  0.21686669  0.44846573  0.76723143  1  0  -0.068749  0  3.63135  0  0  -0.147003  0  3.874171  0  0  -0.143324  0  3.885672  0  0  -0.037252  -0.148872  0  3.866102  0
C  C55  1  0.78313078  0.55153397  0.23276666  1  0  -0.068728  0  3.631213  0  0  -0.14704  0  3.874141  0  0  -0.143364  0  3.885647  0  0  -0.037226  -0.148912  0  3.866067  0
C  C56  1  0.00507146  0.37598954  0.92066509  1  0  0.224501  0  3.643234  0  0  0.169129  0  3.914149  0  0  0.18185  0  3.926045  0  0  0.158616  0.160565  0  3.906615  0
C  C57  1  0.99492829  0.62401103  0.07933477  1  0  0.224466  0  3.643297  0  0  0.169103  0  3.914205  0  0  0.181817  0  3.926109  0  0  0.158609  0.160534  0  3.906675  0
C  C58  1  0.21681118  0.36111270  0.95102039  1  0  0.215467  0  3.535495  0  0  0.140056  0  3.779784  0  0  0.154661  0  3.790668  0  0  0.181776  0.130937  0  3.772315  0
C  C59  1  0.78318982  0.63888874  0.04898082  1  0  0.215479  0  3.535457  0  0  0.140038  0  3.779774  0  0  0.154635  0  3.790664  0  0  0.181774  0.130917  0  3.772308  0
C  C60  1  0.27594227  0.20916832  0.38841521  1  0  0.073111  0  3.686615  0  0  0.026923  0  3.945684  0  0  0.034228  0  3.960473  0  0  0.038141  0.022009  0  3.935953  0
C  C61  1  0.72405708  0.79083049  0.61158355  1  0  0.073148  0  3.686567  0  0  0.026937  0  3.945636  0  0  0.034234  0  3.960428  0  0  0.038154  0.022028  0  3.935901  0
C  C62  1  0.07791937  0.07571521  0.24465936  1  0  0.131878  0  3.663272  0  0  0.096044  0  3.914543  0  0  0.102832  0  3.931828  0  0  0.044739  0.091614  0  3.903265  0
C  C63  1  0.92208103  0.92428359  0.75534064  1  0  0.1319  0  3.663346  0  0  0.096072  0  3.914608  0  0  0.102858  0  3.931894  0  0  0.044715  0.091636  0  3.903335  0
C  C64  1  0.08840638  0.00336098  0.33418821  1  0  -0.099082  0  3.729805  0  0  -0.109994  0  3.977722  0  0  -0.117735  0  4.001287  0  0  -0.079705  -0.105024  0  3.962018  0
C  C65  1  0.91159296  0.99663784  0.66581220  1  0  -0.099071  0  3.729977  0  0  -0.10999  0  3.977873  0  0  -0.117735  0  4.001447  0  0  -0.079678  -0.105013  0  3.962171  0
C  C66  1  0.19814928  0.03504323  0.45411930  1  0  -0.055776  0  3.669576  0  0  -0.080159  0  3.906761  0  0  -0.077675  0  3.926575  0  0  -0.066183  -0.081702  0  3.893645  0
C  C67  1  0.80185132  0.96495646  0.54588083  1  0  -0.055741  0  3.669644  0  0  -0.080145  0  3.906823  0  0  -0.077656  0  3.926636  0  0  -0.066185  -0.081692  0  3.893706  0
C  C68  1  0.29419643  0.14045306  0.48227084  1  0  0.045976  0  3.717302  0  0  0.069307  0  3.958841  0  0  0.064407  0  3.98246  0  0  0.000525  0.072726  0  3.941846  0
C  C69  1  0.70580416  0.85954663  0.51772929  1  0  0.045882  0  3.717434  0  0  0.06926  0  3.958897  0  0  0.06436  0  3.982519  0  0  0.000498  0.072675  0  3.941904  0
C  C70  1  0.40996345  0.17363589  0.61390218  1  0  -0.052042  0  3.640759  0  0  -0.130902  0  3.885429  0  0  -0.117571  0  3.900818  0  0  -0.037686  -0.133704  0  3.878138  0
C  C71  1  0.59003650  0.82636556  0.38609781  1  0  -0.052033  0  3.640743  0  0  -0.130837  0  3.885329  0  0  -0.117512  0  3.900736  0  0  -0.03766  -0.133637  0  3.878038  0
C  C72  1  0.64282702  0.30066052  0.65875127  1  0  0.200431  0  3.599932  0  0  0.122975  0  3.858027  0  0  0.146679  0  3.873888  0  0  0.168941  0.113736  0  3.851026  0
C  C73  1  0.35717272  0.69934006  0.34125024  1  0  0.200534  0  3.599865  0  0  0.123044  0  3.857982  0  0  0.146747  0  3.873848  0  0  0.168988  0.113801  0  3.850982  0
C  C74  1  0.57989286  0.46628033  0.67431633  1  0  0.185983  0  3.703182  0  0  0.139247  0  3.978519  0  0  0.150838  0  3.987645  0  0  0.140429  0.132599  0  3.96957  0
C  C75  1  0.42010773  0.53371937  0.32568711  1  0  0.185995  0  3.703184  0  0  0.139274  0  3.978522  0  0  0.150868  0  3.987643  0  0  0.140402  0.132622  0  3.969575  0
N  N76  1  0.09160896  0.41666864  0.42156638  1  0  -0.308463  0  3.464995  0  0  -0.225784  0  3.772273  0  0  -0.237117  0  3.779456  0  0  -0.380054  -0.219161  0  3.767354  0
N  N77  1  0.90838935  0.58333017  0.57843281  1  0  -0.308403  0  3.465038  0  0  -0.225711  0  3.772263  0  0  -0.237056  0  3.779483  0  0  -0.379999  -0.219106  0  3.76738  0
N  N78  1  0.15382191  0.40783468  0.84644472  1  0  0.061442  0  3.516395  0  0  0.180481  0  3.693835  0  0  0.167736  0  3.721234  0  0  -0.129271  0.187585  0  3.677405  0
N  N79  1  0.84617869  0.59216500  0.15355541  1  0  0.061439  0  3.516408  0  0  0.18052  0  3.69386  0  0  0.16779  0  3.721235  0  0  -0.129251  0.187621  0  3.677433  0
N  N80  1  0.01835383  0.41884093  0.82581594  1  0  -0.278191  0  3.199172  0  0  -0.237255  0  3.513765  0  0  -0.247171  0  3.520034  0  0  -0.272243  -0.231339  0  3.509924  0
N  N81  1  0.98164592  0.58115964  0.17418392  1  0  -0.278105  0  3.199205  0  0  -0.237193  0  3.513811  0  0  -0.24711  0  3.520073  0  0  -0.272217  -0.231271  0  3.509953  0
N  N82  1  0.12579823  0.34033740  0.00017436  1  0  -0.371313  0  3.351707  0  0  -0.294265  0  3.680725  0  0  -0.309862  0  3.683464  0  0  -0.386908  -0.284656  0  3.678576  0
N  N83  1  0.87420241  0.65966380  0.99982585  1  0  -0.371397  0  3.351827  0  0  -0.294347  0  3.680871  0  0  -0.309922  0  3.683569  0  0  -0.386945  -0.284728  0  3.678714  0
N  N84  1  0.17041928  0.17721209  0.27102947  1  0  -0.324905  0  3.489713  0  0  -0.240096  0  3.792648  0  0  -0.252194  0  3.80061  0  0  -0.381273  -0.232674  0  3.787443  0
N  N85  1  0.82958112  0.82278672  0.72897053  1  0  -0.324915  0  3.48965  0  0  -0.240103  0  3.792597  0  0  -0.25218  0  3.800513  0  0  -0.381255  -0.23268  0  3.787387  0
N  N86  1  0.50654286  0.28334942  0.63860564  1  0  0.049407  0  3.565092  0  0  0.171587  0  3.749114  0  0  0.129331  0  3.81859  0  0  -0.130995  0.17792  0  3.733818  0
N  N87  1  0.49345669  0.71665027  0.36139326  1  0  0.049362  0  3.56513  0  0  0.171553  0  3.749143  0  0  0.129279  0  3.818645  0  0  -0.131003  0.177891  0  3.733836  0
N  N88  1  0.46470095  0.38813208  0.64894868  1  0  -0.26513  0  2.84908  0  0  -0.262816  0  3.109104  0  0  -0.264636  0  3.134575  0  0  -0.218157  -0.254742  0  3.096514  0
N  N89  1  0.53529880  0.61186849  0.35105200  1  0  -0.265101  0  2.849121  0  0  -0.262796  0  3.109134  0  0  -0.26461  0  3.134612  0  0  -0.21815  -0.254724  0  3.096547  0
N  N90  1  0.69285987  0.41646054  0.68123898  1  0  -0.384412  0  3.340828  0  0  -0.310586  0  3.671497  0  0  -0.323952  0  3.66977  0  0  -0.386105  -0.301499  0  3.669525  0
N  N91  1  0.30714071  0.58353916  0.31876529  1  0  -0.384517  0  3.340921  0  0  -0.310691  0  3.671629  0  0  -0.324048  0  3.669873  0  0  -0.386125  -0.301595  0  3.669634  0
O  O92  1  0.22643308  0.67979690  0.97342917  1  0  -0.680395  0  1.420623  0  0  -0.674425  0  1.669947  0  0  -0.698668  0  1.657769  0  0  -0.517158  -0.657584  0  1.67884  0
O  O93  1  0.77356791  0.32020454  0.02657122  1  0  -0.680376  0  1.420687  0  0  -0.674356  0  1.669985  0  0  -0.698604  0  1.657811  0  0  -0.517114  -0.657517  0  1.678879  0
O  O94  1  0.49721478  0.65693554  0.02811814  1  0  -0.679783  0  1.448505  0  0  -0.67732  0  1.692831  0  0  -0.703258  0  1.682094  0  0  -0.513763  -0.659303  0  1.700963  0
O  O95  1  0.50278122  0.34306242  0.97188342  1  0  -0.679751  0  1.448503  0  0  -0.677297  0  1.692876  0  0  -0.703236  0  1.682134  0  0  -0.513767  -0.659284  0  1.70101  0
O  O96  1  0.46358005  0.87153967  0.12288153  1  0  -0.984335  0  1.861608  0  0  -0.977609  0  2.162625  0  0  -1.021158  0  2.158695  0  0  -0.601871  -0.944674  0  2.164314  0
O  O97  1  0.53642574  0.12846436  0.87711756  1  0  -0.984306  0  1.861473  0  0  -0.977549  0  2.162463  0  0  -1.021134  0  2.158625  0  0  -0.601854  -0.944612  0  2.164156  0
O  O98  1  0.26079490  0.91812226  0.92424217  1  0  -0.965685  0  1.812679  0  0  -0.953757  0  2.102746  0  0  -0.997222  0  2.098599  0  0  -0.596746  -0.921096  0  2.104546  0
O  O99  1  0.73921009  0.08187827  0.07575888  1  0  -0.965672  0  1.812733  0  0  -0.953708  0  2.102721  0  0  -0.997211  0  2.098665  0  0  -0.596722  -0.921049  0  2.104524  0
O  O100  1  0.46630465  0.09473644  0.05190300  1  0  -1.204445  0  1.884428  0  0  -1.186771  0  2.164061  0  0  -1.233547  0  2.162644  0  0  -0.620499  -1.150364  0  2.163978  0
O  O101  1  0.53369676  0.90526676  0.94809600  1  0  -1.204491  0  1.884495  0  0  -1.186822  0  2.164134  0  0  -1.233599  0  2.162718  0  0  -0.620549  -1.150407  0  2.164041  0
O  O102  1  0.32768406  0.72874817  0.80051041  1  0  -0.884449  0  1.771585  0  0  -0.875244  0  2.064801  0  0  -0.917932  0  2.060716  0  0  -0.588529  -0.843817  0  2.067536  0
O  O103  1  0.67232156  0.27125061  0.19949161  1  0  -0.884424  0  1.77152  0  0  -0.87519  0  2.064718  0  0  -0.917924  0  2.060717  0  0  -0.588517  -0.84376  0  2.067453  0
O  O104  1  0.67355906  0.05986947  0.27071270  1  0  -0.80244  0  1.656976  0  0  -0.79723  0  1.935423  0  0  -0.828817  0  1.925893  0  0  -0.548833  -0.773474  0  1.943012  0
O  O105  1  0.32643796  0.94013287  0.72928538  1  0  -0.802398  0  1.656961  0  0  -0.797205  0  1.93543  0  0  -0.828791  0  1.925904  0  0  -0.548823  -0.773439  0  1.942996  0
O  O106  1  0.19408365  0.87045518  0.13023268  1  0  -0.667458  0  1.413812  0  0  -0.661354  0  1.65887  0  0  -0.686402  0  1.649025  0  0  -0.512938  -0.644097  0  1.666328  0
O  O107  1  0.80591318  0.12954628  0.86976444  1  0  -0.667486  0  1.413745  0  0  -0.66139  0  1.658816  0  0  -0.686439  0  1.648973  0  0  -0.512975  -0.644133  0  1.666272  0
O  O108  1  0.41927012  0.05967531  0.25275819  1  0  -0.870214  0  1.730428  0  0  -0.864063  0  2.011703  0  0  -0.905674  0  2.007759  0  0  -0.589061  -0.833658  0  2.014689  0
O  O109  1  0.58073007  0.94032263  0.74724498  1  0  -0.870174  0  1.730512  0  0  -0.864051  0  2.011851  0  0  -0.905658  0  2.007906  0  0  -0.589037  -0.833638  0  2.014821  0
O  O110  1  0.17302003  0.08195244  0.04035505  1  0  -0.713182  0  1.5878  0  0  -0.697306  0  1.881428  0  0  -0.722694  0  1.867261  0  0  -0.522432  -0.680374  0  1.891695  0
O  O111  1  0.82698118  0.91804987  0.95964299  1  0  -0.713155  0  1.587825  0  0  -0.69727  0  1.881443  0  0  -0.722657  0  1.867269  0  0  -0.522419  -0.680343  0  1.891712  0
O  O112  1  0.41626026  0.28630094  0.20336975  1  0  -0.756433  0  1.575232  0  0  -0.74453  0  1.862729  0  0  -0.769752  0  1.848653  0  0  -0.52815  -0.726773  0  1.873366  0
O  O113  1  0.58374367  0.71369961  0.79663337  1  0  -0.756418  0  1.575207  0  0  -0.744515  0  1.862685  0  0  -0.769734  0  1.848597  0  0  -0.52814  -0.726758  0  1.873324  0
O  O114  1  0.63915678  0.24982081  0.41899033  1  0  -0.697282  0  1.403538  0  0  -0.692795  0  1.643667  0  0  -0.7177  0  1.633985  0  0  -0.523659  -0.674603  0  1.65174  0
O  O115  1  0.36084695  0.75017886  0.58101101  1  0  -0.697246  0  1.403633  0  0  -0.692756  0  1.643758  0  0  -0.717667  0  1.63408  0  0  -0.523643  -0.674564  0  1.651832  0
O  O116  1  0.75655766  0.86980179  0.18835275  1  0  -0.667486  0  1.4196  0  0  -0.657336  0  1.657643  0  0  -0.678347  0  1.647064  0  0  -0.504629  -0.641539  0  1.666339  0
O  O117  1  0.24343982  0.13019790  0.81164203  1  0  -0.667538  0  1.419724  0  0  -0.657368  0  1.657767  0  0  -0.678377  0  1.647187  0  0  -0.504608  -0.641571  0  1.666465  0
