# generated using pymatgen
data_ZnH9C18N3O8
_symmetry_space_group_name_H-M   'P 1'
_cell_length_a   7.34490742
_cell_length_b   13.75352438
_cell_length_c   20.04180804
_cell_angle_alpha   90.00104603
_cell_angle_beta   91.47737517
_cell_angle_gamma   90.00099696
_symmetry_Int_Tables_number   1
_chemical_formula_structural   ZnH9C18N3O8
_chemical_formula_sum   'Zn4 H36 C72 N12 O32'
_cell_volume   2023.91763720
_cell_formula_units_Z   4
loop_
 _symmetry_equiv_pos_site_id
 _symmetry_equiv_pos_as_xyz
  1  'x, y, z'
loop_
 _atom_site_type_symbol
 _atom_site_label
 _atom_site_symmetry_multiplicity
 _atom_site_fract_x
 _atom_site_fract_y
 _atom_site_fract_z
 _atom_site_occupancy
 _atom_site_pbe_bader_charge
 _atom_site_pbe_bader_spin_density
 _atom_site_pbe_cm5_charge
 _atom_site_pbe_ddec_charge
 _atom_site_pbe_ddec_spin_density
 _atom_site_pbe_ddec_sum_bond_order
 _atom_site_pbe_magmom
Zn  Zn0  1  0.13718366  0.98948512  0.15817861  1  1.35114  0  0.721015  0.981863  0  2.255406  0
Zn  Zn1  1  0.86277713  0.48948026  0.34182781  1  1.350825  0  0.720963  0.981815  0  2.255344  0
Zn  Zn2  1  0.86281532  0.01051435  0.84181711  1  1.351052  0  0.721105  0.982009  0  2.255298  0
Zn  Zn3  1  0.13722417  0.51052140  0.65817897  1  1.35102  0  0.721079  0.981989  0  2.25527  0
H  H4  1  0.33109886  0.80273100  0.15763828  1  0.65509  0  0.303367  0.36054  0  0.988347  0
H  H5  1  0.38115235  0.14114599  0.99074879  1  0.631904  0  0.345222  0.385922  0  0.861037  0
H  H6  1  0.68739839  0.34461731  0.92229609  1  0.507516  0  0.332206  0.284688  0  0.940046  0
H  H7  1  0.10572930  0.90234588  0.93185421  1  0.095105  0  0.103779  0.112817  0  1.013563  0
H  H8  1  0.86423390  0.64563378  0.84403928  1  0.123222  0  0.114116  0.127578  0  0.987522  0
H  H9  1  0.93384699  0.66613483  0.05767372  1  0.120559  0  0.112483  0.127057  0  0.995637  0
H  H10  1  0.51716739  0.25658474  0.99490816  1  0.094135  0  0.108368  0.09572  0  1.03759  0
H  H11  1  0.50211553  0.18310943  0.20455894  1  0.1607  0  0.125467  0.138426  0  0.972129  0
H  H12  1  0.73467198  0.45478190  0.14176531  1  0.169658  0  0.126017  0.137824  0  0.97477  0
H  H13  1  0.66884792  0.30270539  0.34235548  1  0.654562  0  0.303426  0.360602  0  0.98818  0
H  H14  1  0.61879943  0.64116097  0.50924311  1  0.631704  0  0.34521  0.385868  0  0.86101  0
H  H15  1  0.31258682  0.84463262  0.57770177  1  0.507871  0  0.332116  0.284601  0  0.940202  0
H  H16  1  0.89428300  0.40235373  0.56814069  1  0.095034  0  0.103817  0.112934  0  1.013516  0
H  H17  1  0.13576666  0.14565198  0.65595619  1  0.123587  0  0.114064  0.12739  0  0.987657  0
H  H18  1  0.06613493  0.16613521  0.44231851  1  0.120337  0  0.112533  0.127162  0  0.99566  0
H  H19  1  0.48282343  0.75659468  0.50508683  1  0.094327  0  0.108393  0.095733  0  1.037483  0
H  H20  1  0.49779352  0.68310609  0.29543123  1  0.163824  0  0.125459  0.138491  0  0.971966  0
H  H21  1  0.26529615  0.95478308  0.35823893  1  0.169458  0  0.12598  0.137743  0  0.974873  0
H  H22  1  0.66889700  0.19727138  0.84235983  1  0.655044  0  0.303418  0.360557  0  0.988304  0
H  H23  1  0.61886974  0.85885421  0.00925614  1  0.631874  0  0.345204  0.385902  0  0.861148  0
H  H24  1  0.31260506  0.65538289  0.07770576  1  0.507622  0  0.332221  0.284729  0  0.940012  0
H  H25  1  0.89428800  0.09765431  0.06813807  1  0.095073  0  0.103753  0.112778  0  1.013411  0
H  H26  1  0.13577444  0.35436497  0.15595773  1  0.123397  0  0.114121  0.127504  0  0.987553  0
H  H27  1  0.06617543  0.33386464  0.94232072  1  0.120375  0  0.112492  0.127108  0  0.995635  0
H  H28  1  0.48284662  0.74341545  0.00509602  1  0.09411  0  0.108377  0.095655  0  1.037539  0
H  H29  1  0.49789968  0.81689876  0.79544628  1  0.160746  0  0.12547  0.138439  0  0.972136  0
H  H30  1  0.26534363  0.54522485  0.85823742  1  0.169488  0  0.12595  0.137564  0  0.974988  0
H  H31  1  0.33115393  0.69730135  0.65764782  1  0.654815  0  0.303427  0.36049  0  0.988314  0
H  H32  1  0.38120459  0.35884359  0.49075526  1  0.63171  0  0.345221  0.385819  0  0.86103  0
H  H33  1  0.68740024  0.15536394  0.42230007  1  0.507921  0  0.33219  0.284669  0  0.940161  0
H  H34  1  0.10572318  0.59764720  0.43186125  1  0.095005  0  0.103773  0.112888  0  1.013535  0
H  H35  1  0.86421393  0.85434459  0.34404345  1  0.123737  0  0.114031  0.127341  0  0.987751  0
H  H36  1  0.93381791  0.83385190  0.55768377  1  0.120428  0  0.112474  0.127014  0  0.995666  0
H  H37  1  0.51718427  0.24340916  0.49491415  1  0.094311  0  0.108381  0.095731  0  1.037502  0
H  H38  1  0.50219786  0.31689702  0.70456925  1  0.163889  0  0.125501  0.138492  0  0.972011  0
H  H39  1  0.73467012  0.04521275  0.64176477  1  0.16958  0  0.125971  0.13772  0  0.974938  0
C  C40  1  0.11579037  0.83721513  0.06125515  1  1.563564  0  0.234057  0.628508  0  4.130649  0
C  C41  1  0.03066056  0.78916443  0.00092262  1  -0.12209  0  -0.022982  -0.037218  0  4.01448  0
C  C42  1  0.04375957  0.83086871  0.93744622  1  0.018746  0  -0.092723  -0.145022  0  3.977555  0
C  C43  1  0.98322014  0.77890249  0.88091755  1  -0.05624  0  -0.025985  -0.056162  0  4.015913  0
C  C44  1  0.90683690  0.68641975  0.88836272  1  0.044091  0  -0.07426  -0.120758  0  3.913465  0
C  C45  1  0.88278494  0.64731995  0.95204608  1  -0.025576  0  -0.00632  0.033067  0  4.015194  0
C  C46  1  0.94664327  0.69885095  0.00843956  1  -0.027201  0  -0.086707  -0.155455  0  3.937884  0
C  C47  1  0.00448954  0.81902989  0.81110532  1  1.598023  0  0.199634  0.578471  0  4.227279  0
C  C48  1  0.79890399  0.55214044  0.96181709  1  0.938999  0  0.207748  0.253485  0  4.069377  0
C  C49  1  0.68802378  0.43034476  0.01156603  1  0.99428  0  0.222579  0.265169  0  4.05354  0
C  C50  1  0.62891284  0.36284828  0.06263344  1  0.073251  0  0.007163  0.032741  0  3.995487  0
C  C51  1  0.54407016  0.27420566  0.04729866  1  -0.037514  0  -0.067166  -0.119259  0  3.948001  0
C  C52  1  0.49825535  0.20955941  0.09828392  1  -0.000865  0  -0.020637  -0.085137  0  4.055007  0
C  C53  1  0.53633138  0.23370483  0.16512465  1  0.002708  0  -0.049386  -0.052556  0  3.849973  0
C  C54  1  0.61959414  0.32242524  0.18034329  1  -0.027016  0  -0.002726  -0.040349  0  3.967319  0
C  C55  1  0.66601615  0.38662651  0.12960834  1  -0.032155  0  -0.039647  -0.054667  0  3.814674  0
C  C56  1  0.66963618  0.34802347  0.25025838  1  1.573901  0  0.259635  0.630366  0  4.079218  0
C  C57  1  0.40606568  0.11589263  0.08518769  1  1.485352  0  0.253025  0.602785  0  4.069102  0
C  C58  1  0.88419937  0.33721957  0.43874237  1  1.563196  0  0.233985  0.62834  0  4.130863  0
C  C59  1  0.96932809  0.28916473  0.49907129  1  -0.11991  0  -0.022942  -0.037183  0  4.014486  0
C  C60  1  0.95623936  0.33087481  0.56254841  1  0.015805  0  -0.092855  -0.145303  0  3.977704  0
C  C61  1  0.01678397  0.27891640  0.61907612  1  -0.056119  0  -0.025968  -0.056217  0  4.015708  0
C  C62  1  0.09315875  0.18643419  0.61162959  1  0.043591  0  -0.074178  -0.120478  0  3.913556  0
C  C63  1  0.11720359  0.14733076  0.54794804  1  -0.025013  0  -0.006355  0.033092  0  4.015462  0
C  C64  1  0.05334387  0.19885105  0.49155272  1  -0.027065  0  -0.086732  -0.1555  0  3.937928  0
C  C65  1  0.99552412  0.31905352  0.68888863  1  1.598519  0  0.199541  0.578412  0  4.227201  0
C  C66  1  0.20108647  0.05215252  0.53817845  1  0.938375  0  0.207721  0.253307  0  4.069342  0
C  C67  1  0.31196779  0.93035056  0.48843165  1  0.993541  0  0.222529  0.265117  0  4.053463  0
C  C68  1  0.37106382  0.86285329  0.43736597  1  0.073663  0  0.007209  0.032869  0  3.995233  0
C  C69  1  0.45590416  0.77421043  0.45269612  1  -0.036804  0  -0.0673  -0.119362  0  3.948041  0
C  C70  1  0.50168831  0.70956328  0.40170914  1  -0.001871  0  -0.020679  -0.085436  0  4.055362  0
C  C71  1  0.46359899  0.73370366  0.33487128  1  -6.3e-05  0  -0.049382  -0.052467  0  3.849635  0
C  C72  1  0.38035241  0.82242723  0.31965620  1  -0.026751  0  -0.002618  -0.040468  0  3.967137  0
C  C73  1  0.33394192  0.88662868  0.37039277  1  -0.033052  0  -0.039642  -0.054603  0  3.814787  0
C  C74  1  0.33031008  0.84803987  0.24973991  1  1.574257  0  0.259628  0.630333  0  4.078819  0
C  C75  1  0.59388901  0.61590353  0.41480159  1  1.485221  0  0.252903  0.602863  0  4.068791  0
C  C76  1  0.88423357  0.16278361  0.93873835  1  1.56373  0  0.234051  0.628393  0  4.13054  0
C  C77  1  0.96935938  0.21083432  0.99907025  1  -0.122562  0  -0.022946  -0.037235  0  4.014519  0
C  C78  1  0.95625646  0.16913367  0.06254552  1  0.019071  0  -0.092692  -0.145  0  3.977537  0
C  C79  1  0.01678908  0.22109698  0.11907398  1  -0.056331  0  -0.026044  -0.056214  0  4.015978  0
C  C80  1  0.09317216  0.31357900  0.11162981  1  0.043666  0  -0.074222  -0.120656  0  3.91347  0
C  C81  1  0.11722788  0.35267879  0.04794856  1  -0.02486  0  -0.006367  0.033071  0  4.015307  0
C  C82  1  0.05337947  0.30115216  0.99155290  1  -0.027363  0  -0.086699  -0.155469  0  3.937889  0
C  C83  1  0.99551177  0.18096377  0.18888447  1  1.598438  0  0.199479  0.57841  0  4.227067  0
C  C84  1  0.20111106  0.44785976  0.03818062  1  0.938571  0  0.207728  0.253431  0  4.069099  0
C  C85  1  0.31198911  0.56965980  0.98843661  1  0.993944  0  0.222546  0.265079  0  4.053597  0
C  C86  1  0.37110142  0.63715701  0.93736925  1  0.072953  0  0.007221  0.032818  0  3.995523  0
C  C87  1  0.45594401  0.72579817  0.95270452  1  -0.037853  0  -0.067286  -0.119238  0  3.948044  0
C  C88  1  0.50175338  0.79044224  0.90171910  1  -0.000883  0  -0.020596  -0.085182  0  4.055157  0
C  C89  1  0.46368143  0.76630264  0.83487849  1  0.002577  0  -0.049505  -0.052701  0  3.850223  0
C  C90  1  0.38041996  0.67757932  0.81966039  1  -0.026961  0  -0.002646  -0.04015  0  3.967387  0
C  C91  1  0.33399826  0.61338096  0.87039335  1  -0.031584  0  -0.039618  -0.054451  0  3.814998  0
C  C92  1  0.33037951  0.65197963  0.74974385  1  1.573831  0  0.259652  0.630162  0  4.0795  0
C  C93  1  0.59394546  0.88410903  0.91481740  1  1.485565  0  0.252921  0.602727  0  4.069198  0
C  C94  1  0.11579545  0.66278208  0.56126221  1  1.563457  0  0.234043  0.628452  0  4.130631  0
C  C95  1  0.03065353  0.71082893  0.50093038  1  -0.119895  0  -0.022973  -0.037261  0  4.014464  0
C  C96  1  0.04374890  0.66912102  0.43745447  1  0.015489  0  -0.092773  -0.145245  0  3.977525  0
C  C97  1  0.98320062  0.72108089  0.38092415  1  -0.055808  0  -0.025933  -0.05603  0  4.015447  0
C  C98  1  0.90682128  0.81356092  0.38837354  1  0.043515  0  -0.074107  -0.120517  0  3.913719  0
C  C99  1  0.88277259  0.85266217  0.45205347  1  -0.02498  0  -0.006389  0.033115  0  4.015372  0
C  C100  1  0.94662296  0.80114043  0.50844749  1  -0.026823  0  -0.086677  -0.155309  0  3.937706  0
C  C101  1  0.00446822  0.68094814  0.31111438  1  1.598695  0  0.199602  0.578468  0  4.226955  0
C  C102  1  0.79888956  0.94784259  0.46182404  1  0.936838  0  0.207708  0.253307  0  4.068785  0
C  C103  1  0.68801663  0.06964600  0.51156961  1  0.992899  0  0.222571  0.265057  0  4.053304  0
C  C104  1  0.62891773  0.13714400  0.56263620  1  0.073117  0  0.007239  0.032927  0  3.995008  0
C  C105  1  0.54408594  0.22579049  0.54730382  1  -0.036955  0  -0.067334  -0.119365  0  3.948023  0
C  C106  1  0.49829915  0.29043765  0.59829022  1  -0.001133  0  -0.020664  -0.085484  0  4.055302  0
C  C107  1  0.53638679  0.26629654  0.66513002  1  -0.000447  0  -0.049405  -0.052407  0  3.849665  0
C  C108  1  0.61962674  0.17757151  0.68034389  1  -0.026789  0  -0.002691  -0.040659  0  3.967613  0
C  C109  1  0.66602986  0.11336934  0.62961059  1  -0.03233  0  -0.039694  -0.054588  0  3.814963  0
C  C110  1  0.66967339  0.15196324  0.75025883  1  1.574858  0  0.259665  0.630549  0  4.078522  0
C  C111  1  0.40610542  0.38409958  0.58519698  1  1.485218  0  0.25307  0.603184  0  4.068543  0
N  N112  1  0.74905584  0.52024653  0.02330650  1  -1.16892  0  -0.333168  -0.422724  0  3.190485  0
N  N113  1  0.69873569  0.41099701  0.94522596  1  -0.806691  0  -0.265349  -0.145266  0  3.683653  0
N  N114  1  0.77066982  0.48712650  0.91260687  1  -0.620672  0  -0.220615  -0.230905  0  3.052435  0
N  N115  1  0.25094210  0.02025394  0.47669049  1  -1.167395  0  -0.333152  -0.422566  0  3.190243  0
N  N116  1  0.30124497  0.91101089  0.55477205  1  -0.807225  0  -0.265271  -0.145388  0  3.684094  0
N  N117  1  0.22931661  0.98714055  0.58738873  1  -0.620548  0  -0.220503  -0.23065  0  3.052356  0
N  N118  1  0.25096034  0.47975512  0.97669274  1  -1.168854  0  -0.333208  -0.42272  0  3.190264  0
N  N119  1  0.30126913  0.58900537  0.05477593  1  -0.806464  0  -0.265378  -0.145317  0  3.683607  0
N  N120  1  0.22933684  0.51287297  0.08739208  1  -0.620253  0  -0.220517  -0.230797  0  3.052312  0
N  N121  1  0.74903648  0.97974190  0.52331309  1  -1.166764  0  -0.333162  -0.422576  0  3.189959  0
N  N122  1  0.69874361  0.08898713  0.44522884  1  -0.807284  0  -0.265426  -0.145575  0  3.684228  0
N  N123  1  0.77066509  0.01285819  0.41261244  1  -0.619885  0  -0.220378  -0.230478  0  3.052193  0
O  O124  1  0.03940584  0.91424767  0.08274146  1  -1.150442  0  -0.309503  -0.54473  0  2.314248  0
O  O125  1  0.25838314  0.79818033  0.08670851  1  -1.190244  0  -0.303126  -0.560272  0  2.221004  0
O  O126  1  0.01457365  0.91358307  0.80478390  1  -1.180382  0  -0.358659  -0.598356  0  2.310688  0
O  O127  1  0.01705705  0.76150589  0.76388531  1  -1.156211  0  -0.321316  -0.517217  0  2.089096  0
O  O128  1  0.75785706  0.42446773  0.26192048  1  -1.155379  0  -0.281274  -0.505071  0  2.365238  0
O  O129  1  0.61265207  0.28783268  0.29551502  1  -1.16345  0  -0.308744  -0.451734  0  2.30377  0
O  O130  1  0.37117858  0.05910835  0.13139423  1  -1.159492  0  -0.276943  -0.496034  0  2.340046  0
O  O131  1  0.35811009  0.08942345  0.02295639  1  -1.120682  0  -0.308715  -0.438218  0  2.27603  0
O  O132  1  0.96057609  0.41425155  0.41726172  1  -1.150358  0  -0.309311  -0.544505  0  2.314453  0
O  O133  1  0.74159980  0.29817838  0.41328883  1  -1.18965  0  -0.303217  -0.560315  0  2.220728  0
O  O134  1  0.98543110  0.41360532  0.69520940  1  -1.180637  0  -0.358464  -0.598192  0  2.310668  0
O  O135  1  0.98296673  0.26153210  0.73610977  1  -1.156273  0  -0.321383  -0.517228  0  2.089007  0
O  O136  1  0.24211624  0.92449315  0.23808756  1  -1.155775  0  -0.28139  -0.505004  0  2.364812  0
O  O137  1  0.38728430  0.78785061  0.20448075  1  -1.163788  0  -0.308578  -0.45159  0  2.303809  0
O  O138  1  0.62878776  0.55911692  0.36859524  1  -1.159496  0  -0.276813  -0.49601  0  2.339726  0
O  O139  1  0.64186252  0.58943791  0.47703463  1  -1.120514  0  -0.308714  -0.438167  0  2.275736  0
O  O140  1  0.96060242  0.08574381  0.91725604  1  -1.150242  0  -0.309571  -0.544796  0  2.314206  0
O  O141  1  0.74164376  0.20182350  0.91328358  1  -1.190662  0  -0.303125  -0.560155  0  2.22097  0
O  O142  1  0.98538368  0.08640840  0.19519903  1  -1.180551  0  -0.358478  -0.598328  0  2.310529  0
O  O143  1  0.98297241  0.23848268  0.23610785  1  -1.156201  0  -0.321266  -0.517106  0  2.088928  0
O  O144  1  0.24217503  0.57553029  0.73808176  1  -1.155439  0  -0.281193  -0.504888  0  2.365563  0
O  O145  1  0.38735122  0.71217479  0.70448783  1  -1.163452  0  -0.308798  -0.451632  0  2.30386  0
O  O146  1  0.62882431  0.94089548  0.86861110  1  -1.159568  0  -0.276856  -0.49596  0  2.340105  0
O  O147  1  0.64191207  0.91057602  0.97704804  1  -1.120888  0  -0.308655  -0.438223  0  2.276133  0
O  O148  1  0.03942784  0.58574793  0.58274564  1  -1.150755  0  -0.309425  -0.54468  0  2.314476  0
O  O149  1  0.25839542  0.70182691  0.58671327  1  -1.18967  0  -0.303249  -0.560343  0  2.22073  0
O  O150  1  0.01456548  0.58639343  0.30479273  1  -1.180689  0  -0.358545  -0.598261  0  2.310444  0
O  O151  1  0.01702305  0.73846810  0.26389216  1  -1.156407  0  -0.321407  -0.517295  0  2.088976  0
O  O152  1  0.75789034  0.07551723  0.76191189  1  -1.156062  0  -0.28139  -0.505165  0  2.364803  0
O  O153  1  0.61268900  0.21214741  0.79552166  1  -1.163886  0  -0.308704  -0.451708  0  2.303671  0
O  O154  1  0.37120802  0.44088546  0.63140337  1  -1.159608  0  -0.276875  -0.496146  0  2.339673  0
O  O155  1  0.35813455  0.41056447  0.52296452  1  -1.120596  0  -0.308752  -0.438202  0  2.275749  0
