# generated using pymatgen
data_FeH3C2N3Cl2
_symmetry_space_group_name_H-M   'P 1'
_cell_length_a   6.65175768
_cell_length_b   6.97094019
_cell_length_c   7.37324909
_cell_angle_alpha   116.03585567
_cell_angle_beta   112.26803967
_cell_angle_gamma   97.43291025
_symmetry_Int_Tables_number   1
_chemical_formula_structural   FeH3C2N3Cl2
_chemical_formula_sum   'Fe2 H6 C4 N6 Cl4'
_cell_volume   265.70215877
_cell_formula_units_Z   2
loop_
 _symmetry_equiv_pos_site_id
 _symmetry_equiv_pos_as_xyz
  1  'x, y, z'
loop_
 _atom_site_type_symbol
 _atom_site_label
 _atom_site_symmetry_multiplicity
 _atom_site_fract_x
 _atom_site_fract_y
 _atom_site_fract_z
 _atom_site_occupancy
 _atom_site_hse06_10hf_ddec_charge
 _atom_site_hse06_10hf_ddec_spin_density
 _atom_site_hse06_10hf_ddec_sum_bond_order
 _atom_site_hse06_10hf_magmom
 _atom_site_hse06_ddec_charge
 _atom_site_hse06_ddec_spin_density
 _atom_site_hse06_ddec_sum_bond_order
 _atom_site_hse06_magmom
 _atom_site_pbe_cm5_charge
 _atom_site_pbe_ddec_charge
 _atom_site_pbe_ddec_spin_density
 _atom_site_pbe_ddec_sum_bond_order
 _atom_site_pbe_magmom
Fe  Fe0  1  0.49999996  0.99999890  0.00000185  1  0.547986  1.992688  3.174395  1.909  0.612516  2.008077  3.10943  1.925  0.493279  0.500222  1.964993  3.221677  1.883
Fe  Fe1  1  0.99999867  0.99999484  0.99999719  1  0.682389  -3.82905  2.81684  -3.565  0.750146  -3.875011  2.755606  -3.644  0.503152  0.631383  -3.776808  2.861974  -3.488
H  H2  1  0.30775010  0.60585684  0.16244676  1  0.300425  -8.7e-05  0.951893  0.0  0.310051  -4.9e-05  0.943616  0.0  0.30627  0.293383  -0.000132  0.957695  0.0
H  H3  1  0.69224408  0.39414813  0.83754756  1  0.30054  -8.7e-05  0.951944  0.0  0.310162  -4.9e-05  0.943669  0.0  0.306377  0.293498  -0.000132  0.957742  0.0
H  H4  1  0.14338155  0.77661205  0.44092494  1  0.115609  0.00022  1.028124  0.0  0.119685  0.000259  1.022383  0.0  0.126697  0.112001  0.000128  1.033008  0.0
H  H5  1  0.73492869  0.65741584  0.39340963  1  0.120437  -0.000959  1.014104  0.0  0.124382  -0.000725  1.008811  0.0  0.129224  0.11682  -0.001172  1.018903  0.0
H  H6  1  0.85662515  0.22339651  0.55908339  1  0.115447  0.00022  1.028078  0.0  0.11953  0.000258  1.022323  0.0  0.12668  0.111841  0.000128  1.032984  0.0
H  H7  1  0.26505853  0.34257889  0.60658620  1  0.120424  -0.000959  1.013995  0.0  0.12437  -0.000725  1.008704  0.0  0.12927  0.116813  -0.001172  1.018782  0.0
C  C8  1  0.31721282  0.77195976  0.48916176  1  0.169366  -0.007275  3.850945  -0.011  0.189173  -0.005417  3.856232  -0.008  0.157215  0.154745  -0.008632  3.849853  -0.013
C  C9  1  0.62374119  0.71432904  0.46535805  1  0.184082  -0.003799  3.865016  -0.005  0.201689  -0.003768  3.871725  -0.006  0.166142  0.170828  -0.003264  3.862616  -0.005
C  C10  1  0.68276495  0.22803988  0.51081783  1  0.169552  -0.007268  3.85119  -0.011  0.189354  -0.005411  3.856482  -0.008  0.157264  0.15492  -0.008623  3.850108  -0.013
C  C11  1  0.37625304  0.28565715  0.53461777  1  0.184144  -0.003795  3.865156  -0.005  0.201755  -0.003766  3.871847  -0.006  0.16615  0.170895  -0.003261  3.862737  -0.005
N  N12  1  0.48760434  0.85720304  0.70209001  1  -0.166678  -0.009921  3.653521  -0.014  -0.187519  -0.008385  3.668072  -0.012  -0.281396  -0.154572  -0.010348  3.645214  -0.014
N  N13  1  0.68264770  0.82292358  0.68706776  1  -0.210533  -0.019475  3.520379  -0.028  -0.229028  -0.01643  3.536067  -0.023  -0.259222  -0.19768  -0.022061  3.510093  -0.032
N  N14  1  0.51241027  0.14280055  0.29792585  1  -0.166677  -0.00992  3.653979  -0.014  -0.187519  -0.008386  3.668527  -0.012  -0.281431  -0.154566  -0.010346  3.645676  -0.014
N  N15  1  0.31735979  0.17707823  0.31294486  1  -0.210603  -0.01947  3.520543  -0.028  -0.229097  -0.016426  3.536228  -0.023  -0.259259  -0.197744  -0.022054  3.510255  -0.032
N  N16  1  0.39852509  0.68230139  0.33895567  1  -0.223275  -0.001573  3.650711  -0.002  -0.240629  -0.001129  3.657304  -0.001  -0.361734  -0.212157  -0.002003  3.648352  -0.003
N  N17  1  0.60148599  0.31771067  0.66106375  1  -0.22346  -0.001574  3.650376  -0.002  -0.240808  -0.00113  3.656956  -0.001  -0.361803  -0.212334  -0.002004  3.648019  -0.003
Cl  Cl18  1  0.82463729  0.30141912  0.13596344  1  -0.430961  -0.016299  1.560536  -0.03  -0.464737  -0.013367  1.537492  -0.026  -0.223874  -0.402187  -0.018771  1.575359  -0.034
Cl  Cl19  1  0.80874022  0.82234038  0.13885048  1  -0.473652  -0.02266  1.386458  -0.027  -0.504397  -0.017529  1.365142  -0.019  -0.257568  -0.446984  -0.027851  1.400848  -0.036
Cl  Cl20  1  0.17536523  0.69857747  0.86403717  1  -0.430948  -0.016297  1.560526  -0.03  -0.464721  -0.013366  1.537479  -0.026  -0.223881  -0.402177  -0.01877  1.575353  -0.034
Cl  Cl21  1  0.19125904  0.17765618  0.86114897  1  -0.473615  -0.022658  1.386424  -0.027  -0.504358  -0.017527  1.365104  -0.019  -0.257553  -0.446948  -0.027848  1.400818  -0.036
