# generated using pymatgen
data_Hg2H8C10S(I2N)2
_symmetry_space_group_name_H-M   'P 1'
_cell_length_a   8.86328492
_cell_length_b   13.84853512
_cell_length_c   17.42310000
_cell_angle_alpha   113.63114031
_cell_angle_beta   104.76246991
_cell_angle_gamma   89.98884010
_symmetry_Int_Tables_number   1
_chemical_formula_structural   Hg2H8C10S(I2N)2
_chemical_formula_sum   'Hg8 H32 C40 S4 I16 N8'
_cell_volume   1881.98274392
_cell_formula_units_Z   4
loop_
 _symmetry_equiv_pos_site_id
 _symmetry_equiv_pos_as_xyz
  1  'x, y, z'
loop_
 _atom_site_type_symbol
 _atom_site_label
 _atom_site_symmetry_multiplicity
 _atom_site_fract_x
 _atom_site_fract_y
 _atom_site_fract_z
 _atom_site_occupancy
 _atom_site_hle17_bader_spin_density
 _atom_site_hle17_ddec_charge
 _atom_site_hle17_ddec_spin_density
 _atom_site_hle17_ddec_sum_bond_order
 _atom_site_hle17_magmom
 _atom_site_hse06_10hf_bader_spin_density
 _atom_site_hse06_10hf_ddec_charge
 _atom_site_hse06_10hf_ddec_spin_density
 _atom_site_hse06_10hf_ddec_sum_bond_order
 _atom_site_hse06_10hf_magmom
 _atom_site_hse06_bader_spin_density
 _atom_site_hse06_ddec_charge
 _atom_site_hse06_ddec_spin_density
 _atom_site_hse06_ddec_sum_bond_order
 _atom_site_hse06_magmom
 _atom_site_pbe_bader_charge
 _atom_site_pbe_bader_spin_density
 _atom_site_pbe_cm5_charge
 _atom_site_pbe_ddec_charge
 _atom_site_pbe_ddec_spin_density
 _atom_site_pbe_ddec_sum_bond_order
 _atom_site_pbe_magmom
Hg  Hg0  1  0.40133047  0.19280041  0.50019214  1  0  0.48395  0  2.209444  0  0  0.38765  0  2.677064  0  0  0.42843  0  2.650721  0  0.483527  0  0.37807  0.360465  0  2.694376  0
Hg  Hg1  1  0.59865785  0.69284004  0.50006650  1  0  0.483791  0  2.208851  0  0  0.387581  0  2.676137  0  0  0.428383  0  2.64978  0  0.483706  0  0.377833  0.360382  0  2.693459  0
Hg  Hg2  1  0.16032389  0.62388493  0.13113525  1  0  0.481145  0  2.286196  0  0  0.36458  0  2.803018  0  0  0.407858  0  2.777026  0  0.439223  0  0.312341  0.335944  0  2.819781  0
Hg  Hg3  1  0.83787939  0.49224306  0.86811198  1  0  0.481775  0  2.284391  0  0  0.365203  0  2.800763  0  0  0.408488  0  2.774787  0  0.439038  0  0.31309  0.33654  0  2.817567  0
Hg  Hg4  1  0.47139206  0.12386038  0.13113705  1  0  0.481709  0  2.285396  0  0  0.365542  0  2.801738  0  0  0.408754  0  2.775827  0  0.437444  0  0.312752  0.336951  0  2.818505  0
Hg  Hg5  1  0.52984492  0.99248740  0.86816996  1  0  0.481956  0  2.285089  0  0  0.365771  0  2.801047  0  0  0.408954  0  2.775206  0  0.437431  0  0.313259  0.337205  0  2.817758  0
Hg  Hg6  1  0.81769972  0.34375359  0.50041727  1  0  0.465269  0  2.327259  0  0  0.376268  0  2.828162  0  0  0.416228  0  2.803288  0  0.354604  0  0.2712  0.349888  0  2.843727  0
Hg  Hg7  1  0.18229788  0.84333935  0.49946814  1  0  0.465141  0  2.327562  0  0  0.37611  0  2.82842  0  0  0.416088  0  2.803538  0  0.354327  0  0.271315  0.34971  0  2.843992  0
H  H8  1  0.85540694  0.96009586  0.37715134  1  0  0.087535  0  1.001598  0  0  0.093535  0  1.072281  0  0  0.097417  0  1.067531  0  0.157893  0  0.100607  0.090739  0  1.075592  0
H  H9  1  0.14493706  0.58314774  0.62275047  1  0  0.086809  0  1.003052  0  0  0.092459  0  1.074021  0  0  0.09635  0  1.069232  0  0.14909  0  0.10023  0.089663  0  1.077385  0
H  H10  1  0.02206296  0.46005940  0.37716793  1  0  0.087344  0  1.001859  0  0  0.09329  0  1.072577  0  0  0.097179  0  1.06778  0  0.155654  0  0.100729  0.090482  0  1.075974  0
H  H11  1  0.97716108  0.08312795  0.62271003  1  0  0.087429  0  1.003344  0  0  0.093245  0  1.074318  0  0  0.097123  0  1.069543  0  0.152234  0  0.100636  0.090436  0  1.077714  0
H  H12  1  0.10967010  0.07050078  0.43596531  1  0  0.095065  0  0.995883  0  0  0.106281  0  1.062722  0  0  0.109415  0  1.061111  0  0.032261  0  0.087515  0.103988  0  1.064128  0
H  H13  1  0.89094017  0.63455066  0.56404016  1  0  0.095413  0  0.994532  0  0  0.106365  0  1.061695  0  0  0.109445  0  1.060191  0  0.04936  0  0.087337  0.10408  0  1.063064  0
H  H14  1  0.82662504  0.57038171  0.43596048  1  0  0.094643  0  0.996532  0  0  0.105813  0  1.063468  0  0  0.108841  0  1.062024  0  0.028225  0  0.087391  0.103579  0  1.064779  0
H  H15  1  0.17240643  0.13429204  0.56398517  1  0  0.095347  0  0.994706  0  0  0.106059  0  1.062349  0  0  0.109165  0  1.060832  0  0.091234  0  0.087563  0.103771  0  1.06372  0
H  H16  1  0.10036079  0.01165994  0.17068882  1  0  0.118725  0  0.977932  0  0  0.126147  0  1.042132  0  0  0.130453  0  1.040067  0  0.126223  0  0.093785  0.123079  0  1.043793  0
H  H17  1  0.89920894  0.84154375  0.82957117  1  0  0.118081  0  0.979899  0  0  0.125765  0  1.044065  0  0  0.130054  0  1.042047  0  0.129333  0  0.093301  0.122652  0  1.045766  0
H  H18  1  0.57074218  0.51197172  0.17072884  1  0  0.118399  0  0.97819  0  0  0.125721  0  1.042661  0  0  0.13001  0  1.040607  0  0.14244  0  0.093473  0.122644  0  1.044333  0
H  H19  1  0.43011577  0.34126687  0.82952444  1  0  0.117615  0  0.979813  0  0  0.124861  0  1.044565  0  0  0.129231  0  1.042447  0  0.123937  0  0.092897  0.121759  0  1.046228  0
H  H20  1  0.83882750  0.91009737  0.12202033  1  0  0.095755  0  0.983914  0  0  0.103058  0  1.053136  0  0  0.106688  0  1.04883  0  0.152895  0  0.106336  0.100375  0  1.056307  0
H  H21  1  0.16035113  0.78867530  0.87822197  1  0  0.095779  0  0.984262  0  0  0.102919  0  1.053732  0  0  0.106517  0  1.049506  0  0.154987  0  0.106286  0.10025  0  1.056836  0
H  H22  1  0.78345202  0.41033783  0.12204494  1  0  0.096129  0  0.982589  0  0  0.10328  0  1.052008  0  0  0.106995  0  1.047649  0  0.154309  0  0.106588  0.100528  0  1.055237  0
H  H23  1  0.21773177  0.28856665  0.87817362  1  0  0.095847  0  0.984626  0  0  0.103176  0  1.054004  0  0  0.106777  0  1.049771  0  0.154264  0  0.106487  0.100526  0  1.057094  0
H  H24  1  0.48477132  0.63226548  0.07100864  1  0  0.070131  0  0.951757  0  0  0.076925  0  1.021162  0  0  0.079412  0  1.018609  0  0.094402  0  0.103595  0.075087  0  1.023008  0
H  H25  1  0.51417700  0.56190753  0.92839480  1  0  0.069923  0  0.952971  0  0  0.077452  0  1.021502  0  0  0.079867  0  1.019052  0  0.092195  0  0.103884  0.075598  0  1.023362  0
H  H26  1  0.08636659  0.13229013  0.07087306  1  0  0.069814  0  0.95208  0  0  0.077149  0  1.021042  0  0  0.079566  0  1.018548  0  0.092545  0  0.103883  0.075318  0  1.022902  0
H  H27  1  0.91408902  0.06230431  0.92863195  1  0  0.069482  0  0.952586  0  0  0.076887  0  1.021285  0  0  0.079313  0  1.018797  0  0.09272  0  0.103691  0.075078  0  1.023131  0
H  H28  1  0.74045103  0.74168166  0.10836888  1  0  0.117331  0  0.964455  0  0  0.12256  0  1.034143  0  0  0.126098  0  1.032556  0  0.118412  0  0.10058  0.119962  0  1.035492  0
H  H29  1  0.25875241  0.63398254  0.89112696  1  0  0.117513  0  0.965801  0  0  0.122778  0  1.03528  0  0  0.126429  0  1.033529  0  0.113959  0  0.100905  0.120116  0  1.036719  0
H  H30  1  0.86806070  0.24165711  0.10829053  1  0  0.117329  0  0.965051  0  0  0.122413  0  1.03504  0  0  0.125972  0  1.033449  0  0.121494  0  0.100594  0.119813  0  1.036371  0
H  H31  1  0.13214926  0.13430394  0.89139282  1  0  0.117378  0  0.965024  0  0  0.122699  0  1.034672  0  0  0.126257  0  1.03304  0  0.121197  0  0.100892  0.120099  0  1.036042  0
H  H32  1  0.59942197  0.97988800  0.32195814  1  0  0.114548  0  0.986936  0  0  0.118206  0  1.060844  0  0  0.122316  0  1.058589  0  0.115735  0  0.092712  0.115213  0  1.062685  0
H  H33  1  0.40095341  0.65816332  0.67836106  1  0  0.115506  0  0.985898  0  0  0.119283  0  1.059329  0  0  0.123455  0  1.057005  0  0.118334  0  0.093029  0.116235  0  1.061246  0
H  H34  1  0.22290437  0.47975395  0.32197698  1  0  0.114799  0  0.985781  0  0  0.118686  0  1.059533  0  0  0.122819  0  1.057281  0  0.113408  0  0.092794  0.115647  0  1.061421  0
H  H35  1  0.77692964  0.15771983  0.67817906  1  0  0.115258  0  0.985467  0  0  0.119095  0  1.058848  0  0  0.123262  0  1.056504  0  0.128572  0  0.092931  0.116074  0  1.06073  0
H  H36  1  0.35290881  0.85921417  0.27625436  1  0  0.074873  0  0.95198  0  0  0.079407  0  1.024497  0  0  0.081948  0  1.022196  0  0.108799  0  0.099279  0.077517  0  1.026211  0
H  H37  1  0.64716136  0.58309299  0.72389649  1  0  0.075041  0  0.952092  0  0  0.079594  0  1.02458  0  0  0.082143  0  1.022274  0  0.115394  0  0.099351  0.07769  0  1.026315  0
H  H38  1  0.42366984  0.35907774  0.27626886  1  0  0.075291  0  0.950273  0  0  0.079666  0  1.023029  0  0  0.082229  0  1.020691  0  0.116451  0  0.099202  0.077757  0  1.02476  0
H  H39  1  0.57643768  0.08267250  0.72368333  1  0  0.074972  0  0.950334  0  0  0.079393  0  1.02333  0  0  0.08199  0  1.020947  0  0.115973  0  0.098982  0.077471  0  1.025084  0
C  C40  1  0.91211149  0.97710850  0.33476999  1  0  0.108171  0  3.650751  0  0  0.067244  0  3.902936  0  0  0.079249  0  3.914764  0  0.304311  0  0.044497  0.059501  0  3.895011  0
C  C41  1  0.08811902  0.64264715  0.66523475  1  0  0.108523  0  3.650217  0  0  0.068136  0  3.902324  0  0  0.080179  0  3.914087  0  0.379621  0  0.045212  0.060347  0  3.894463  0
C  C42  1  0.92294285  0.47710220  0.33477087  1  0  0.108373  0  3.650302  0  0  0.06757  0  3.902476  0  0  0.079634  0  3.914231  0  0.311042  0  0.044401  0.059781  0  3.894607  0
C  C43  1  0.07663406  0.14254723  0.66520690  1  0  0.107833  0  3.650002  0  0  0.066897  0  3.902526  0  0  0.07894  0  3.914333  0  0.363649  0  0.044309  0.059135  0  3.894619  0
C  C44  1  0.05491871  0.03724833  0.36612849  1  0  -0.165956  0  3.749617  0  0  -0.185939  0  4.00545  0  0  -0.197444  0  4.025924  0  0.197332  0  -0.099473  -0.178888  0  3.992114  0
C  C45  1  0.94538217  0.67134989  0.63391830  1  0  -0.166092  0  3.748382  0  0  -0.185933  0  4.004275  0  0  -0.197364  0  4.024639  0  0.109525  0  -0.099661  -0.17891  0  3.991051  0
C  C46  1  0.81150682  0.53724194  0.36613262  1  0  -0.16475  0  3.749603  0  0  -0.184664  0  4.005571  0  0  -0.196115  0  4.026099  0  0.215848  0  -0.099155  -0.177645  0  3.992227  0
C  C47  1  0.18803655  0.17112856  0.63388290  1  0  -0.164654  0  3.750091  0  0  -0.184034  0  4.005356  0  0  -0.195529  0  4.025806  0  0.067581  0  -0.098988  -0.176985  0  3.992017  0
C  C48  1  0.13069410  0.05306284  0.30929564  1  0  0.159364  0  3.769409  0  0  0.167597  0  4.02393  0  0  0.183947  0  4.039979  0  -0.177177  0  0.014008  0.156992  0  4.012761  0
C  C49  1  0.86951716  0.74422868  0.69085142  1  0  0.159146  0  3.770623  0  0  0.167571  0  4.025183  0  0  0.183984  0  4.041163  0  -0.146647  0  0.014215  0.156923  0  4.014049  0
C  C50  1  0.67889137  0.55314690  0.30929842  1  0  0.158501  0  3.771221  0  0  0.166599  0  4.026226  0  0  0.182952  0  4.04224  0  -0.185471  0  0.014009  0.155993  0  4.015084  0
C  C51  1  0.32099619  0.24392245  0.69079845  1  0  0.158069  0  3.773556  0  0  0.166415  0  4.028035  0  0  0.182792  0  4.044063  0  -0.149529  0  0.014088  0.155784  0  4.016897  0
C  C52  1  0.04948673  0.00416885  0.21907103  1  0  -0.143212  0  3.672448  0  0  -0.156893  0  3.917229  0  0  -0.166795  0  3.934145  0  0.117059  0  -0.08606  -0.150832  0  3.90619  0
C  C53  1  0.95034063  0.78564983  0.78111966  1  0  -0.14289  0  3.673684  0  0  -0.157236  0  3.918508  0  0  -0.167179  0  3.935461  0  0.070661  0  -0.08594  -0.151101  0  3.90747  0
C  C54  1  0.66997878  0.50440209  0.21909930  1  0  -0.143472  0  3.67305  0  0  -0.157367  0  3.918723  0  0  -0.167282  0  3.935725  0  0.107537  0  -0.086406  -0.151274  0  3.90763  0
C  C55  1  0.33050997  0.28537454  0.78105467  1  0  -0.142054  0  3.673157  0  0  -0.15586  0  3.918106  0  0  -0.165842  0  3.935021  0  0.071865  0  -0.086171  -0.149688  0  3.907006  0
C  C56  1  0.90572287  0.94557072  0.19051556  1  0  0.104121  0  3.618017  0  0  0.061752  0  3.871372  0  0  0.072694  0  3.88401  0  0.303329  0  0.050003  0.054723  0  3.862839  0
C  C57  1  0.09389691  0.75556568  0.80963593  1  0  0.103779  0  3.61814  0  0  0.061904  0  3.871152  0  0  0.07283  0  3.883793  0  0.346473  0  0.049755  0.054898  0  3.862604  0
C  C58  1  0.78514221  0.44576675  0.19054069  1  0  0.104959  0  3.615643  0  0  0.062598  0  3.869419  0  0  0.073442  0  3.88201  0  0.299535  0  0.05015  0.055632  0  3.860932  0
C  C59  1  0.21547621  0.25540782  0.80959320  1  0  0.102918  0  3.617626  0  0  0.060598  0  3.87101  0  0  0.071489  0  3.883763  0  0.34611  0  0.049222  0.053462  0  3.862652  0
C  C60  1  0.51473136  0.71062790  0.12543667  1  0  0.139856  0  3.701837  0  0  0.113335  0  3.948401  0  0  0.120182  0  3.966953  0  0.501  0  0.045145  0.108927  0  3.935776  0
C  C61  1  0.48452940  0.58576299  0.87417350  1  0  0.139406  0  3.701911  0  0  0.112288  0  3.94895  0  0  0.119128  0  3.967606  0  0.497841  0  0.044518  0.107936  0  3.93627  0
C  C62  1  0.11088437  0.21062239  0.12536086  1  0  0.140577  0  3.701193  0  0  0.113448  0  3.948286  0  0  0.12034  0  3.966889  0  0.488857  0  0.044849  0.109057  0  3.935642  0
C  C63  1  0.88942789  0.08595268  0.87429311  1  0  0.140466  0  3.702692  0  0  0.113687  0  3.949528  0  0  0.120532  0  3.968129  0  0.486699  0  0.045231  0.10929  0  3.936886  0
C  C64  1  0.65631104  0.77140796  0.14607037  1  0  -0.177797  0  3.694642  0  0  -0.195613  0  3.941721  0  0  -0.20294  0  3.961643  0  0.024473  0  -0.08231  -0.190974  0  3.928517  0
C  C65  1  0.34309230  0.62595031  0.85361076  1  0  -0.177129  0  3.697061  0  0  -0.194786  0  3.943732  0  0  -0.202186  0  3.963569  0  0.045024  0  -0.082233  -0.190095  0  3.930566  0
C  C66  1  0.98994532  0.27138182  0.14603580  1  0  -0.178256  0  3.693981  0  0  -0.195831  0  3.941264  0  0  -0.203223  0  3.961176  0  0.048677  0  -0.082296  -0.191142  0  3.928051  0
C  C67  1  0.01027165  0.12610667  0.85373926  1  0  -0.17671  0  3.696237  0  0  -0.194748  0  3.943558  0  0  -0.202087  0  3.963414  0  0.052875  0  -0.08229  -0.190083  0  3.930335  0
C  C68  1  0.68865942  0.86861274  0.21885109  1  0  0.214948  0  3.729924  0  0  0.205836  0  3.97346  0  0  0.213732  0  3.994911  0  0.277769  0  0.109346  0.200692  0  3.958982  0
C  C69  1  0.31114802  0.65027551  0.78109137  1  0  0.213992  0  3.7319  0  0  0.205045  0  3.975365  0  0  0.213002  0  3.99674  0  0.238615  0  0.109518  0.199866  0  3.960933  0
C  C70  1  0.03041127  0.36856676  0.21884741  1  0  0.216548  0  3.727462  0  0  0.207109  0  3.971427  0  0  0.215085  0  3.992766  0  0.28406  0  0.110023  0.201931  0  3.957005  0
C  C71  1  0.96963422  0.15019621  0.78108749  1  0  0.213614  0  3.730341  0  0  0.204689  0  3.974053  0  0  0.212663  0  3.995405  0  0.216577  0  0.109545  0.199532  0  3.959601  0
C  C72  1  0.57924117  0.90298794  0.26636062  1  0  -0.179815  0  3.693417  0  0  -0.198967  0  3.943598  0  0  -0.206687  0  3.963086  0  -0.017292  0  -0.08539  -0.194123  0  3.930821  0
C  C73  1  0.42084888  0.63701833  0.73377683  1  0  -0.179697  0  3.693691  0  0  -0.198727  0  3.943671  0  0  -0.206537  0  3.963085  0  0.046024  0  -0.084994  -0.193824  0  3.930944  0
C  C74  1  0.18743158  0.40289277  0.26636967  1  0  -0.180096  0  3.692206  0  0  -0.19954  0  3.942122  0  0  -0.207379  0  3.961626  0  -0.029651  0  -0.085354  -0.194578  0  3.929286  0
C  C75  1  0.81257620  0.13671051  0.73366409  1  0  -0.18046  0  3.693482  0  0  -0.199691  0  3.944022  0  0  -0.207499  0  3.963458  0  0.055363  0  -0.085246  -0.194792  0  3.931258  0
C  C76  1  0.44119505  0.83638941  0.24043804  1  0  0.147644  0  3.706648  0  0  0.116806  0  3.962614  0  0  0.124978  0  3.979111  0  0.555599  0  0.044789  0.111482  0  3.95147  0
C  C77  1  0.55869677  0.59627479  0.75959961  1  0  0.146963  0  3.707815  0  0  0.116119  0  3.963843  0  0  0.124275  0  3.980384  0  0.49636  0  0.044538  0.110809  0  3.952677  0
C  C78  1  0.29952917  0.33627361  0.24041947  1  0  0.146131  0  3.706466  0  0  0.11616  0  3.961272  0  0  0.124309  0  3.977769  0  0.541822  0  0.044593  0.110861  0  3.950095  0
C  C79  1  0.70060527  0.09599078  0.75948758  1  0  0.147697  0  3.70662  0  0  0.116819  0  3.962646  0  0  0.124979  0  3.979167  0  0.488754  0  0.044651  0.111502  0  3.951494  0
S  S80  1  0.31144815  0.12436502  0.34107742  1  0  -0.19273  0  2.176592  0  0  -0.163315  0  2.523173  0  0  -0.187124  0  2.524832  0  -0.045583  0  -0.104993  -0.147468  0  2.521742  0
S  S81  1  0.68910692  0.78402720  0.65924827  1  0  -0.192827  0  2.177739  0  0  -0.163418  0  2.524538  0  0  -0.18732  0  2.526246  0  -0.061105  0  -0.105069  -0.147512  0  2.523086  0
S  S82  1  0.52977364  0.62438322  0.34095205  1  0  -0.192403  0  2.176972  0  0  -0.162649  0  2.523253  0  0  -0.186469  0  2.524966  0  -0.055297  0  -0.104838  -0.14681  0  2.521808  0
S  S83  1  0.46995314  0.28370827  0.65932887  1  0  -0.192707  0  2.1791  0  0  -0.163185  0  2.525874  0  0  -0.187072  0  2.527594  0  -0.048216  0  -0.105066  -0.147297  0  2.524434  0
I  I84  1  0.26065340  0.43277856  0.05220628  1  0  -0.375995  0  1.226665  0  0  -0.338688  0  1.582344  0  0  -0.356618  0  1.565266  0  -0.347841  0  -0.204224  -0.326413  0  1.593976  0
I  I85  1  0.73790316  0.38231986  0.94827662  1  0  -0.374922  0  1.22502  0  0  -0.337432  0  1.580163  0  0  -0.355327  0  1.562997  0  -0.345136  0  -0.203196  -0.325212  0  1.591879  0
I  I86  1  0.29193896  0.93285468  0.05202447  1  0  -0.376623  0  1.22587  0  0  -0.339448  0  1.581459  0  0  -0.357349  0  1.564348  0  -0.348286  0  -0.204934  -0.327213  0  1.593154  0
I  I87  1  0.70990155  0.88274987  0.94864155  1  0  -0.375952  0  1.222978  0  0  -0.338735  0  1.577853  0  0  -0.356564  0  1.56065  0  -0.346099  0  -0.204423  -0.326527  0  1.589555  0
I  I88  1  0.05031981  0.71099924  0.27479697  1  0  -0.371913  0  1.230579  0  0  -0.333495  0  1.592356  0  0  -0.352625  0  1.577576  0  -0.347956  0  -0.216442  -0.320502  0  1.6022  0
I  I89  1  0.94965905  0.43609999  0.72527938  1  0  -0.370922  0  1.231135  0  0  -0.332291  0  1.592235  0  0  -0.351399  0  1.577486  0  -0.346758  0  -0.215573  -0.3193  0  1.602059  0
I  I90  1  0.72486056  0.21106990  0.27488443  1  0  -0.372221  0  1.228202  0  0  -0.333907  0  1.58956  0  0  -0.352979  0  1.574827  0  -0.346322  0  -0.21688  -0.320932  0  1.599336  0
I  I91  1  0.27562096  0.93618564  0.72514445  1  0  -0.371101  0  1.229386  0  0  -0.332718  0  1.59049  0  0  -0.351777  0  1.575809  0  -0.344333  0  -0.216043  -0.319771  0  1.600251  0
I  I92  1  0.00010783  0.69825781  0.00006848  1  0  -0.306385  0  1.390902  0  0  -0.250322  0  1.792191  0  0  -0.27222  0  1.770995  0  -0.310991  0  -0.160764  -0.234844  0  1.806304  0
I  I93  1  0.50036714  0.19867363  0.00025900  1  0  -0.306448  0  1.391641  0  0  -0.249849  0  1.792488  0  0  -0.271866  0  1.771492  0  -0.310885  0  -0.160583  -0.234313  0  1.806524  0
I  I94  1  0.74281004  0.14519977  0.50008281  1  0  -0.348898  0  1.457753  0  0  -0.299108  0  1.845827  0  0  -0.321081  0  1.824877  0  -0.343393  0  -0.166868  -0.283805  0  1.859561  0
I  I95  1  0.25730621  0.64531478  0.50030849  1  0  -0.348906  0  1.457117  0  0  -0.299201  0  1.845027  0  0  -0.321158  0  1.824044  0  -0.344536  0  -0.167038  -0.283897  0  1.858781  0
I  I96  1  0.12220115  0.36491921  0.49979150  1  0  -0.319453  0  1.325776  0  0  -0.269942  0  1.690653  0  0  -0.290697  0  1.673521  0  -0.287542  0  -0.164972  -0.255591  0  1.702064  0
I  I97  1  0.87762720  0.86497471  0.49977950  1  0  -0.319456  0  1.326501  0  0  -0.270034  0  1.691713  0  0  -0.29079  0  1.674609  0  -0.287803  0  -0.164866  -0.255662  0  1.703088  0
I  I98  1  0.56156614  0.45192006  0.50048019  1  0  -0.320995  0  1.348793  0  0  -0.272744  0  1.723706  0  0  -0.293132  0  1.705609  0  -0.281537  0  -0.167538  -0.258174  0  1.736078  0
I  I99  1  0.43902402  0.95152169  0.50007741  1  0  -0.320953  0  1.349395  0  0  -0.272462  0  1.724161  0  0  -0.292869  0  1.706089  0  -0.281231  0  -0.167418  -0.257877  0  1.736535  0
N  N100  1  0.83682234  0.93210724  0.24788493  1  0  -0.06484  0  3.578773  0  0  0.026466  0  3.779002  0  0  0.011474  0  3.802259  0  -1.269475  0  -0.208724  0.036201  0  3.763196  0
N  N101  1  0.16308679  0.68468641  0.75216353  1  0  -0.064823  0  3.57803  0  0  0.025995  0  3.778612  0  0  0.011006  0  3.801804  0  -1.271091  0  -0.209517  0.035724  0  3.762859  0
N  N102  1  0.91134920  0.43212554  0.24790425  1  0  -0.065956  0  3.57686  0  0  0.025637  0  3.777115  0  0  0.0106  0  3.800395  0  -1.279845  0  -0.208704  0.035392  0  3.761307  0
N  N103  1  0.08870285  0.18454602  0.75212934  1  0  -0.063809  0  3.575314  0  0  0.027409  0  3.775904  0  0  0.012384  0  3.799151  0  -1.259561  0  -0.208378  0.037175  0  3.760081  0
N  N104  1  0.41039819  0.74169674  0.17201241  1  0  -0.284082  0  3.245693  0  0  -0.213425  0  3.507204  0  0  -0.232011  0  3.527642  0  -1.233768  0  -0.311942  -0.200934  0  3.493107  0
N  N105  1  0.58906916  0.57010559  0.82776005  1  0  -0.283769  0  3.247216  0  0  -0.213367  0  3.509448  0  0  -0.232005  0  3.529981  0  -1.223407  0  -0.312117  -0.200816  0  3.49521  0
N  N106  1  0.26186900  0.24163331  0.17194505  1  0  -0.284619  0  3.24575  0  0  -0.21468  0  3.507721  0  0  -0.233222  0  3.528075  0  -1.226282  0  -0.312598  -0.202213  0  3.493659  0
N  N107  1  0.73844243  0.07007390  0.82778691  1  0  -0.284687  0  3.249027  0  0  -0.214361  0  3.51117  0  0  -0.232955  0  3.531588  0  -1.221048  0  -0.312268  -0.201843  0  3.497019  0
