# generated using pymatgen
data_ZnH24C30NO4
_symmetry_space_group_name_H-M   'P 1'
_cell_length_a   17.90928570
_cell_length_b   18.21570374
_cell_length_c   19.69003240
_cell_angle_alpha   90.01795221
_cell_angle_beta   90.31768998
_cell_angle_gamma   90.10860337
_symmetry_Int_Tables_number   1
_chemical_formula_structural   ZnH24C30NO4
_chemical_formula_sum   'Zn2 H48 C60 N2 O8'
_cell_volume   6423.37342682
_cell_formula_units_Z   2
loop_
 _symmetry_equiv_pos_site_id
 _symmetry_equiv_pos_as_xyz
  1  'x, y, z'
loop_
 _atom_site_type_symbol
 _atom_site_label
 _atom_site_symmetry_multiplicity
 _atom_site_fract_x
 _atom_site_fract_y
 _atom_site_fract_z
 _atom_site_occupancy
 _atom_site_pbe_bader_charge
 _atom_site_pbe_bader_spin_density
 _atom_site_pbe_cm5_charge
 _atom_site_pbe_ddec_charge
 _atom_site_pbe_ddec_spin_density
 _atom_site_pbe_ddec_sum_bond_order
 _atom_site_pbe_magmom
Zn  Zn0  1  0.49973461  0.42386913  0.49949370  1  1.278249  0  0.661585  0.811286  0  2.442548  0
Zn  Zn1  1  0.50000268  0.57611281  0.49947931  1  1.259898  0  0.661456  0.811049  0  2.442246  0
H  H2  1  0.12222614  0.38161331  0.52078768  1  0.047651  0  0.102417  0.104361  0  0.993802  0
H  H3  1  0.87817107  0.61839510  0.52060059  1  0.040947  0  0.10224  0.104506  0  0.993786  0
H  H4  1  0.87729051  0.38171826  0.52109441  1  0.052879  0  0.102431  0.104207  0  0.994637  0
H  H5  1  0.12221918  0.61827583  0.52147062  1  0.046573  0  0.102345  0.104188  0  0.994223  0
H  H6  1  0.26165712  0.38263581  0.51026476  1  0.11296  0  0.103238  0.107657  0  1.003134  0
H  H7  1  0.73860378  0.61786024  0.51004756  1  0.110454  0  0.10297  0.106685  0  1.003974  0
H  H8  1  0.73771046  0.38268043  0.51048314  1  0.109062  0  0.103322  0.107745  0  1.002308  0
H  H9  1  0.26160808  0.61781383  0.51083673  1  0.104256  0  0.102593  0.106  0  1.006061  0
H  H10  1  0.49840957  0.61715444  0.28262338  1  0.083288  0  0.10146  0.105144  0  1.004148  0
H  H11  1  0.50165896  0.38212527  0.71709820  1  0.067307  0  0.10094  0.103704  0  1.006811  0
H  H12  1  0.49807963  0.61725914  0.71651335  1  0.117425  0  0.101761  0.105208  0  1.004665  0
H  H13  1  0.50184843  0.38196809  0.28218107  1  0.073716  0  0.100549  0.103056  0  1.007068  0
H  H14  1  0.49845697  0.61794823  0.15565440  1  0.071045  0  0.097898  0.096149  0  1.007636  0
H  H15  1  0.50163050  0.38189530  0.84406069  1  0.07209  0  0.09791  0.096163  0  1.007533  0
H  H16  1  0.49788314  0.61821700  0.84347926  1  0.08071  0  0.098131  0.096627  0  1.006772  0
H  H17  1  0.50216684  0.38165540  0.15524795  1  0.06173  0  0.097905  0.096311  0  1.008459  0
H  H18  1  0.58678406  0.41827551  0.06265266  1  0.052121  0  0.100027  0.099406  0  1.002752  0
H  H19  1  0.41334908  0.58190393  0.93654350  1  0.056714  0  0.100097  0.099174  0  1.002828  0
H  H20  1  0.58652707  0.41841132  0.93685889  1  0.056651  0  0.100298  0.099673  0  1.001388  0
H  H21  1  0.41357137  0.58168025  0.06233669  1  0.058774  0  0.100489  0.100062  0  1.002579  0
H  H22  1  0.57314308  0.30762454  0.41919596  1  0.126308  0  0.129818  0.105251  0  0.97  0
H  H23  1  0.41172064  0.69208678  0.56669238  1  0.091777  0  0.129564  0.10458  0  0.971273  0
H  H24  1  0.42680538  0.30778882  0.58039731  1  0.129599  0  0.129852  0.105228  0  0.970938  0
H  H25  1  0.58848460  0.69268863  0.43302368  1  0.096563  0  0.130052  0.105155  0  0.968654  0
H  H26  1  0.57667029  0.16944253  0.41601791  1  0.099077  0  0.11411  0.121402  0  0.982524  0
H  H27  1  0.40767857  0.83024854  0.56986397  1  0.086753  0  0.114323  0.121346  0  0.982201  0
H  H28  1  0.42355669  0.16961012  0.58436782  1  0.077657  0  0.114169  0.121637  0  0.982414  0
H  H29  1  0.59237604  0.83083741  0.43017767  1  0.07941  0  0.114478  0.121666  0  0.981954  0
H  H30  1  0.70443202  0.04340434  0.54040153  1  0.025249  0  0.084718  0.109116  0  1.014129  0
H  H31  1  0.67148394  0.12904760  0.51008322  1  0.01674  0  0.082613  0.108532  0  1.025113  0
H  H32  1  0.71654203  0.12383960  0.59049945  1  0.011565  0  0.089514  0.119381  0  0.993983  0
H  H33  1  0.57750029  0.13441781  0.60338153  1  0.0383  0  0.090422  0.085819  0  1.001398  0
H  H34  1  0.61091070  0.05207296  0.63787729  1  0.031984  0  0.093913  0.089343  0  0.994537  0
H  H35  1  0.45445710  0.95666907  0.31441731  1  0.02154  0  0.08464  0.108933  0  1.014169  0
H  H36  1  0.48784241  0.87104264  0.34446110  1  0.019513  0  0.082666  0.107971  0  1.024917  0
H  H37  1  0.39917403  0.87617320  0.30391851  1  0.006879  0  0.089803  0.119656  0  0.993513  0
H  H38  1  0.38568223  0.86579041  0.43042069  1  0.038954  0  0.090759  0.086442  0  1.001225  0
H  H39  1  0.34786513  0.94814183  0.40005157  1  0.036489  0  0.093852  0.089641  0  0.99431  0
H  H40  1  0.29541008  0.04329414  0.45989079  1  0.024271  0  0.084427  0.108886  0  1.014167  0
H  H41  1  0.32867419  0.12897266  0.49019923  1  0.013542  0  0.082525  0.108105  0  1.025788  0
H  H42  1  0.28372648  0.12367333  0.40975292  1  0.020525  0  0.089731  0.119702  0  0.993523  0
H  H43  1  0.42275206  0.13422305  0.39696133  1  0.044284  0  0.090532  0.086176  0  1.001219  0
H  H44  1  0.38906266  0.05183334  0.36247532  1  0.022534  0  0.094033  0.089654  0  0.994828  0
H  H45  1  0.54550585  0.95659991  0.68583727  1  0.021313  0  0.084848  0.109209  0  1.014215  0
H  H46  1  0.51198891  0.87093216  0.65569194  1  0.018388  0  0.082534  0.108008  0  1.025099  0
H  H47  1  0.60070788  0.87625251  0.69617905  1  0.02374  0  0.089862  0.119685  0  0.993489  0
H  H48  1  0.61409055  0.86605350  0.56967612  1  0.039589  0  0.090303  0.085944  0  1.001802  0
H  H49  1  0.65203856  0.94847715  0.60013936  1  0.031311  0  0.093843  0.089378  0  0.994816  0
C  C50  1  0.49952101  0.49937170  0.63320796  1  1.550623  0  0.211162  0.588747  0  4.176567  0
C  C51  1  0.50037941  0.49940984  0.36607142  1  1.597625  0  0.212959  0.592459  0  4.173272  0
C  C52  1  0.50034707  0.49981494  0.14662539  1  -0.063243  0  -0.007608  0.073431  0  4.012441  0
C  C53  1  0.49965635  0.50007562  0.85259387  1  -0.077223  0  -0.006396  0.074248  0  4.011964  0
C  C54  1  0.50045848  0.49955206  0.28992491  1  -0.054503  0  -0.02131  -0.036274  0  3.967598  0
C  C55  1  0.49955562  0.49965614  0.70933643  1  -0.042395  0  -0.020259  -0.034433  0  3.968126  0
C  C56  1  0.54775448  0.45335886  0.03503076  1  -0.120773  0  -0.094112  -0.131587  0  4.004857  0
C  C57  1  0.45236303  0.54680630  0.96416791  1  -0.002461  0  -0.093767  -0.129926  0  4.00443  0
C  C58  1  0.54762017  0.45345448  0.96432432  1  0.004655  0  -0.093359  -0.129658  0  4.002692  0
C  C59  1  0.45250903  0.54670574  0.03486776  1  -0.109646  0  -0.093587  -0.130953  0  4.0051  0
C  C60  1  0.49988585  0.50016073  0.92753219  1  0.085008  0  -0.010716  0.063059  0  4.015311  0
C  C61  1  0.50019922  0.49995718  0.07166489  1  0.022335  0  -0.010082  0.06448  0  4.014574  0
C  C62  1  0.54115341  0.27423639  0.45466298  1  0.418937  0  0.061529  0.105484  0  3.925452  0
C  C63  1  0.45047641  0.72562685  0.53746692  1  0.443918  0  0.061036  0.106424  0  3.923808  0
C  C64  1  0.45879002  0.27431433  0.54508691  1  0.41474  0  0.061211  0.105738  0  3.925322  0
C  C65  1  0.54965541  0.72595188  0.46231025  1  0.438925  0  0.061238  0.106114  0  3.923893  0
C  C66  1  0.54269975  0.19795721  0.45338934  1  0.044992  0  -0.078252  -0.186035  0  3.956934  0
C  C67  1  0.44876969  0.80190919  0.53884846  1  0.103492  0  -0.078721  -0.186434  0  3.956553  0
C  C68  1  0.45745227  0.19803524  0.54681704  1  0.065401  0  -0.078065  -0.186366  0  3.957544  0
C  C69  1  0.55128398  0.80224452  0.46110525  1  0.053818  0  -0.078392  -0.186386  0  3.956483  0
C  C70  1  0.50006807  0.15806584  0.50017839  1  -0.079521  0  0.022894  0.141311  0  3.981685  0
C  C71  1  0.49997401  0.84202587  0.49999120  1  -0.117336  0  0.023507  0.142014  0  3.980722  0
C  C72  1  0.54881364  0.03878559  0.54455632  1  0.040899  0  -0.01221  0.020201  0  3.933188  0
C  C73  1  0.45078851  0.96132116  0.45603812  1  -0.114787  0  -0.012123  0.020671  0  3.932698  0
C  C74  1  0.45111709  0.03869895  0.45581727  1  0.04851  0  -0.011612  0.020896  0  3.931668  0
C  C75  1  0.54907690  0.96141264  0.54421647  1  -0.106574  0  -0.011855  0.020802  0  3.933052  0
C  C76  1  0.49993302  0.92384870  0.50008372  1  0.012592  0  -0.015977  -0.063995  0  3.983923  0
C  C77  1  0.49999457  0.07625117  0.50021468  1  0.020957  0  -0.015862  -0.063423  0  3.9838  0
C  C78  1  0.64679203  0.50047197  0.50264030  1  1.583531  0  0.211728  0.588115  0  4.178122  0
C  C79  1  0.35300698  0.50050565  0.50361129  1  1.533783  0  0.211612  0.588558  0  4.179312  0
C  C80  1  0.15304183  0.43323843  0.51881479  1  0.00668  0  -0.087025  -0.131358  0  3.960425  0
C  C81  1  0.84715911  0.56687492  0.51834764  1  0.011593  0  -0.087024  -0.132824  0  3.9609  0
C  C82  1  0.84665208  0.43332484  0.51861588  1  0.010457  0  -0.086909  -0.131956  0  3.961406  0
C  C83  1  0.15302209  0.56677333  0.51918304  1  0.00808  0  -0.087162  -0.131385  0  3.962919  0
C  C84  1  0.23026976  0.43371569  0.51296928  1  -0.052677  0  -0.085541  -0.092484  0  3.998849  0
C  C85  1  0.76987946  0.56667418  0.51232864  1  -0.001068  0  -0.086126  -0.091891  0  4.000802  0
C  C86  1  0.76937199  0.43376640  0.51260915  1  -0.015911  0  -0.085476  -0.091299  0  3.998812  0
C  C87  1  0.23023654  0.56660278  0.51333437  1  -0.060653  0  -0.086308  -0.093036  0  4.003885  0
C  C88  1  0.26964766  0.50025443  0.50997263  1  -0.022536  0  -0.015689  -0.025435  0  3.955337  0
C  C89  1  0.73022232  0.50028986  0.50907290  1  -0.172982  0  -0.016361  -0.027308  0  3.955759  0
C  C90  1  0.11297271  0.49991708  0.52162392  1  0.079036  0  -0.000913  0.139842  0  4.123181  0
C  C91  1  0.88698557  0.50003958  0.52114349  1  0.079966  0  -0.000521  0.142255  0  4.120058  0
C  C92  1  0.03410159  0.49981821  0.52478462  1  -0.076669  0  -0.047794  -0.111419  0  4.133053  0
C  C93  1  0.96588628  0.49993227  0.52464512  1  -0.3111  0  -0.048502  -0.113347  0  4.132941  0
C  C94  1  0.49892876  0.56595612  0.25396454  1  -0.049886  0  -0.08681  -0.087847  0  3.995109  0
C  C95  1  0.50111003  0.43344265  0.74555589  1  -0.049575  0  -0.087657  -0.088577  0  3.998153  0
C  C96  1  0.49818252  0.56610731  0.74522231  1  -0.122618  0  -0.088323  -0.088137  0  3.995472  0
C  C97  1  0.50182828  0.43328803  0.25373129  1  -0.033261  0  -0.086715  -0.087009  0  3.998306  0
C  C98  1  0.49850791  0.56603471  0.18329918  1  -0.03939  0  -0.095107  -0.141153  0  4.00197  0
C  C99  1  0.50152385  0.43367203  0.81620554  1  -0.027651  0  -0.096004  -0.142019  0  4.002846  0
C  C100  1  0.49780287  0.56626568  0.81588228  1  -0.017957  0  -0.095277  -0.141965  0  4.000738  0
C  C101  1  0.50220492  0.43346070  0.18307693  1  -0.048667  0  -0.095703  -0.142186  0  4.004534  0
C  C102  1  0.60227488  0.08133244  0.58971986  1  -0.022493  0  -0.163333  -0.142862  0  3.985717  0
C  C103  1  0.67807479  0.09515950  0.55583944  1  -0.035979  0  -0.242296  -0.349057  0  3.961865  0
C  C104  1  0.40076191  0.91881369  0.40771989  1  -0.029102  0  -0.163571  -0.144249  0  3.985661  0
C  C105  1  0.43756500  0.90493668  0.33861343  1  -0.031102  0  -0.242393  -0.348023  0  3.959882  0
C  C106  1  0.39778440  0.08114815  0.41063266  1  -0.014684  0  -0.163489  -0.143635  0  3.986486  0
C  C107  1  0.32201875  0.09501096  0.44446584  1  -0.040768  0  -0.242033  -0.348441  0  3.961894  0
C  C108  1  0.59910082  0.91901749  0.59245493  1  -0.027036  0  -0.163312  -0.143306  0  3.986143  0
C  C109  1  0.56231826  0.90494280  0.66154875  1  -0.046542  0  -0.242269  -0.348325  0  3.960689  0
N  N110  1  0.49987604  0.31155847  0.49973067  1  -1.226902  0  -0.320577  -0.19323  0  3.527265  0
N  N111  1  0.50004837  0.68846712  0.49980183  1  -1.203884  0  -0.319945  -0.193975  0  3.526151  0
O  O112  1  0.49908408  0.43696224  0.60385690  1  -1.158491  0  -0.32014  -0.552604  0  2.325716  0
O  O113  1  0.49989705  0.56163899  0.39569110  1  -1.165323  0  -0.320756  -0.551578  0  2.3231  0
O  O114  1  0.50071722  0.43704057  0.39547769  1  -1.174941  0  -0.320739  -0.553625  0  2.326587  0
O  O115  1  0.50000396  0.56156767  0.60355928  1  -1.164629  0  -0.320356  -0.551437  0  2.324069  0
O  O116  1  0.61422297  0.43824646  0.50077138  1  -1.168394  0  -0.320357  -0.550993  0  2.32338  0
O  O117  1  0.38526409  0.56290524  0.50162595  1  -1.157887  0  -0.319891  -0.552371  0  2.325603  0
O  O118  1  0.38531544  0.43831808  0.50087239  1  -1.168163  0  -0.320236  -0.551187  0  2.322432  0
O  O119  1  0.61471225  0.56282283  0.49990523  1  -1.161526  0  -0.319942  -0.552056  0  2.323694  0
