# generated using pymatgen
data_CuH23C23(NO3)2
_symmetry_space_group_name_H-M   'P 1'
_cell_length_a   7.85514043
_cell_length_b   11.44704232
_cell_length_c   13.46934226
_cell_angle_alpha   100.83536404
_cell_angle_beta   98.30873209
_cell_angle_gamma   105.51708427
_symmetry_Int_Tables_number   1
_chemical_formula_structural   CuH23C23(NO3)2
_chemical_formula_sum   'Cu2 H46 C46 N4 O12'
_cell_volume   1121.64290643
_cell_formula_units_Z   2
loop_
 _symmetry_equiv_pos_site_id
 _symmetry_equiv_pos_as_xyz
  1  'x, y, z'
loop_
 _atom_site_type_symbol
 _atom_site_label
 _atom_site_symmetry_multiplicity
 _atom_site_fract_x
 _atom_site_fract_y
 _atom_site_fract_z
 _atom_site_occupancy
 _atom_site_hle17_ddec_charge
 _atom_site_hle17_ddec_spin_density
 _atom_site_hle17_ddec_sum_bond_order
 _atom_site_hle17_magmom
 _atom_site_hse06_10hf_ddec_charge
 _atom_site_hse06_10hf_ddec_spin_density
 _atom_site_hse06_10hf_ddec_sum_bond_order
 _atom_site_hse06_10hf_magmom
 _atom_site_hse06_ddec_charge
 _atom_site_hse06_ddec_spin_density
 _atom_site_hse06_ddec_sum_bond_order
 _atom_site_hse06_magmom
 _atom_site_pbe_cm5_charge
 _atom_site_pbe_ddec_charge
 _atom_site_pbe_ddec_spin_density
 _atom_site_pbe_ddec_sum_bond_order
 _atom_site_pbe_magmom
Cu  Cu0  1  0.13986553  0.56692413  0.97278428  1  0.850212  -0.6958  1.925967  -0.506  0.843938  -0.813653  2.334491  -0.652  0.945879  -0.899153  2.252864  -0.752  0.685564  0.777393  -0.71871  2.392964  -0.562
Cu  Cu1  1  0.86014212  0.43307634  0.02721347  1  0.850144  0.695766  1.925829  0.506  0.8437  0.81363  2.334437  0.652  0.945899  0.899151  2.252675  0.752  0.685481  0.777128  0.718695  2.393057  0.562
H  H2  1  0.25083088  0.89751131  0.20038148  1  0.09958  -0.000172  0.94297  0.0  0.110971  -0.000139  1.000266  0.0  0.114413  -8e-05  0.996916  0.0  0.106221  0.108439  -0.00018  1.002825  0.0
H  H3  1  0.74917294  0.10248630  0.79962364  1  0.09957  0.00017  0.943001  0.0  0.110952  0.000139  1.000302  0.0  0.114394  8e-05  0.996948  0.0  0.106222  0.108417  0.00018  1.002868  0.0
H  H4  1  0.69287212  0.74490177  0.20952179  1  0.104327  0.000204  0.946288  0.0  0.115251  0.000154  1.005448  0.0  0.118097  0.000108  1.002983  0.0  0.109475  0.113191  0.000175  1.007301  0.0
H  H5  1  0.30712376  0.25510708  0.79047632  1  0.104326  -0.0002  0.94624  0.0  0.115231  -0.000153  1.005435  0.0  0.118076  -0.000108  1.002972  0.0  0.109465  0.113177  -0.000175  1.007289  0.0
H  H6  1  0.70754282  0.93515297  0.33700660  1  0.103042  -7.2e-05  0.960739  0.0  0.114286  -6.6e-05  1.019273  0.0  0.11776  -4.2e-05  1.01791  0.0  0.102345  0.111845  -8e-05  1.020325  0.0
H  H7  1  0.29246551  0.06485496  0.66299316  1  0.103094  7.2e-05  0.960702  0.0  0.114329  6.6e-05  1.019236  0.0  0.117804  4.2e-05  1.017874  0.0  0.102388  0.11189  8e-05  1.020287  0.0
H  H8  1  0.26993648  0.09121999  0.33177276  1  0.103631  8.7e-05  0.962433  0.0  0.110608  7.7e-05  1.031448  0.0  0.114184  5e-05  1.029787  0.0  0.10158  0.108053  9.2e-05  1.032768  0.0
H  H9  1  0.73007253  0.90877481  0.66823531  1  0.103679  -8.6e-05  0.962416  0.0  0.110649  -7.7e-05  1.031425  0.0  0.114224  -5e-05  1.029759  0.0  0.1016  0.10809  -9.2e-05  1.032747  0.0
H  H10  1  0.81629199  0.07083516  0.49655059  1  0.042899  -7e-06  0.93506  0.0  0.057408  -2e-06  1.000429  0.0  0.057129  -1e-06  1.000714  0.0  0.094683  0.057528  -4e-06  1.000333  0.0
H  H11  1  0.18369853  0.92916436  0.50344405  1  0.042866  0.0  0.935145  0.0  0.057378  2e-06  1.000511  0.0  0.057098  1e-06  1.000799  0.0  0.094683  0.057497  4e-06  1.000415  0.0
H  H12  1  0.76052205  0.15097364  0.39996325  1  0.045346  -7e-06  0.923193  0.0  0.060513  -3e-06  0.985222  0.0  0.06036  -2e-06  0.984934  0.0  0.098388  0.060549  -4e-06  0.985472  0.0
H  H13  1  0.23947835  0.84902496  0.60003283  1  0.045325  -6e-06  0.923208  0.0  0.060504  3e-06  0.985216  0.0  0.060352  2e-06  0.98493  0.0  0.098391  0.060539  4e-06  0.985465  0.0
H  H14  1  0.99548989  0.34674599  0.50393261  1  0.08913  -7e-06  0.922366  0.0  0.1043  -3e-06  0.982487  0.0  0.106115  -2e-06  0.981229  0.0  0.098145  0.102915  -4e-06  0.983534  0.0
H  H15  1  0.00449804  0.65325350  0.49606627  1  0.089129  0.0  0.922336  0.0  0.104323  3e-06  0.982456  0.0  0.106125  2e-06  0.981191  0.0  0.098154  0.10293  4e-06  0.9835  0.0
H  H16  1  0.05452826  0.26685951  0.59750940  1  0.074604  -0.0  0.948988  0.0  0.091028  2e-06  1.013055  0.0  0.090867  2e-06  1.015219  0.0  0.091668  0.091125  3e-06  1.011604  0.0
H  H17  1  0.94546184  0.73313907  0.40248729  1  0.07462  -5e-06  0.948984  0.0  0.091094  -2e-06  1.013017  0.0  0.090922  -2e-06  1.015173  0.0  0.091717  0.091188  -3e-06  1.011562  0.0
H  H18  1  0.75507482  0.23496831  0.64513303  1  0.068807  -1.6e-05  0.943677  0.0  0.088572  -1e-05  1.001621  0.0  0.087995  -8e-06  1.003787  0.0  0.089594  0.088957  -1.1e-05  1.000141  0.0
H  H19  1  0.24492263  0.76502651  0.35486887  1  0.068721  2.1e-05  0.943776  0.0  0.088562  1e-05  1.001657  0.0  0.087984  8e-06  1.003825  0.0  0.089574  0.088942  1.1e-05  1.000173  0.0
H  H20  1  0.86525520  0.39407436  0.65721861  1  0.087601  3.2e-05  0.928766  0.0  0.104805  1.4e-05  0.987733  0.0  0.10542  1.8e-05  0.988466  0.0  0.096286  0.104284  8e-06  0.987373  0.0
H  H21  1  0.13472846  0.60592420  0.34277901  1  0.08767  -2.2e-05  0.92861  0.0  0.104845  -1.4e-05  0.987613  0.0  0.105462  -1.8e-05  0.988344  0.0  0.096298  0.104319  -8e-06  0.987252  0.0
H  H22  1  0.54794156  0.21971459  0.48610559  1  0.031802  -0.0  0.928933  0.0  0.047456  2e-06  0.993502  0.0  0.047632  2e-06  0.992149  0.0  0.090857  0.047261  2e-06  0.994518  0.0
H  H23  1  0.45204947  0.78028023  0.51389427  1  0.031751  -2e-06  0.928929  0.0  0.047442  -2e-06  0.993472  0.0  0.047619  -2e-06  0.992119  0.0  0.090837  0.047243  -2e-06  0.994485  0.0
H  H24  1  0.55249710  0.35434636  0.57957164  1  0.051358  3e-06  0.953606  0.0  0.065031  -2e-06  1.019597  0.0  0.06406  -2e-06  1.021756  0.0  0.098486  0.065641  -2e-06  1.01818  0.0
H  H25  1  0.44748682  0.64564101  0.42042417  1  0.051315  -3e-06  0.95359  0.0  0.065014  3e-06  1.019588  0.0  0.064043  2e-06  1.021749  0.0  0.09846  0.065617  2e-06  1.018179  0.0
H  H26  1  0.32632600  0.31752078  0.44146748  1  0.109108  -0.000106  0.97243  0.0  0.114532  -7.6e-05  1.043265  0.0  0.118502  -4.8e-05  1.041137  0.0  0.101927  0.111754  -9.7e-05  1.044834  0.0
H  H27  1  0.67367779  0.68247967  0.55853142  1  0.109165  0.00011  0.972311  0.0  0.114608  7.6e-05  1.043136  0.0  0.118578  4.8e-05  1.041009  0.0  0.101957  0.111828  9.7e-05  1.044708  0.0
H  H28  1  0.78563111  0.49829656  0.32355230  1  0.121854  0.000106  0.932907  0.0  0.134291  7.6e-05  0.988199  0.0  0.137701  4.4e-05  0.986958  0.0  0.111162  0.131908  0.000103  0.989177  0.0
H  H29  1  0.21437967  0.50169639  0.67645414  1  0.121826  -0.000103  0.932812  0.0  0.134271  -7.6e-05  0.988119  0.0  0.13768  -4.4e-05  0.986876  0.0  0.111158  0.131886  -0.000103  0.989096  0.0
H  H30  1  0.57987099  0.54009653  0.18683755  1  0.106403  -0.000226  0.97071  0.0  0.114155  -0.00016  1.037322  0.0  0.117731  -0.000114  1.033753  0.0  0.103538  0.111626  -0.000187  1.039911  0.0
H  H31  1  0.42015770  0.45990206  0.81316687  1  0.106433  0.000227  0.970644  0.0  0.114184  0.00016  1.037256  0.0  0.117758  0.000114  1.033687  0.0  0.10358  0.111656  0.000187  1.039842  0.0
H  H32  1  0.12287490  0.35726992  0.30296252  1  0.100587  0.000241  0.934367  0.0  0.111598  0.000183  0.99273  0.0  0.115446  0.000113  0.988853  0.0  0.105695  0.108811  0.000238  0.995584  0.0
H  H33  1  0.87713048  0.64273709  0.69703313  1  0.100577  -0.000244  0.934325  0.0  0.111508  -0.000184  0.992772  0.0  0.115352  -0.000113  0.988901  0.0  0.105677  0.108721  -0.000239  0.995626  0.0
H  H34  1  0.59155579  0.66083317  0.99759341  1  0.104366  -5.3e-05  0.935114  0.0  0.114366  7e-06  0.997065  0.0  0.117555  -5e-06  0.993572  0.0  0.135203  0.112022  1.8e-05  0.999618  0.0
H  H35  1  0.40842941  0.33917190  0.00240986  1  0.104314  5.2e-05  0.935244  0.0  0.114346  -7e-06  0.997167  0.0  0.117529  5e-06  0.993685  0.0  0.135215  0.112016  -1.8e-05  0.999701  0.0
H  H36  1  0.19241687  0.78676612  0.84662184  1  0.102462  1.8e-05  0.949684  0.0  0.114317  2e-05  1.006199  0.0  0.117852  2.5e-05  1.003577  0.0  0.114558  0.111731  1.2e-05  1.008193  0.0
H  H37  1  0.80757311  0.21323807  0.15337353  1  0.102477  -1.8e-05  0.949668  0.0  0.114289  -2e-05  1.006225  0.0  0.117807  -2.5e-05  1.003621  0.0  0.114545  0.111703  -1.2e-05  1.008217  0.0
H  H38  1  0.53165943  0.92741611  0.82703999  1  0.102991  1.5e-05  0.967782  0.0  0.117709  1.2e-05  1.023391  0.0  0.120817  1e-05  1.021208  0.0  0.116576  0.115472  1.3e-05  1.025039  0.0
H  H39  1  0.46833440  0.07258807  0.17295867  1  0.10308  -1.3e-05  0.96776  0.0  0.117743  -1.2e-05  1.023425  0.0  0.12085  -1e-05  1.021244  0.0  0.116578  0.115503  -1.3e-05  1.025069  0.0
H  H40  1  0.83928273  0.85255730  0.84632431  1  0.066016  -7e-06  0.93836  0.0  0.082876  0.0  1.003562  0.0  0.08309  1e-06  1.004576  0.0  0.103088  0.082605  -1e-06  1.003013  0.0
H  H41  1  0.16071115  0.14744405  0.15367760  1  0.066029  7e-06  0.93845  0.0  0.082873  -0.0  1.003675  0.0  0.083088  -1e-06  1.004689  0.0  0.103083  0.082596  1e-06  1.003118  0.0
H  H42  1  0.86894101  0.78148833  0.95040984  1  0.084541  9.2e-05  0.933897  0.0  0.101291  5.2e-05  0.994776  0.0  0.101933  5.3e-05  0.995149  0.0  0.112509  0.100692  4.5e-05  0.994775  0.0
H  H43  1  0.13104325  0.21850277  0.04958661  1  0.084541  -9.4e-05  0.93392  0.0  0.101274  -5.2e-05  0.994832  0.0  0.101924  -5.3e-05  0.995191  0.0  0.112511  0.100673  -4.5e-05  0.994828  0.0
H  H44  1  0.87083291  0.97410789  0.07456914  1  0.066412  -1.3e-05  0.945658  0.0  0.084032  -6e-06  1.009135  0.0  0.083882  -4e-06  1.011717  0.0  0.08807  0.084072  -7e-06  1.007403  0.0
H  H45  1  0.12916669  0.02588599  0.92543576  1  0.066341  1.2e-05  0.945829  0.0  0.083987  6e-06  1.009273  0.0  0.083839  4e-06  1.011857  0.0  0.088056  0.084028  7e-06  1.007543  0.0
H  H46  1  0.83780429  0.04709605  0.97173945  1  0.075684  2.4e-05  0.940739  0.0  0.092314  2.9e-05  1.004974  0.0  0.09321  1.2e-05  1.005272  0.0  0.092571  0.091619  4.5e-05  1.004844  0.0
H  H47  1  0.16220420  0.95290343  0.02826637  1  0.075646  -2.4e-05  0.940797  0.0  0.092246  -3e-05  1.005069  0.0  0.093142  -1.2e-05  1.005369  0.0  0.092538  0.091549  -4.5e-05  1.004936  0.0
C  C48  1  0.96897822  0.69411153  0.12211438  1  0.625831  -0.000484  3.901149  -0.001  0.587075  -0.000399  4.203416  -0.001  0.628425  -0.000412  4.197344  -0.001  0.204914  0.558765  -0.00033  4.207253  -0.001
C  C49  1  0.03103061  0.30589456  0.87788067  1  0.62594  0.00048  3.900966  0.001  0.587143  0.000399  4.203288  0.001  0.628492  0.000413  4.197217  0.001  0.204886  0.558832  0.000331  4.207133  0.001
C  C50  1  0.97167393  0.80886566  0.19730535  1  -0.087962  -0.000227  3.764035  0.0  -0.067303  0.00015  3.998245  0.0  -0.079199  0.000153  4.020818  0.0  -0.026965  -0.05876  0.000129  3.982798  0.0
C  C51  1  0.02833031  0.19113291  0.80269699  1  -0.087917  0.000213  3.763892  0.0  -0.06724  -0.00015  3.998071  0.0  -0.079137  -0.000154  4.020647  0.0  -0.026928  -0.058694  -0.000129  3.982633  0.0
C  C52  1  0.13371943  0.90769454  0.23164886  1  -0.04977  0.000376  3.77335  0.001  -0.073678  0.000338  4.023512  0.001  -0.069344  0.000223  4.041385  0.0  -0.083976  -0.076499  0.00038  4.01147  0.001
C  C53  1  0.86628094  0.09230401  0.76835537  1  -0.049755  -0.000353  3.773367  -0.001  -0.073645  -0.000337  4.023472  -0.001  -0.069307  -0.000223  4.041343  0.0  -0.083959  -0.076461  -0.000379  4.011435  -0.001
C  C54  1  0.81947298  0.82064027  0.23597958  1  -0.035114  -0.001093  3.741717  -0.001  -0.059226  -0.00074  3.990448  -0.001  -0.054437  -0.000542  4.00826  -0.001  -0.077989  -0.062406  -0.000828  3.978465  -0.001
C  C55  1  0.18052687  0.17936296  0.76402166  1  -0.035132  0.001103  3.74169  0.001  -0.059241  0.000741  3.990429  0.001  -0.054452  0.000543  4.008245  0.001  -0.078036  -0.062426  0.000828  3.978457  0.001
C  C56  1  0.82770864  0.92821181  0.30797429  1  -0.216204  -0.00074  3.768551  -0.001  -0.236144  -0.000356  4.022365  0.0  -0.244376  -0.000167  4.042388  0.0  -0.112029  -0.230736  -0.000486  4.008942  0.0
C  C57  1  0.17229554  0.07178956  0.69202776  1  -0.216445  0.000718  3.768492  0.001  -0.236344  0.000354  4.022312  0.0  -0.244574  0.000167  4.04233  0.0  -0.112088  -0.230926  0.000486  4.008897  0.0
C  C58  1  0.14479272  0.01416648  0.30411436  1  -0.204905  0.00092  3.774083  0.001  -0.226747  0.000426  4.036678  0.0  -0.23406  0.000284  4.055327  0.0  -0.11079  -0.221942  0.000512  4.024214  0.001
C  C59  1  0.85521277  0.98583205  0.69589477  1  -0.205056  -0.000939  3.774123  -0.001  -0.226845  -0.000426  4.03666  0.0  -0.234156  -0.000283  4.055317  0.0  -0.110783  -0.222028  -0.000512  4.024189  -0.001
C  C60  1  0.99173798  0.02483671  0.34352153  1  0.287975  -0.000531  3.822002  0.0  0.276385  -0.000214  4.081676  0.0  0.290443  -0.000163  4.097167  0.0  0.087861  0.266739  -0.000249  4.07118  0.0
C  C61  1  0.00826402  0.97516559  0.65648123  1  0.288326  0.000556  3.821502  0.001  0.276692  0.000215  4.081246  0.0  0.290748  0.000163  4.096738  0.0  0.087964  0.267039  0.000249  4.070771  0.0
C  C62  1  0.86871243  0.14921967  0.46132796  1  0.102574  5e-06  3.620709  0.0  0.041155  -7e-06  3.894613  0.0  0.04965  -4e-06  3.901117  0.0  -0.066481  0.035486  -9e-06  3.88996  0.0
C  C63  1  0.13129049  0.85078173  0.53866805  1  0.102663  3e-05  3.620722  0.0  0.041294  7e-06  3.894639  0.0  0.049771  4e-06  3.901133  0.0  -0.066399  0.035627  1e-05  3.889979  0.0
C  C64  1  0.94124944  0.27195090  0.54193229  1  -0.144334  8e-06  3.697678  0.0  -0.189191  -6e-06  3.967929  0.0  -0.190149  -3e-06  3.979899  0.0  -0.172972  -0.188469  -8e-06  3.959707  0.0
C  C65  1  0.05873889  0.72804952  0.45806751  1  -0.14441  1.5e-05  3.697636  0.0  -0.189357  6e-06  3.967995  0.0  -0.190255  3e-06  3.979886  0.0  -0.173054  -0.188611  7e-06  3.959728  0.0
C  C66  1  0.80063448  0.30445461  0.60052998  1  -0.132464  1.2e-05  3.679939  0.0  -0.174317  4e-06  3.943099  0.0  -0.175988  6e-06  3.957298  0.0  -0.163303  -0.17302  1e-06  3.933267  0.0
C  C67  1  0.19935484  0.69553927  0.39947181  1  -0.132445  -4.7e-05  3.679749  0.0  -0.174355  -3e-06  3.943013  0.0  -0.176043  -5e-06  3.957197  0.0  -0.163306  -0.173043  -1e-06  3.933139  0.0
C  C68  1  0.63430822  0.31264619  0.53237327  1  0.098491  -7e-06  3.631931  0.0  0.038485  -2e-06  3.901581  0.0  0.046997  -2e-06  3.908419  0.0  -0.067815  0.032798  -1e-06  3.896661  0.0
C  C69  1  0.36568241  0.68734770  0.46762567  1  0.098688  1.4e-05  3.631786  0.0  0.038638  1e-06  3.901414  0.0  0.047143  1e-06  3.908259  0.0  -0.067714  0.032982  1e-06  3.896475  0.0
C  C70  1  0.57064221  0.40685402  0.39182326  1  0.279539  0.00013  3.828595  0.0  0.266053  2.6e-05  4.093354  0.0  0.279941  2.6e-05  4.109056  0.0  0.086547  0.256631  3e-05  4.082647  0.0
C  C71  1  0.42935954  0.59314177  0.60817470  1  0.279532  -0.000136  3.828672  0.0  0.266096  -3e-05  4.09336  0.0  0.279979  -2.7e-05  4.109063  0.0  0.08657  0.256702  -2.9e-05  4.082647  0.0
C  C72  1  0.38352353  0.36594902  0.38614858  1  -0.222638  -0.000564  3.76907  -0.001  -0.245693  -0.000327  4.035606  0.0  -0.254046  -0.000193  4.055476  0.0  -0.11718  -0.240189  -0.000427  4.022193  0.0
C  C73  1  0.61647260  0.63404864  0.61384698  1  -0.222816  0.000548  3.769219  0.001  -0.245912  0.000331  4.035708  0.0  -0.254263  0.000194  4.055573  0.0  -0.117286  -0.240403  0.000427  4.022288  0.0
C  C74  1  0.64057857  0.47047316  0.31995180  1  -0.181235  0.000403  3.732742  0.0  -0.204218  0.000308  3.994763  0.0  -0.211852  0.000162  4.014203  0.0  -0.103118  -0.199245  0.000414  3.981699  0.0
C  C75  1  0.35943772  0.52952355  0.68005200  1  -0.181078  -0.000394  3.732708  0.0  -0.204113  -0.000305  3.994723  0.0  -0.211744  -0.00016  4.014165  0.0  -0.103044  -0.199138  -0.000415  3.981651  0.0
C  C76  1  0.52485517  0.49378544  0.24379073  1  -0.0442  0.001167  3.75555  0.002  -0.07171  0.00062  4.009041  0.001  -0.067366  0.00042  4.027321  0.001  -0.084948  -0.074502  0.000743  3.996675  0.001
C  C77  1  0.47516628  0.50621128  0.75621203  1  -0.044429  -0.001183  3.755488  -0.002  -0.071899  -0.00062  4.008959  -0.001  -0.067554  -0.00042  4.027237  -0.001  -0.085125  -0.074696  -0.000743  3.996599  -0.001
C  C78  1  0.26840371  0.38896118  0.30830676  1  -0.033631  -0.00097  3.745659  -0.001  -0.060553  -0.000595  4.002867  -0.001  -0.054682  -0.000403  4.018699  -0.001  -0.085986  -0.064351  -0.000701  3.992083  -0.001
C  C79  1  0.73160905  0.61104211  0.69168742  1  -0.033505  0.000973  3.745552  0.001  -0.060337  0.000595  4.002755  0.001  -0.054461  0.000403  4.018581  0.001  -0.085943  -0.06414  0.000701  3.991974  0.001
C  C80  1  0.33704380  0.45308439  0.23678522  1  -0.110628  -0.000869  3.798408  -0.001  -0.090512  -0.000368  4.035115  0.0  -0.103988  -0.000257  4.058974  0.0  -0.034186  -0.080991  -0.000373  4.018735  0.0
C  C81  1  0.66298101  0.54691704  0.76321117  1  -0.110573  0.000888  3.798219  0.001  -0.090503  0.000365  4.034964  0.0  -0.103979  0.000254  4.05882  0.0  -0.034067  -0.080974  0.000372  4.018588  0.0
C  C82  1  0.21452529  0.47369666  0.15127035  1  0.624634  0.000751  3.901462  0.001  0.587115  0.000307  4.202651  0.001  0.629417  0.000314  4.196085  0.001  0.205759  0.558158  0.000274  4.206459  0.001
C  C83  1  0.78549519  0.52630664  0.84872449  1  0.624597  -0.000768  3.901447  -0.001  0.58707  -0.000307  4.202667  -0.001  0.629372  -0.000314  4.196104  -0.001  0.205688  0.558109  -0.000274  4.206475  -0.001
C  C84  1  0.52616221  0.71440283  0.95532265  1  0.158903  0.000472  3.658876  0.0  0.106995  0.000368  3.923616  0.0  0.121321  0.000337  3.935868  0.0  0.140424  0.0979  0.000381  3.914952  0.0
C  C85  1  0.47381962  0.28560039  0.04467706  1  0.159034  -0.000472  3.658517  0.0  0.107056  -0.000367  3.92327  0.0  0.121388  -0.000335  3.935532  0.0  0.140406  0.097957  -0.00038  3.914608  0.0
C  C86  1  0.32607966  0.78235098  0.87565336  1  0.00057  0.000146  3.773049  0.0  -0.02786  0.000182  4.041746  0.0  -0.024514  0.000179  4.059397  0.0  -0.007434  -0.029968  0.000169  4.029782  0.0
C  C87  1  0.67390951  0.21765134  0.12434237  1  0.000757  -0.000143  3.77315  0.0  -0.02765  -0.000182  4.04177  0.0  -0.024281  -0.000179  4.059432  0.0  -0.007315  -0.029752  -0.000168  4.029799  0.0
C  C88  1  0.49167803  0.85128657  0.86428462  1  -0.090467  -1.6e-05  3.721798  0.0  -0.127632  -1.9e-05  3.971319  0.0  -0.125969  -3.2e-05  3.989184  0.0  -0.011127  -0.128653  -1e-05  3.95921  0.0
C  C89  1  0.50831370  0.14871574  0.13571356  1  -0.090714  4e-06  3.721833  0.0  -0.127842  1.8e-05  3.971361  0.0  -0.126177  3.3e-05  3.989213  0.0  -0.011211  -0.128856  1.1e-05  3.959245  0.0
C  C90  1  0.81204975  0.85069035  0.92392535  1  0.001594  8.8e-05  3.640704  0.0  -0.061359  5.9e-05  3.899766  0.0  -0.05704  5.6e-05  3.911156  0.0  -0.055004  -0.064189  5.4e-05  3.892052  0.0
C  C91  1  0.18793911  0.14930540  0.07607597  1  0.001548  -8.4e-05  3.640733  0.0  -0.061395  -5.8e-05  3.899788  0.0  -0.05708  -5.6e-05  3.911186  0.0  -0.055  -0.064193  -5.4e-05  3.89204  0.0
C  C92  1  0.89860002  0.97877171  0.99730807  1  -0.130956  2.7e-05  3.702397  0.0  -0.171666  2.3e-05  3.963988  0.0  -0.173502  1.3e-05  3.978318  0.0  -0.166886  -0.170225  3e-05  3.95406  0.0
C  C93  1  0.10140128  0.02122311  0.00269638  1  -0.13082  -2.4e-05  3.702572  0.0  -0.17153  -2.3e-05  3.964143  0.0  -0.173366  -1.3e-05  3.978479  0.0  -0.166878  -0.170092  -3e-05  3.954205  0.0
N  N94  1  0.34982921  0.69759764  0.93253367  1  -0.352345  0.001156  3.257603  0.0  -0.309392  0.000559  3.559733  0.0  -0.332178  0.000615  3.57353  0.0  -0.369422  -0.294372  0.000435  3.550952  0.0
N  N95  1  0.65016077  0.30240654  0.06746392  1  -0.35258  -0.001156  3.257449  0.0  -0.309508  -0.000561  3.559504  0.0  -0.332345  -0.000615  3.57333  0.0  -0.369454  -0.29448  -0.000437  3.550757  0.0
N  N96  1  0.61740785  0.80663541  0.91497348  1  -0.066232  -3.6e-05  3.600332  0.0  0.031364  5.1e-05  3.811018  0.0  0.016671  5.1e-05  3.837938  0.0  -0.2457  0.041067  4.7e-05  3.792634  0.0
N  N97  1  0.38258557  0.19336782  0.08502721  1  -0.066171  3.7e-05  3.600125  0.0  0.03144  -5.2e-05  3.810817  0.0  0.016749  -5.2e-05  3.837732  0.0  -0.245673  0.041138  -4.7e-05  3.792435  0.0
O  O98  1  0.09439127  0.70731162  0.07088341  1  -0.580078  -0.070891  2.101322  -0.094  -0.559871  -0.047116  2.378044  -0.069  -0.603232  -0.036503  2.370998  -0.056  -0.313886  -0.53108  -0.049708  2.38315  -0.069
O  O99  1  0.90561259  0.29268605  0.92911207  1  -0.580115  0.070916  2.101144  0.094  -0.559891  0.047131  2.37791  0.069  -0.603298  0.036509  2.370878  0.056  -0.313863  -0.531096  0.04972  2.383043  0.069
O  O100  1  0.84465014  0.59323344  0.11541265  1  -0.56105  0.075845  2.0636  0.101  -0.538081  0.050453  2.338802  0.074  -0.581574  0.038924  2.331949  0.06  -0.305944  -0.509492  0.053384  2.344003  0.075
O  O101  1  0.15534871  0.40677634  0.88458735  1  -0.561094  -0.075839  2.063581  -0.101  -0.538151  -0.050448  2.33885  -0.074  -0.581594  -0.038926  2.331972  -0.06  -0.305946  -0.509567  -0.053379  2.344035  -0.075
O  O102  1  0.01804155  0.13147247  0.41611848  1  -0.287802  -0.000262  2.320706  0.0  -0.212901  -9.3e-05  2.554697  0.0  -0.232591  -5.6e-05  2.557684  0.0  -0.176973  -0.199005  -0.000127  2.55206  0.0
O  O103  1  0.98196554  0.86853262  0.58388665  1  -0.287879  0.000257  2.320456  0.0  -0.213059  9.3e-05  2.554541  0.0  -0.23275  5.6e-05  2.557532  0.0  -0.17711  -0.199177  0.000127  2.551921  0.0
O  O104  1  0.69574448  0.38878124  0.46346878  1  -0.288831  4.6e-05  2.340237  0.0  -0.212311  1.8e-05  2.573446  0.0  -0.23209  1e-05  2.577142  0.0  -0.178044  -0.198393  2.6e-05  2.570369  0.0
O  O105  1  0.30424872  0.61121266  0.53653111  1  -0.288908  -4.5e-05  2.340138  0.0  -0.212393  -1.8e-05  2.573327  0.0  -0.232162  -1e-05  2.577018  0.0  -0.178102  -0.198542  -2.6e-05  2.570286  0.0
O  O106  1  0.04479470  0.42440947  0.14240792  1  -0.584196  0.073008  2.098068  0.096  -0.563396  0.048317  2.381243  0.07  -0.606999  0.036986  2.373329  0.056  -0.317507  -0.53398  0.053536  2.386525  0.074
O  O107  1  0.95522758  0.57558914  0.85759150  1  -0.584106  -0.07301  2.09795  -0.096  -0.563316  -0.048319  2.381154  -0.07  -0.606872  -0.036992  2.373225  -0.056  -0.317436  -0.533901  -0.053542  2.386411  -0.074
O  O108  1  0.28892133  0.53736699  0.09200328  1  -0.567809  -0.08357  2.085877  -0.11  -0.546407  -0.053731  2.362269  -0.078  -0.591327  -0.040854  2.355103  -0.063  -0.317982  -0.516471  -0.059209  2.367193  -0.083
O  O109  1  0.71108576  0.46264097  0.90798970  1  -0.567798  0.083585  2.085856  0.11  -0.54636  0.053738  2.362213  0.078  -0.591329  0.040854  2.355067  0.063  -0.318004  -0.516422  0.059212  2.367163  0.083
