# generated using pymatgen
data_AlH8C15ClO6
_symmetry_space_group_name_H-M   'P 1'
_cell_length_a   6.64978558
_cell_length_b   15.33068740
_cell_length_c   17.80786514
_cell_angle_alpha   86.78915475
_cell_angle_beta   79.10041557
_cell_angle_gamma   77.58758239
_symmetry_Int_Tables_number   1
_chemical_formula_structural   AlH8C15ClO6
_chemical_formula_sum   'Al2 H16 C30 Cl2 O12'
_cell_volume   1740.79391176
_cell_formula_units_Z   2
loop_
 _symmetry_equiv_pos_site_id
 _symmetry_equiv_pos_as_xyz
  1  'x, y, z'
loop_
 _atom_site_type_symbol
 _atom_site_label
 _atom_site_symmetry_multiplicity
 _atom_site_fract_x
 _atom_site_fract_y
 _atom_site_fract_z
 _atom_site_occupancy
 _atom_site_pbe_bader_charge
 _atom_site_pbe_bader_spin_density
 _atom_site_pbe_cm5_charge
 _atom_site_pbe_ddec_charge
 _atom_site_pbe_ddec_spin_density
 _atom_site_pbe_ddec_sum_bond_order
 _atom_site_pbe_magmom
Al  Al0  1  0.50074857  0.50013894  0.49981075  1  2.502782  0  0.400881  1.642327  0  2.572499  0
Al  Al1  1  0.00054651  0.50024360  0.50014628  1  2.503779  0  0.392363  1.652279  0  2.571429  0
H  H2  1  0.23434399  0.44107755  0.58702750  1  0.626946  0  0.353096  0.430478  0  0.853877  0
H  H3  1  0.76878151  0.55802428  0.41253125  1  0.620835  0  0.353192  0.430408  0  0.855079  0
H  H4  1  0.64121358  0.54187418  0.26837975  1  0.115153  0  0.108214  0.10968  0  1.004308  0
H  H5  1  0.71043704  0.55010907  0.12612150  1  0.07209  0  0.110333  0.117276  0  0.982599  0
H  H6  1  0.18569496  0.42605879  0.12492278  1  0.100969  0  0.110657  0.127367  0  0.988662  0
H  H7  1  0.80852874  0.57373227  0.87610539  1  0.101941  0  0.110819  0.127023  0  0.9885  0
H  H8  1  0.35828262  0.45762463  0.73054081  1  0.110515  0  0.10767  0.108348  0  1.004731  0
H  H9  1  0.28624229  0.44888726  0.87276304  1  0.07855  0  0.109466  0.11623  0  0.984601  0
H  H10  1  0.69963042  0.93729293  0.53513051  1  0.081346  0  0.106416  0.122041  0  1.016628  0
H  H11  1  0.30258506  0.06307077  0.46501087  1  0.070678  0  0.105909  0.122346  0  1.0162  0
H  H12  1  0.56584670  0.22903936  0.52233151  1  0.101883  0  0.106034  0.113701  0  1.015131  0
H  H13  1  0.63802501  0.06597231  0.52865367  1  0.04203  0  0.098149  0.100175  0  1.030839  0
H  H14  1  0.43624216  0.77114294  0.47743387  1  0.093565  0  0.105991  0.113871  0  1.014578  0
H  H15  1  0.36418637  0.93425080  0.47111437  1  0.044941  0  0.098936  0.101027  0  1.030352  0
H  H16  1  0.79661260  0.70454624  0.53661406  1  0.634606  0  0.314049  0.359432  0  0.956584  0
H  H17  1  0.20541248  0.29586121  0.46369091  1  0.664975  0  0.313459  0.359935  0  0.955406  0
C  C18  1  0.83898086  0.33749832  0.49517261  1  1.46786  0  0.259252  0.647938  0  4.094456  0
C  C19  1  0.66905674  0.51031005  0.63760260  1  1.603774  0  0.270974  0.661996  0  4.076991  0
C  C20  1  0.16276784  0.66281278  0.50485993  1  1.468148  0  0.25692  0.645814  0  4.09375  0
C  C21  1  0.33130918  0.48991066  0.36233909  1  1.601875  0  0.27087  0.66145  0  4.077009  0
C  C22  1  0.37094737  0.48429665  0.27728490  1  -0.0064  0  -0.014234  -0.101499  0  3.930378  0
C  C23  1  0.54075541  0.51799782  0.23608035  1  0.045554  0  -0.078349  -0.074234  0  4.007042  0
C  C24  1  0.58008635  0.52227310  0.15687854  1  -0.073938  0  -0.083486  -0.135457  0  3.946703  0
C  C25  1  0.44940789  0.49070808  0.11559832  1  0.095808  0  0.006775  0.165834  0  4.11117  0
C  C26  1  0.28377523  0.45327117  0.15602953  1  0.045532  0  -0.086174  -0.19975  0  3.916451  0
C  C27  1  0.24449940  0.45042229  0.23570184  1  0.024576  0  0.024133  0.141039  0  4.035281  0
C  C28  1  0.48300920  0.49649287  0.03483206  1  0.149048  0  -0.038555  -0.099543  0  4.099234  0
C  C29  1  0.51111987  0.50272959  0.96515226  1  -0.555866  0  -0.038791  -0.098164  0  4.098974  0
C  C30  1  0.54596807  0.50862115  0.88437512  1  0.155795  0  0.006845  0.163295  0  4.115609  0
C  C31  1  0.71171570  0.54640368  0.84452585  1  0.077115  0  -0.086949  -0.198049  0  3.918606  0
C  C32  1  0.75263293  0.54951460  0.76487063  1  -0.028766  0  0.026614  0.14374  0  4.033097  0
C  C33  1  0.62780219  0.51549916  0.72269722  1  -0.022701  0  -0.015602  -0.105498  0  3.931994  0
C  C34  1  0.45775734  0.48146631  0.76330706  1  -0.075535  0  -0.077149  -0.06952  0  4.005118  0
C  C35  1  0.41673948  0.47696575  0.84249880  1  0.07777  0  -0.08279  -0.135454  0  3.947698  0
C  C36  1  0.11325267  0.76075762  0.50624830  1  0.059354  0  -0.039841  -0.208834  0  4.001016  0
C  C37  1  0.88878730  0.23953584  0.49388896  1  0.010165  0  -0.042049  -0.210965  0  4.004685  0
C  C38  1  0.90354472  0.80988707  0.52307543  1  0.457003  0  0.094507  0.32487  0  4.064071  0
C  C39  1  0.86316321  0.90338164  0.52109989  1  0.03732  0  -0.103748  -0.255404  0  3.918814  0
C  C40  1  0.09855765  0.19046477  0.47715269  1  0.492901  0  0.093057  0.323772  0  4.065356  0
C  C41  1  0.13903388  0.09696078  0.47908319  1  0.039713  0  -0.103352  -0.256046  0  3.920235  0
C  C42  1  0.72702419  0.19168962  0.51132586  1  -0.075125  0  -0.081388  -0.04753  0  4.007686  0
C  C43  1  0.76917326  0.09940703  0.51402414  1  0.011602  0  -0.104921  -0.168151  0  3.999758  0
C  C44  1  0.27512398  0.80853995  0.48862831  1  -0.072528  0  -0.082687  -0.050312  0  4.007093  0
C  C45  1  0.23305811  0.90081858  0.48593832  1  -0.0145  0  -0.105826  -0.167279  0  3.99957  0
C  C46  1  0.02464811  0.95057630  0.50180835  1  0.07983  0  0.00208  0.101652  0  3.993067  0
C  C47  1  0.97765833  0.04970112  0.49828091  1  -0.035608  0  0.001692  0.102743  0  3.994699  0
Cl  Cl48  1  0.04253764  0.40027673  0.27984831  1  -0.17607  0  0.021879  -0.045457  0  1.533274  0
Cl  Cl49  1  0.95444342  0.60015104  0.72146102  1  -0.186634  0  0.019765  -0.047715  0  1.529643  0
O  O50  1  0.64838770  0.37851722  0.50812147  1  -1.266735  0  -0.238285  -0.589561  0  2.349404  0
O  O51  1  0.85932529  0.49395173  0.60363207  1  -1.258205  0  -0.236856  -0.605588  0  2.383775  0
O  O52  1  0.00581659  0.62293904  0.51589011  1  -1.258434  0  -0.240927  -0.618454  0  2.403226  0
O  O53  1  0.49036363  0.48111943  0.39444551  1  -1.249225  0  -0.233045  -0.585219  0  2.320055  0
O  O54  1  0.35327925  0.62173001  0.49150627  1  -1.266305  0  -0.238218  -0.588935  0  2.348187  0
O  O55  1  0.14138224  0.50663605  0.39661259  1  -1.258074  0  -0.236688  -0.605978  0  2.386879  0
O  O56  1  0.99578777  0.37742688  0.48444536  1  -1.265147  0  -0.243361  -0.621505  0  2.405508  0
O  O57  1  0.51067130  0.51914148  0.60515261  1  -1.249302  0  -0.232786  -0.585094  0  2.32305  0
O  O58  1  0.25287354  0.46036307  0.53385122  1  -1.432724  0  -0.44855  -0.988181  0  2.194356  0
O  O59  1  0.74870801  0.53987064  0.46599052  1  -1.426844  0  -0.44982  -0.989552  0  2.194519  0
O  O60  1  0.73749576  0.77021194  0.54109511  1  -1.140422  0  -0.34911  -0.442873  0  2.282862  0
O  O61  1  0.26457250  0.23019824  0.45922123  1  -1.173242  0  -0.347459  -0.442286  0  2.282901  0
