# generated using pymatgen
data_YbH7C7SO8
_symmetry_space_group_name_H-M   'P 1'
_cell_length_a   8.51114039
_cell_length_b   9.20802272
_cell_length_c   13.65385264
_cell_angle_alpha   102.00240995
_cell_angle_beta   90.00063960
_cell_angle_gamma   90.00054775
_symmetry_Int_Tables_number   1
_chemical_formula_structural   YbH7C7SO8
_chemical_formula_sum   'Yb4 H28 C28 S4 O32'
_cell_volume   1046.67019775
_cell_formula_units_Z   4
loop_
 _symmetry_equiv_pos_site_id
 _symmetry_equiv_pos_as_xyz
  1  'x, y, z'
loop_
 _atom_site_type_symbol
 _atom_site_label
 _atom_site_symmetry_multiplicity
 _atom_site_fract_x
 _atom_site_fract_y
 _atom_site_fract_z
 _atom_site_occupancy
 _atom_site_hle17_bader_spin_density
 _atom_site_hle17_ddec_charge
 _atom_site_hle17_ddec_spin_density
 _atom_site_hle17_ddec_sum_bond_order
 _atom_site_hle17_magmom
 _atom_site_hse06_10hf_bader_spin_density
 _atom_site_hse06_10hf_ddec_charge
 _atom_site_hse06_10hf_ddec_spin_density
 _atom_site_hse06_10hf_ddec_sum_bond_order
 _atom_site_hse06_10hf_magmom
 _atom_site_hse06_bader_spin_density
 _atom_site_hse06_ddec_charge
 _atom_site_hse06_ddec_spin_density
 _atom_site_hse06_ddec_sum_bond_order
 _atom_site_hse06_magmom
 _atom_site_pbe_bader_spin_density
 _atom_site_pbe_cm5_charge
 _atom_site_pbe_ddec_charge
 _atom_site_pbe_ddec_spin_density
 _atom_site_pbe_ddec_sum_bond_order
 _atom_site_pbe_magmom
Yb  Yb0  1  0.53717369  0.75661218  0.71694966  1  0  2.304552  0  1.595294  0  0  2.155088  0  2.069177  0  0  2.294315  0  1.857915  0  0  1.60931  2.123297  0  2.094987  0
Yb  Yb1  1  0.03716836  0.74339349  0.78305519  1  0  2.304516  0  1.595197  0  0  2.155041  0  2.069148  0  0  2.294291  0  1.857811  0  0  1.609277  2.123249  0  2.09496  0
Yb  Yb2  1  0.46282907  0.24338298  0.28305015  1  0  2.304576  0  1.595204  0  0  2.155119  0  2.069129  0  0  2.294368  0  1.857821  0  0  1.609301  2.123329  0  2.094939  0
Yb  Yb3  1  0.96282617  0.25660928  0.21694465  1  0  2.304543  0  1.595161  0  0  2.155067  0  2.069081  0  0  2.294313  0  1.857774  0  0  1.609315  2.123276  0  2.094893  0
H  H4  1  0.79428511  0.16849557  0.70514568  1  0  0.123396  0  0.938533  0  0  0.13537  0  0.992484  0  0  0.139128  0  0.991384  0  0  0.109992  0.133046  0  0.992747  0
H  H5  1  0.29427040  0.33150805  0.79484635  1  0  0.123405  0  0.93848  0  0  0.135366  0  0.992439  0  0  0.139122  0  0.991342  0  0  0.110022  0.13304  0  0.992702  0
H  H6  1  0.20572470  0.83150897  0.29485640  1  0  0.123407  0  0.938483  0  0  0.135407  0  0.992402  0  0  0.139166  0  0.991299  0  0  0.10999  0.133082  0  0.992664  0
H  H7  1  0.70574176  0.66847143  0.20513398  1  0  0.123343  0  0.938646  0  0  0.135409  0  0.992481  0  0  0.139168  0  0.99138  0  0  0.110039  0.133083  0  0.992745  0
H  H8  1  0.86511421  0.30709167  0.57340694  1  0  0.10558  0  0.933344  0  0  0.116601  0  0.991272  0  0  0.120231  0  0.987745  0  0  0.109803  0.114059  0  0.993415  0
H  H9  1  0.36510269  0.19291380  0.92658569  1  0  0.105547  0  0.933468  0  0  0.116587  0  0.99137  0  0  0.120215  0  0.987845  0  0  0.109785  0.114048  0  0.993508  0
H  H10  1  0.13488620  0.69292270  0.42659891  1  0  0.105535  0  0.933467  0  0  0.1166  0  0.991349  0  0  0.12023  0  0.987821  0  0  0.10976  0.114055  0  0.993498  0
H  H11  1  0.63489772  0.80706858  0.07340063  1  0  0.105533  0  0.933443  0  0  0.116606  0  0.991327  0  0  0.120238  0  0.987794  0  0  0.109791  0.114063  0  0.993471  0
H  H12  1  0.31517111  0.08790485  0.53898709  1  0  0.12613  0  0.933814  0  0  0.135621  0  0.992016  0  0  0.140323  0  0.986647  0  0  0.116447  0.132487  0  0.995315  0
H  H13  1  0.81516024  0.41209664  0.96100810  1  0  0.126018  0  0.933871  0  0  0.135546  0  0.992036  0  0  0.140229  0  0.986689  0  0  0.116388  0.132413  0  0.995331  0
H  H14  1  0.68483400  0.91209833  0.46101050  1  0  0.1261  0  0.93389  0  0  0.135621  0  0.992048  0  0  0.14031  0  0.986695  0  0  0.116472  0.132489  0  0.995345  0
H  H15  1  0.18483195  0.58790794  0.03899772  1  0  0.12607  0  0.933815  0  0  0.135538  0  0.992044  0  0  0.140238  0  0.986672  0  0  0.116402  0.132407  0  0.99534  0
H  H16  1  0.36313786  0.55430784  0.53658525  1  0  0.465272  0  0.817993  0  0  0.434864  0  0.879011  0  0  0.445919  0  0.862695  0  0  0.314014  0.427351  0  0.890133  0
H  H17  1  0.86313328  0.94569606  0.96341561  1  0  0.465402  0  0.817835  0  0  0.434955  0  0.878906  0  0  0.44601  0  0.86259  0  0  0.314031  0.427442  0  0.890028  0
H  H18  1  0.63686020  0.44569475  0.46341758  1  0  0.465311  0  0.817958  0  0  0.434916  0  0.87896  0  0  0.445971  0  0.862642  0  0  0.314021  0.427402  0  0.890083  0
H  H19  1  0.13685656  0.05430504  0.03658947  1  0  0.465341  0  0.817918  0  0  0.434904  0  0.878975  0  0  0.445961  0  0.862656  0  0  0.314028  0.427391  0  0.890097  0
H  H20  1  0.42112375  0.71019263  0.51948519  1  0  0.445882  0  0.797389  0  0  0.431701  0  0.842805  0  0  0.439645  0  0.835193  0  0  0.337362  0.426224  0  0.848952  0
H  H21  1  0.92112128  0.78981339  0.98051391  1  0  0.445917  0  0.797249  0  0  0.431739  0  0.842661  0  0  0.439682  0  0.835048  0  0  0.337383  0.426262  0  0.848809  0
H  H22  1  0.57887666  0.28981042  0.48051914  1  0  0.44592  0  0.797373  0  0  0.431721  0  0.84281  0  0  0.439664  0  0.835197  0  0  0.33737  0.426244  0  0.848957  0
H  H23  1  0.07887326  0.21018789  0.01948817  1  0  0.445955  0  0.797235  0  0  0.431774  0  0.84265  0  0  0.439719  0  0.835033  0  0  0.337396  0.426298  0  0.848796  0
H  H24  1  0.65309737  0.99418340  0.86731693  1  0  0.435384  0  0.864311  0  0  0.406609  0  0.925051  0  0  0.416508  0  0.910879  0  0  0.301078  0.399756  0  0.935074  0
H  H25  1  0.15308905  0.50583001  0.63268518  1  0  0.435407  0  0.864258  0  0  0.40662  0  0.925019  0  0  0.416518  0  0.910852  0  0  0.301092  0.399767  0  0.935044  0
H  H26  1  0.34689951  0.00581788  0.13268515  1  0  0.435383  0  0.864311  0  0  0.406596  0  0.92507  0  0  0.416496  0  0.910895  0  0  0.301072  0.399742  0  0.935094  0
H  H27  1  0.84690548  0.49417259  0.36731765  1  0  0.43544  0  0.864227  0  0  0.406648  0  0.924989  0  0  0.41655  0  0.910825  0  0  0.301095  0.399795  0  0.935014  0
H  H28  1  0.77920180  0.97755081  0.78011735  1  0  0.430131  0  0.880614  0  0  0.398252  0  0.946531  0  0  0.409993  0  0.930079  0  0  0.295395  0.389824  0  0.958766  0
H  H29  1  0.27919642  0.52245585  0.71988056  1  0  0.430179  0  0.880551  0  0  0.398303  0  0.946459  0  0  0.410045  0  0.930004  0  0  0.29545  0.389874  0  0.958694  0
H  H30  1  0.22079861  0.02245002  0.21988324  1  0  0.430096  0  0.880661  0  0  0.398224  0  0.946571  0  0  0.409966  0  0.930117  0  0  0.295378  0.389795  0  0.958806  0
H  H31  1  0.72080164  0.47754257  0.28011926  1  0  0.430174  0  0.880556  0  0  0.398292  0  0.94647  0  0  0.410036  0  0.930013  0  0  0.295431  0.389864  0  0.958704  0
C  C32  1  0.16423079  0.02934581  0.65044348  1  0  -0.214885  0  3.724744  0  0  -0.197734  0  3.970592  0  0  -0.214937  0  3.992447  0  0  -0.036358  -0.185889  0  3.954843  0
C  C33  1  0.66423853  0.47068286  0.84955950  1  0  -0.214507  0  3.724733  0  0  -0.197469  0  3.970679  0  0  -0.214677  0  3.992533  0  0  -0.036182  -0.185621  0  3.954929  0
C  C34  1  0.83576727  0.97066530  0.34956237  1  0  -0.214846  0  3.724692  0  0  -0.197808  0  3.970714  0  0  -0.215018  0  3.992566  0  0  -0.036424  -0.185964  0  3.954971  0
C  C35  1  0.33576540  0.52932666  0.15044110  1  0  -0.21469  0  3.724723  0  0  -0.197676  0  3.970634  0  0  -0.214881  0  3.992485  0  0  -0.036279  -0.18583  0  3.954889  0
C  C36  1  0.01326447  0.04725988  0.69720274  1  0  0.409833  0  3.806964  0  0  0.39064  0  4.066151  0  0  0.411981  0  4.079422  0  0  0.105321  0.376907  0  4.058133  0
C  C37  1  0.51327822  0.45274886  0.80279593  1  0  0.409584  0  3.807246  0  0  0.3905  0  4.066322  0  0  0.411847  0  4.079594  0  0  0.105299  0.37676  0  4.05831  0
C  C38  1  0.98672771  0.95274638  0.30279785  1  0  0.409717  0  3.807143  0  0  0.390536  0  4.066359  0  0  0.411884  0  4.079629  0  0  0.105277  0.376803  0  4.05834  0
C  C39  1  0.48673159  0.54724889  0.19720166  1  0  0.409648  0  3.807394  0  0  0.390658  0  4.066312  0  0  0.412003  0  4.079584  0  0  0.105333  0.37692  0  4.058299  0
C  C40  1  0.90869239  0.15190495  0.66860406  1  0  -0.188872  0  3.660088  0  0  -0.205477  0  3.91368  0  0  -0.215571  0  3.930813  0  0  -0.098724  -0.198868  0  3.900906  0
C  C41  1  0.40868792  0.34810144  0.83139044  1  0  -0.188838  0  3.659982  0  0  -0.205447  0  3.913548  0  0  -0.215542  0  3.930682  0  0  -0.098748  -0.198837  0  3.900779  0
C  C42  1  0.09131272  0.84810067  0.33139803  1  0  -0.188885  0  3.660007  0  0  -0.205501  0  3.913592  0  0  -0.215594  0  3.930721  0  0  -0.098686  -0.198891  0  3.900815  0
C  C43  1  0.59132424  0.65188076  0.16859888  1  0  -0.188841  0  3.6603  0  0  -0.205558  0  3.913825  0  0  -0.21565  0  3.93095  0  0  -0.098775  -0.198946  0  3.901054  0
C  C44  1  0.94711590  0.22807234  0.59477815  1  0  -0.000657  0  3.729936  0  0  -0.03162  0  3.988067  0  0  -0.023995  0  4.003352  0  0  -0.073891  -0.035501  0  3.976498  0
C  C45  1  0.44710722  0.27192619  0.90521441  1  0  -0.000617  0  3.730168  0  0  -0.031593  0  3.988309  0  0  -0.023964  0  4.003596  0  0  -0.073849  -0.035478  0  3.976738  0
C  C46  1  0.05288568  0.77193284  0.40522244  1  0  -0.000593  0  3.730156  0  0  -0.031586  0  3.98829  0  0  -0.023961  0  4.003582  0  0  -0.073863  -0.035463  0  3.97672  0
C  C47  1  0.55289554  0.72806241  0.09478166  1  0  -0.000553  0  3.730222  0  0  -0.031579  0  3.988412  0  0  -0.023953  0  4.003706  0  0  -0.07389  -0.035461  0  3.976837  0
C  C48  1  0.09384072  0.20295050  0.54655787  1  0  -0.180946  0  3.793402  0  0  -0.155769  0  4.053984  0  0  -0.168677  0  4.07615  0  0  -0.037485  -0.147127  0  4.038247  0
C  C49  1  0.59382257  0.29704864  0.95343921  1  0  -0.180945  0  3.793357  0  0  -0.155762  0  4.053949  0  0  -0.168674  0  4.076114  0  0  -0.037516  -0.147111  0  4.038191  0
C  C50  1  0.90616439  0.79705146  0.45344646  1  0  -0.180959  0  3.793446  0  0  -0.155812  0  4.05406  0  0  -0.168725  0  4.076229  0  0  -0.037483  -0.147178  0  4.038339  0
C  C51  1  0.40618137  0.70295019  0.04655838  1  0  -0.180991  0  3.793498  0  0  -0.155842  0  4.054134  0  0  -0.168759  0  4.076317  0  0  -0.037474  -0.147189  0  4.038375  0
C  C52  1  0.20108930  0.10699647  0.57533866  1  0  -0.019673  0  3.733667  0  0  -0.059665  0  3.986152  0  0  -0.050991  0  4.00149  0  0  -0.072146  -0.065042  0  3.974433  0
C  C53  1  0.70107873  0.39300442  0.92465408  1  0  -0.019758  0  3.733636  0  0  -0.059757  0  3.986175  0  0  -0.051063  0  4.001517  0  0  -0.072193  -0.065135  0  3.974451  0
C  C54  1  0.79891464  0.89300109  0.42466191  1  0  -0.019641  0  3.733638  0  0  -0.059612  0  3.986153  0  0  -0.050924  0  4.001494  0  0  -0.072179  -0.064985  0  3.974432  0
C  C55  1  0.29891933  0.60699985  0.07534352  1  0  -0.019718  0  3.733566  0  0  -0.059654  0  3.986087  0  0  -0.050972  0  4.001416  0  0  -0.072185  -0.065037  0  3.974367  0
C  C56  1  0.28866117  0.93235144  0.67517028  1  0  0.694929  0  3.88197  0  0  0.649902  0  4.166977  0  0  0.685827  0  4.167674  0  0  0.200761  0.624466  0  4.175071  0
C  C57  1  0.78866753  0.56765527  0.82482397  1  0  0.694913  0  3.881936  0  0  0.649885  0  4.167004  0  0  0.685809  0  4.167701  0  0  0.200683  0.624449  0  4.175103  0
C  C58  1  0.71133219  0.06763859  0.32481980  1  0  0.694982  0  3.881769  0  0  0.649986  0  4.166787  0  0  0.685913  0  4.167487  0  0  0.200787  0.624551  0  4.174883  0
C  C59  1  0.21133170  0.43234995  0.17518036  1  0  0.695055  0  3.881824  0  0  0.65004  0  4.166852  0  0  0.685965  0  4.167551  0  0  0.200764  0.624606  0  4.174953  0
S  S60  1  0.14735966  0.29692938  0.45228324  1  0  1.404694  0  5.523908  0  0  1.298749  0  6.044043  0  0  1.349258  0  6.02506  0  0  0.552761  1.264394  0  6.061911  0
S  S61  1  0.64735664  0.20306980  0.04771791  1  0  1.404819  0  5.523431  0  0  1.298934  0  6.04351  0  0  1.349446  0  6.024528  0  0  0.552842  1.264574  0  6.06138  0
S  S62  1  0.85263723  0.70307521  0.54772258  1  0  1.404757  0  5.523527  0  0  1.29885  0  6.043641  0  0  1.34936  0  6.024659  0  0  0.552833  1.264497  0  6.06151  0
S  S63  1  0.35263672  0.79693062  0.95228492  1  0  1.40489  0  5.523435  0  0  1.298927  0  6.043611  0  0  1.349444  0  6.024624  0  0  0.552789  1.26457  0  6.061476  0
O  O64  1  0.42442055  0.93350011  0.63676397  1  0  -0.672728  0  1.959287  0  0  -0.624462  0  2.189147  0  0  -0.65746  0  2.176319  0  0  -0.382071  -0.608628  0  2.196592  0
O  O65  1  0.92441466  0.56650319  0.86324039  1  0  -0.672685  0  1.959316  0  0  -0.624418  0  2.189185  0  0  -0.657413  0  2.176349  0  0  -0.382043  -0.608585  0  2.19663  0
O  O66  1  0.57558104  0.06649465  0.36323810  1  0  -0.672758  0  1.959094  0  0  -0.624504  0  2.18896  0  0  -0.657503  0  2.176131  0  0  -0.382092  -0.608671  0  2.196405  0
O  O67  1  0.07558340  0.43350117  0.13676469  1  0  -0.672814  0  1.959267  0  0  -0.624543  0  2.189128  0  0  -0.657543  0  2.176295  0  0  -0.38209  -0.608711  0  2.196575  0
O  O68  1  0.26551040  0.84288996  0.73664660  1  0  -0.875656  0  2.151773  0  0  -0.814152  0  2.415674  0  0  -0.864002  0  2.401319  0  0  -0.468878  -0.797072  0  2.424729  0
O  O69  1  0.76550019  0.65712004  0.76335195  1  0  -0.875727  0  2.151714  0  0  -0.81421  0  2.41562  0  0  -0.864058  0  2.401256  0  0  -0.468902  -0.797127  0  2.424666  0
O  O70  1  0.73449706  0.15710688  0.26334799  1  0  -0.87572  0  2.151685  0  0  -0.814198  0  2.415581  0  0  -0.864052  0  2.401222  0  0  -0.468879  -0.797116  0  2.424634  0
O  O71  1  0.23450140  0.34287992  0.23664937  1  0  -0.875704  0  2.151729  0  0  -0.814184  0  2.415617  0  0  -0.864033  0  2.401256  0  0  -0.46888  -0.797099  0  2.424665  0
O  O72  1  0.96785436  0.97073993  0.76404440  1  0  -0.750089  0  2.0876  0  0  -0.685883  0  2.330042  0  0  -0.72544  0  2.318206  0  0  -0.440997  -0.667387  0  2.334625  0
O  O73  1  0.46785052  0.52926419  0.73595433  1  0  -0.750079  0  2.087614  0  0  -0.685876  0  2.329985  0  0  -0.725435  0  2.318158  0  0  -0.441071  -0.667379  0  2.334569  0
O  O74  1  0.03215074  0.02926225  0.23596067  1  0  -0.749987  0  2.087709  0  0  -0.685759  0  2.330123  0  0  -0.725319  0  2.318291  0  0  -0.44095  -0.667264  0  2.334704  0
O  O75  1  0.53215812  0.47073178  0.26404100  1  0  -0.750014  0  2.087683  0  0  -0.68584  0  2.330009  0  0  -0.725404  0  2.318178  0  0  -0.441022  -0.667344  0  2.334593  0
O  O76  1  0.00865262  0.29535073  0.38726647  1  0  -0.769855  0  2.101055  0  0  -0.715513  0  2.387523  0  0  -0.750856  0  2.371495  0  0  -0.408256  -0.699407  0  2.395791  0
O  O77  1  0.50863904  0.20465822  0.11273130  1  0  -0.769915  0  2.100871  0  0  -0.715724  0  2.387584  0  0  -0.751069  0  2.371557  0  0  -0.408297  -0.699616  0  2.395847  0
O  O78  1  0.99135602  0.70464987  0.61273337  1  0  -0.769853  0  2.100932  0  0  -0.715551  0  2.387439  0  0  -0.75089  0  2.37141  0  0  -0.408233  -0.699442  0  2.395702  0
O  O79  1  0.49134844  0.79535084  0.88726780  1  0  -0.769933  0  2.100964  0  0  -0.715624  0  2.387507  0  0  -0.750969  0  2.371482  0  0  -0.408254  -0.699516  0  2.395773  0
O  O80  1  0.19152423  0.45021978  0.50002473  1  0  -0.68187  0  1.994431  0  0  -0.621796  0  2.23913  0  0  -0.642343  0  2.221425  0  0  -0.318288  -0.606881  0  2.250653  0
O  O81  1  0.69150418  0.04977277  0.99996940  1  0  -0.681929  0  1.994236  0  0  -0.621904  0  2.23901  0  0  -0.64245  0  2.221302  0  0  -0.318323  -0.606992  0  2.250532  0
O  O82  1  0.80847736  0.54978494  0.49997436  1  0  -0.681868  0  1.994337  0  0  -0.62183  0  2.239068  0  0  -0.642376  0  2.221356  0  0  -0.318263  -0.606916  0  2.25059  0
O  O83  1  0.30848096  0.95022439  0.00003341  1  0  -0.681963  0  1.994251  0  0  -0.621816  0  2.238907  0  0  -0.642376  0  2.221206  0  0  -0.318316  -0.606903  0  2.250429  0
O  O84  1  0.28024807  0.21214566  0.39932889  1  0  -0.760414  0  2.09118  0  0  -0.701297  0  2.37024  0  0  -0.736741  0  2.354046  0  0  -0.411348  -0.685851  0  2.380179  0
O  O85  1  0.78024694  0.28786160  0.10066666  1  0  -0.76034  0  2.091207  0  0  -0.701218  0  2.370237  0  0  -0.736663  0  2.354043  0  0  -0.411286  -0.685773  0  2.380175  0
O  O86  1  0.71974882  0.78786282  0.60067545  1  0  -0.760476  0  2.091172  0  0  -0.701337  0  2.370156  0  0  -0.736779  0  2.35396  0  0  -0.411423  -0.685893  0  2.380097  0
O  O87  1  0.21974524  0.71214271  0.89933468  1  0  -0.760422  0  2.091134  0  0  -0.701292  0  2.370142  0  0  -0.73673  0  2.353938  0  0  -0.411268  -0.685848  0  2.380084  0
O  O88  1  0.43691126  0.63711900  0.56075640  1  0  -0.902318  0  1.879858  0  0  -0.857201  0  2.079428  0  0  -0.886263  0  2.045004  0  0  -0.634509  -0.845372  0  2.098842  0
O  O89  1  0.93690650  0.86288895  0.93924508  1  0  -0.902493  0  1.879651  0  0  -0.857338  0  2.079275  0  0  -0.8864  0  2.044844  0  0  -0.63455  -0.84551  0  2.09869  0
O  O90  1  0.56309503  0.36287924  0.43924642  1  0  -0.902423  0  1.879841  0  0  -0.857292  0  2.079408  0  0  -0.886354  0  2.044979  0  0  -0.634534  -0.845464  0  2.098823  0
O  O91  1  0.06308803  0.13711495  0.06075850  1  0  -0.902445  0  1.879703  0  0  -0.85731  0  2.079312  0  0  -0.886375  0  2.044878  0  0  -0.634545  -0.845484  0  2.098726  0
O  O92  1  0.66308700  0.96886391  0.79376074  1  0  -0.927825  0  1.893847  0  0  -0.882803  0  2.095032  0  0  -0.915844  0  2.058251  0  0  -0.669285  -0.86876  0  2.11621  0
O  O93  1  0.16307912  0.53114611  0.70624069  1  0  -0.927855  0  1.893754  0  0  -0.882847  0  2.094977  0  0  -0.915889  0  2.05818  0  0  -0.66935  -0.868804  0  2.116157  0
O  O94  1  0.33691693  0.03113736  0.20624134  1  0  -0.927809  0  1.893887  0  0  -0.882786  0  2.095091  0  0  -0.915832  0  2.058307  0  0  -0.669269  -0.868743  0  2.116271  0
O  O95  1  0.83691777  0.46885277  0.29376063  1  0  -0.927885  0  1.893685  0  0  -0.882881  0  2.09497  0  0  -0.915917  0  2.058124  0  0  -0.669339  -0.868838  0  2.116151  0
