# generated using pymatgen
data_ZnH9C17O4
_symmetry_space_group_name_H-M   'P 1'
_cell_length_a   5.98650547
_cell_length_b   16.88000171
_cell_length_c   19.06473617
_cell_angle_alpha   70.87841436
_cell_angle_beta   80.96152170
_cell_angle_gamma   79.78756493
_symmetry_Int_Tables_number   1
_chemical_formula_structural   ZnH9C17O4
_chemical_formula_sum   'Zn4 H36 C68 O16'
_cell_volume   1781.21468373
_cell_formula_units_Z   4
loop_
 _symmetry_equiv_pos_site_id
 _symmetry_equiv_pos_as_xyz
  1  'x, y, z'
loop_
 _atom_site_type_symbol
 _atom_site_label
 _atom_site_symmetry_multiplicity
 _atom_site_fract_x
 _atom_site_fract_y
 _atom_site_fract_z
 _atom_site_occupancy
 _atom_site_pbe_bader_charge
 _atom_site_pbe_bader_spin_density
 _atom_site_pbe_cm5_charge
 _atom_site_pbe_ddec_charge
 _atom_site_pbe_ddec_spin_density
 _atom_site_pbe_ddec_sum_bond_order
 _atom_site_pbe_magmom
Zn  Zn0  1  0.72844485  0.03210719  0.01401105  1  1.31101  0  0.69169  0.920196  0  2.345601  0
Zn  Zn1  1  0.77445462  0.46782786  0.48607815  1  1.310147  0  0.692009  0.919707  0  2.345966  0
Zn  Zn2  1  0.27154868  0.96786702  0.98600422  1  1.311193  0  0.691776  0.920278  0  2.345235  0
Zn  Zn3  1  0.22564717  0.53220026  0.51389966  1  1.310137  0  0.692077  0.919851  0  2.345872  0
H  H4  1  0.46980096  0.94582249  0.79348587  1  0.106772  0  0.108094  0.113883  0  1.000707  0
H  H5  1  0.20866064  0.55430106  0.70650195  1  0.106099  0  0.108149  0.113722  0  1.0003  0
H  H6  1  0.53016354  0.05420239  0.20650639  1  0.106561  0  0.108112  0.113882  0  1.000868  0
H  H7  1  0.79134342  0.44566386  0.29347714  1  0.106361  0  0.108167  0.113753  0  1.000156  0
H  H8  1  0.58287450  0.95271024  0.66009405  1  0.064054  0  0.0992  0.098642  0  1.013345  0
H  H9  1  0.19508539  0.54735687  0.83992974  1  0.045041  0  0.099344  0.098378  0  1.013309  0
H  H10  1  0.41713331  0.04732543  0.33988968  1  0.063056  0  0.099306  0.09863  0  1.013377  0
H  H11  1  0.80483934  0.45258845  0.16005235  1  0.044458  0  0.099379  0.098537  0  1.01287  0
H  H12  1  0.18458196  0.05979414  0.66032777  1  0.046523  0  0.101237  0.10432  0  1.014083  0
H  H13  1  0.90424985  0.44055126  0.83963238  1  0.037178  0  0.101051  0.104439  0  1.01461  0
H  H14  1  0.81548513  0.94021225  0.33969641  1  0.046941  0  0.101309  0.104393  0  1.014229  0
H  H15  1  0.09566302  0.55942045  0.16037683  1  0.036819  0  0.101054  0.104471  0  1.014251  0
H  H16  1  0.06075991  0.05887570  0.79206420  1  0.092668  0  0.109797  0.118292  0  0.986343  0
H  H17  1  0.91149004  0.44143612  0.70789617  1  0.111801  0  0.110043  0.118909  0  0.986265  0
H  H18  1  0.93924092  0.94112687  0.20796457  1  0.092974  0  0.109749  0.118315  0  0.986493  0
H  H19  1  0.08851734  0.55855077  0.29211158  1  0.11211  0  0.110081  0.118973  0  0.986155  0
H  H20  1  0.57864850  0.30176884  0.59139481  1  0.090243  0  0.107007  0.116409  0  1.001411  0
H  H21  1  0.47144207  0.19861603  0.90822790  1  0.09289  0  0.107265  0.116871  0  1.000751  0
H  H22  1  0.42142130  0.69826548  0.40860388  1  0.090401  0  0.10713  0.116472  0  1.001441  0
H  H23  1  0.52848897  0.80137975  0.09177082  1  0.092942  0  0.107273  0.116794  0  1.000668  0
H  H24  1  0.85125201  0.17405753  0.58736389  1  0.074937  0  0.101096  0.102827  0  1.027615  0
H  H25  1  0.61217409  0.32625171  0.91246556  1  0.06245  0  0.100859  0.102434  0  1.028299  0
H  H26  1  0.14883501  0.82597616  0.41263617  1  0.074149  0  0.101205  0.10274  0  1.028086  0
H  H27  1  0.38772294  0.67375861  0.08753234  1  0.062521  0  0.10081  0.10238  0  1.028505  0
H  H28  1  0.21683336  0.90313653  0.60205017  1  0.066775  0  0.103658  0.109843  0  1.002291  0
H  H29  1  0.72272186  0.59675803  0.89804953  1  0.069479  0  0.103816  0.110388  0  1.001482  0
H  H30  1  0.78325898  0.09690096  0.39794694  1  0.066992  0  0.103531  0.109681  0  1.002101  0
H  H31  1  0.27716628  0.40322007  0.10194709  1  0.070167  0  0.103977  0.110685  0  1.001612  0
H  H32  1  0.13395957  0.23858448  0.46709298  1  0.089847  0  0.107202  0.114242  0  1.000449  0
H  H33  1  0.83890872  0.26170459  0.03246990  1  0.098221  0  0.107041  0.113841  0  1.000453  0
H  H34  1  0.86615632  0.76144296  0.53289372  1  0.08964  0  0.107294  0.1144  0  1.000335  0
H  H35  1  0.16099444  0.73825638  0.96753977  1  0.097972  0  0.107174  0.114002  0  1.000504  0
H  H36  1  0.40171464  0.10800507  0.46542522  1  0.081804  0  0.097139  0.097067  0  1.023832  0
H  H37  1  0.97431263  0.39223135  0.03428870  1  0.046606  0  0.09728  0.097497  0  1.024157  0
H  H38  1  0.59839174  0.89201724  0.53457657  1  0.08107  0  0.097174  0.097019  0  1.02391  0
H  H39  1  0.02554530  0.60774227  0.96571920  1  0.047465  0  0.097122  0.097308  0  1.024297  0
C  C40  1  0.62389261  0.97187470  0.76337835  1  -0.040756  0  -0.079551  -0.077976  0  3.97165  0
C  C41  1  0.35872090  0.52829493  0.73661726  1  -0.004635  0  -0.080015  -0.078961  0  3.970185  0
C  C42  1  0.37611657  0.02814950  0.23662487  1  -0.039725  0  -0.079435  -0.077759  0  3.971797  0
C  C43  1  0.64125171  0.47167877  0.26337565  1  -0.00398  0  -0.079987  -0.078824  0  3.969983  0
C  C44  1  0.68820010  0.97537357  0.68933641  1  -0.033056  0  -0.090786  -0.138834  0  3.992903  0
C  C45  1  0.35240086  0.52476919  0.81066953  1  -0.018099  0  -0.090573  -0.137488  0  3.992579  0
C  C46  1  0.31183699  0.02465699  0.31065774  1  -0.033791  0  -0.090973  -0.138669  0  3.993397  0
C  C47  1  0.64752987  0.47518872  0.18932173  1  -0.018421  0  -0.090663  -0.137819  0  3.991707  0
C  C48  1  0.02719171  0.03512786  0.68944505  1  0.008509  0  -0.089785  -0.140893  0  3.969732  0
C  C49  1  0.75137520  0.46517521  0.81050967  1  -0.055333  0  -0.088941  -0.140301  0  3.972338  0
C  C50  1  0.97281955  0.96487732  0.31056930  1  0.008425  0  -0.089694  -0.140657  0  3.970201  0
C  C51  1  0.24858323  0.53479209  0.18949738  1  -0.054607  0  -0.089207  -0.140424  0  3.971304  0
C  C52  1  0.95877924  0.03466066  0.76300216  1  -0.084631  0  -0.075854  -0.073629  0  3.947581  0
C  C53  1  0.75615928  0.46562860  0.73695653  1  -0.047396  0  -0.076481  -0.075058  0  3.947885  0
C  C54  1  0.04119645  0.96534068  0.23702199  1  -0.085187  0  -0.075795  -0.073574  0  3.94807  0
C  C55  1  0.24384844  0.53435260  0.26305127  1  -0.048336  0  -0.076381  -0.075079  0  3.947404  0
C  C56  1  0.95154401  0.00779984  0.57263118  1  -0.067751  0  -0.003915  0.024952  0  3.986443  0
C  C57  1  0.53166471  0.49233004  0.92732144  1  -0.02472  0  -0.004262  0.025172  0  3.986422  0
C  C58  1  0.04854314  0.99221991  0.42737603  1  -0.066864  0  -0.003819  0.025053  0  3.985615  0
C  C59  1  0.46820968  0.50763921  0.07267635  1  -0.026492  0  -0.004711  0.024739  0  3.987517  0
C  C60  1  0.54067516  0.25873085  0.56428797  1  0.015039  0  -0.07745  -0.070105  0  3.946333  0
C  C61  1  0.36314472  0.24161958  0.93534243  1  -0.034521  0  -0.078303  -0.070705  0  3.945807  0
C  C62  1  0.45939928  0.74129970  0.43570789  1  0.01477  0  -0.0776  -0.070123  0  3.946764  0
C  C63  1  0.63677697  0.75835976  0.06465731  1  -0.035354  0  -0.078138  -0.070133  0  3.94562  0
C  C64  1  0.67658019  0.00135087  0.87862700  1  1.554321  0  0.225715  0.607144  0  4.148259  0
C  C65  1  0.55637577  0.49880260  0.62135197  1  1.556243  0  0.225041  0.604906  0  4.148453  0
C  C66  1  0.32342030  0.99864492  0.12137121  1  1.5542  0  0.225694  0.606781  0  4.147773  0
C  C67  1  0.44368360  0.50120597  0.37861848  1  1.556365  0  0.224842  0.605117  0  4.149157  0
C  C68  1  0.75681553  0.00280947  0.80032135  1  0.030448  0  -0.018383  -0.041311  0  3.973866  0
C  C69  1  0.55964076  0.49741025  0.69965342  1  -0.005246  0  -0.018099  -0.039622  0  3.970402  0
C  C70  1  0.24315823  0.99719693  0.19969934  1  0.030466  0  -0.018492  -0.041649  0  3.97301  0
C  C71  1  0.44037994  0.50257667  0.30034785  1  -0.005198  0  -0.018112  -0.039811  0  3.971274  0
C  C72  1  0.19274525  0.36011138  0.52310863  1  1.54079  0  0.220667  0.600045  0  4.156524  0
C  C73  1  0.07548899  0.14009599  0.97666255  1  1.556453  0  0.221466  0.601417  0  4.155702  0
C  C74  1  0.80733778  0.63991795  0.47687820  1  1.541605  0  0.221057  0.600293  0  4.156357  0
C  C75  1  0.92450993  0.85988141  0.02334574  1  1.55636  0  0.221624  0.601457  0  4.155022  0
C  C76  1  0.64795023  0.13255738  0.52512568  1  -0.038547  0  -0.003316  0.076932  0  3.997444  0
C  C77  1  0.30494923  0.36771361  0.97464823  1  -0.069736  0  -0.003334  0.077552  0  3.998065  0
C  C78  1  0.35213636  0.86746809  0.47487520  1  -0.043671  0  -0.003136  0.077045  0  3.996928  0
C  C79  1  0.69492198  0.63227900  0.02535140  1  -0.054746  0  -0.003253  0.077326  0  3.998407  0
C  C80  1  0.69224656  0.18679245  0.56229356  1  -0.034417  0  -0.086321  -0.124114  0  3.95875  0
C  C81  1  0.44072923  0.31352786  0.93744531  1  0.019039  0  -0.085526  -0.123578  0  3.958523  0
C  C82  1  0.30783360  0.81323177  0.43770435  1  -0.033639  0  -0.08647  -0.124027  0  3.959216  0
C  C83  1  0.55915885  0.68646032  0.06255576  1  0.003209  0  -0.085703  -0.123754  0  3.959269  0
C  C84  1  0.34090352  0.27828924  0.52878341  1  -0.021189  0  -0.021339  -0.044308  0  3.97842  0
C  C85  1  0.14736199  0.22204235  0.97081780  1  0.000784  0  -0.020815  -0.043946  0  3.976057  0
C  C86  1  0.65918756  0.72173691  0.47120759  1  -0.020159  0  -0.021378  -0.044513  0  3.978834  0
C  C87  1  0.85257846  0.77792749  0.02918578  1  0.001859  0  -0.02105  -0.04454  0  3.97663  0
C  C88  1  0.89015580  0.00696964  0.65149279  1  -0.051636  0  -0.000896  0.082051  0  4.005342  0
C  C89  1  0.54818729  0.49324461  0.84846392  1  -0.027176  0  -0.001204  0.081083  0  4.009061  0
C  C90  1  0.10989830  0.99305083  0.34849707  1  -0.050712  0  -0.000911  0.081761  0  4.004909  0
C  C91  1  0.45174514  0.50672218  0.15152104  1  -0.02718  0  -0.001115  0.081036  0  4.008897  0
C  C92  1  0.12562512  0.94736494  0.55646663  1  -0.056811  0  -0.086961  -0.172219  0  3.966169  0
C  C93  1  0.62969019  0.55257034  0.94360387  1  -0.071455  0  -0.087048  -0.173673  0  3.965957  0
C  C94  1  0.87446973  0.05266235  0.44354693  1  -0.058058  0  -0.086872  -0.172072  0  3.965783  0
C  C95  1  0.37016648  0.44740201  0.05640340  1  -0.071796  0  -0.086959  -0.173567  0  3.966623  0
C  C96  1  0.82291541  0.06229286  0.51497291  1  0.037427  0  -0.004698  0.024392  0  3.981888  0
C  C97  1  0.39959690  0.43788998  0.98493635  1  0.003054  0  -0.004847  0.024678  0  3.980579  0
C  C98  1  0.17717183  0.93773251  0.48504579  1  0.042416  0  -0.004884  0.024238  0  3.981881  0
C  C99  1  0.60024643  0.56209182  0.01507678  1  0.003958  0  -0.004605  0.025122  0  3.980203  0
C  C100  1  0.29073886  0.22307959  0.49390121  1  -0.065697  0  -0.081753  -0.08424  0  3.977311  0
C  C101  1  0.00698651  0.27724495  0.00569251  1  -0.069505  0  -0.081852  -0.083341  0  3.9757  0
C  C102  1  0.70936217  0.77694276  0.50609299  1  -0.066931  0  -0.081718  -0.08439  0  3.977373  0
C  C103  1  0.99292927  0.72272743  0.99430954  1  -0.068779  0  -0.081766  -0.083134  0  3.976087  0
C  C104  1  0.44216062  0.15079642  0.49245393  1  -0.057187  0  -0.093126  -0.140092  0  3.985342  0
C  C105  1  0.08463962  0.34949052  0.00722844  1  -0.014  0  -0.093168  -0.141445  0  3.986477  0
C  C106  1  0.55792292  0.84922336  0.50754717  1  -0.055739  0  -0.093397  -0.140216  0  3.985525  0
C  C107  1  0.91523410  0.65049070  0.99277539  1  -0.014942  0  -0.093197  -0.141354  0  3.986561  0
O  O108  1  0.75562889  0.04981236  0.90517836  1  -1.15684  0  -0.310961  -0.554397  0  2.362681  0
O  O109  1  0.71049870  0.45028402  0.59487537  1  -1.158893  0  -0.310996  -0.55356  0  2.362647  0
O  O110  1  0.24433660  0.95017830  0.09483260  1  -1.156641  0  -0.311015  -0.554268  0  2.362689  0
O  O111  1  0.28958606  0.54971568  0.40510102  1  -1.158337  0  -0.310989  -0.553643  0  2.362339  0
O  O112  1  0.24017006  0.40760487  0.55743964  1  -1.177398  0  -0.320203  -0.570469  0  2.381297  0
O  O113  1  0.20495879  0.09246176  0.94250452  1  -1.174518  0  -0.320303  -0.571206  0  2.380768  0
O  O114  1  0.75989252  0.59242508  0.44255020  1  -1.178643  0  -0.320351  -0.570407  0  2.380953  0
O  O115  1  0.79501380  0.90751817  0.05750339  1  -1.174369  0  -0.320276  -0.571178  0  2.380716  0
O  O116  1  0.53232164  0.95076791  0.91417947  1  -1.178169  0  -0.315616  -0.546776  0  2.370467  0
O  O117  1  0.39710962  0.54935927  0.58577366  1  -1.179342  0  -0.314821  -0.54544  0  2.37093  0
O  O118  1  0.46770222  0.04922468  0.08582472  1  -1.178039  0  -0.315613  -0.54654  0  2.370437  0
O  O119  1  0.60296297  0.45067394  0.41419635  1  -1.180288  0  -0.314673  -0.545485  0  2.370979  0
O  O120  1  0.02996162  0.37918294  0.48177225  1  -1.147001  0  -0.312177  -0.532107  0  2.335602  0
O  O121  1  0.89032993  0.12110089  0.01800196  1  -1.160598  0  -0.312131  -0.532614  0  2.337252  0
O  O122  1  0.97013578  0.62084329  0.51820581  1  -1.147182  0  -0.312483  -0.532255  0  2.33536  0
O  O123  1  0.10969539  0.87886065  0.98201842  1  -1.160158  0  -0.312149  -0.532495  0  2.336835  0
