# generated using pymatgen
data_Zn3P2H8(C3O5)2
_symmetry_space_group_name_H-M   'P 1'
_cell_length_a   8.27672302
_cell_length_b   8.53923643
_cell_length_c   9.33264930
_cell_angle_alpha   90.00018975
_cell_angle_beta   89.99993811
_cell_angle_gamma   105.91834676
_symmetry_Int_Tables_number   1
_chemical_formula_structural   Zn3P2H8(C3O5)2
_chemical_formula_sum   'Zn6 P4 H16 C12 O20'
_cell_volume   634.30924187
_cell_formula_units_Z   2
loop_
 _symmetry_equiv_pos_site_id
 _symmetry_equiv_pos_as_xyz
  1  'x, y, z'
loop_
 _atom_site_type_symbol
 _atom_site_label
 _atom_site_symmetry_multiplicity
 _atom_site_fract_x
 _atom_site_fract_y
 _atom_site_fract_z
 _atom_site_occupancy
 _atom_site_pbe_bader_spin_density
 _atom_site_pbe_cm5_charge
 _atom_site_pbe_ddec_charge
 _atom_site_pbe_ddec_spin_density
 _atom_site_pbe_ddec_sum_bond_order
 _atom_site_pbe_magmom
Zn  Zn0  1  0.41875602  0.88070533  0.11955772  1  0  0.724309  1.020168  0  2.205612  0
Zn  Zn1  1  0.58125193  0.61929380  0.61955890  1  0  0.724262  1.020163  0  2.205707  0
Zn  Zn2  1  0.58124566  0.11929530  0.88044120  1  0  0.72431  1.020166  0  2.205611  0
Zn  Zn3  1  0.41874664  0.38070442  0.38044217  1  0  0.724272  1.020187  0  2.205568  0
Zn  Zn4  1  0.49999864  0.50000003  0.00000049  1  0  0.711748  1.137621  0  2.185018  0
Zn  Zn5  1  0.50000201  0.00000190  0.50000032  1  0  0.711729  1.137617  0  2.185019  0
P  P6  1  0.63588106  0.74173971  0.29019705  1  0  0.342719  1.349285  0  5.255006  0
P  P7  1  0.36412240  0.75826130  0.79019886  1  0  0.342821  1.349466  0  5.254966  0
P  P8  1  0.36412027  0.25825971  0.70980508  1  0  0.342755  1.349302  0  5.255029  0
P  P9  1  0.63587703  0.24173569  0.20980113  1  0  0.342775  1.349408  0  5.255068  0
H  H10  1  0.87662621  0.85730843  0.15002683  1  0  0.111757  0.154594  0  0.966198  0
H  H11  1  0.12336365  0.64269093  0.65002961  1  0  0.111766  0.154656  0  0.966166  0
H  H12  1  0.12336648  0.14268616  0.84996673  1  0  0.111742  0.154612  0  0.966176  0
H  H13  1  0.87663060  0.35730487  0.34997574  1  0  0.111773  0.154637  0  0.966159  0
H  H14  1  0.85510627  0.65014955  0.18586309  1  0  0.109337  0.15784  0  0.998381  0
H  H15  1  0.14489549  0.84985352  0.68586753  1  0  0.109324  0.157834  0  0.998383  0
H  H16  1  0.14489521  0.34984620  0.81413476  1  0  0.109342  0.157835  0  0.998339  0
H  H17  1  0.85510358  0.15014225  0.31413568  1  0  0.109324  0.157819  0  0.998432  0
H  H18  1  0.95573849  0.92625750  0.41078779  1  0  0.106209  0.122064  0  0.990209  0
H  H19  1  0.04427119  0.57374878  0.91079901  1  0  0.106189  0.122023  0  0.990095  0
H  H20  1  0.04426079  0.07374315  0.58920470  1  0  0.106181  0.122054  0  0.990164  0
H  H21  1  0.95572532  0.42625066  0.08920634  1  0  0.106206  0.122034  0  0.990129  0
H  H22  1  0.94637648  0.72288818  0.44541968  1  0  0.10602  0.128501  0  0.990338  0
H  H23  1  0.05362992  0.77711947  0.94542292  1  0  0.10597  0.128411  0  0.990445  0
H  H24  1  0.05363229  0.27711606  0.55457281  1  0  0.105978  0.128449  0  0.990428  0
H  H25  1  0.94637141  0.22287995  0.05458350  1  0  0.105966  0.128449  0  0.990347  0
C  C26  1  0.84951193  0.76504584  0.23521581  1  0  -0.169563  -0.430356  0  3.928201  0
C  C27  1  0.15049153  0.73495496  0.73521561  1  0  -0.169558  -0.430417  0  3.928192  0
C  C28  1  0.15048905  0.23495236  0.76478204  1  0  -0.169553  -0.430343  0  3.928148  0
C  C29  1  0.84950427  0.26504205  0.26478973  1  0  -0.16952  -0.43032  0  3.928064  0
C  C30  1  0.97176600  0.81498998  0.35982888  1  0  -0.15851  -0.253521  0  3.92067  0
C  C31  1  0.02823539  0.68501251  0.85983295  1  0  -0.158492  -0.253479  0  3.920605  0
C  C32  1  0.02823483  0.18501188  0.64016682  1  0  -0.158503  -0.253536  0  3.920718  0
C  C33  1  0.97176750  0.31498811  0.14017240  1  0  -0.158526  -0.253554  0  3.920461  0
C  C34  1  0.15656942  0.85037467  0.32114901  1  0  0.224539  0.662906  0  4.107817  0
C  C35  1  0.84343368  0.64962523  0.82116609  1  0  0.224583  0.662914  0  4.108097  0
C  C36  1  0.84343111  0.14963451  0.67884241  1  0  0.224535  0.662791  0  4.108237  0
C  C37  1  0.15656921  0.35037540  0.17884034  1  0  0.224525  0.662729  0  4.108329  0
O  O38  1  0.58687922  0.59902744  0.40134751  1  0  -0.376905  -0.75987  0  2.431576  0
O  O39  1  0.41312331  0.90096666  0.90134433  1  0  -0.376977  -0.759917  0  2.431695  0
O  O40  1  0.41312296  0.40097075  0.59865355  1  0  -0.376922  -0.759861  0  2.431589  0
O  O41  1  0.58688008  0.09903152  0.09865351  1  0  -0.376998  -0.759954  0  2.431702  0
O  O42  1  0.51787595  0.69850001  0.15660047  1  0  -0.367817  -0.776699  0  2.394244  0
O  O43  1  0.48212732  0.80149562  0.65660122  1  0  -0.367834  -0.77677  0  2.394214  0
O  O44  1  0.48212212  0.30150064  0.84340166  1  0  -0.367839  -0.776738  0  2.394328  0
O  O45  1  0.51786934  0.19850016  0.34339663  1  0  -0.367754  -0.776706  0  2.394322  0
O  O46  1  0.62474748  0.90126542  0.35616892  1  0  -0.37106  -0.79711  0  2.401189  0
O  O47  1  0.37525074  0.59872609  0.85616809  1  0  -0.371042  -0.797148  0  2.401223  0
O  O48  1  0.37525762  0.09873031  0.64383536  1  0  -0.371035  -0.797115  0  2.401331  0
O  O49  1  0.62475024  0.40127210  0.14383190  1  0  -0.371079  -0.797169  0  2.401166  0
O  O50  1  0.19350048  0.85988691  0.18626876  1  0  -0.324948  -0.567166  0  2.30849  0
O  O51  1  0.80650128  0.64011617  0.68626870  1  0  -0.325037  -0.567283  0  2.308119  0
O  O52  1  0.80649920  0.14012350  0.81372373  1  0  -0.324944  -0.567144  0  2.308541  0
O  O53  1  0.19349463  0.35989792  0.31373879  1  0  -0.325078  -0.567242  0  2.308183  0
O  O54  1  0.26009165  0.86848690  0.42223496  1  0  -0.311954  -0.579437  0  2.346588  0
O  O55  1  0.73991811  0.63150722  0.92222959  1  0  -0.311867  -0.579272  0  2.347277  0
O  O56  1  0.73991385  0.13151859  0.57775753  1  0  -0.311858  -0.579264  0  2.346878  0
O  O57  1  0.26008437  0.36848364  0.07777362  1  0  -0.311792  -0.57914  0  2.347238  0
