# generated using pymatgen
data_Zn3P2H10C4(N5O4)2
_symmetry_space_group_name_H-M   'P 1'
_cell_length_a   5.20615947
_cell_length_b   9.88115750
_cell_length_c   15.31958403
_cell_angle_alpha   76.66984960
_cell_angle_beta   80.21916377
_cell_angle_gamma   74.72455730
_symmetry_Int_Tables_number   1
_chemical_formula_structural   Zn3P2H10C4(N5O4)2
_chemical_formula_sum   'Zn6 P4 H20 C8 N20 O16'
_cell_volume   734.74131956
_cell_formula_units_Z   2
loop_
 _symmetry_equiv_pos_site_id
 _symmetry_equiv_pos_as_xyz
  1  'x, y, z'
loop_
 _atom_site_type_symbol
 _atom_site_label
 _atom_site_symmetry_multiplicity
 _atom_site_fract_x
 _atom_site_fract_y
 _atom_site_fract_z
 _atom_site_occupancy
 _atom_site_hle17_bader_spin_density
 _atom_site_hle17_ddec_charge
 _atom_site_hle17_ddec_spin_density
 _atom_site_hle17_ddec_sum_bond_order
 _atom_site_hle17_magmom
 _atom_site_hse06_10hf_bader_spin_density
 _atom_site_hse06_10hf_ddec_charge
 _atom_site_hse06_10hf_ddec_spin_density
 _atom_site_hse06_10hf_ddec_sum_bond_order
 _atom_site_hse06_10hf_magmom
 _atom_site_hse06_bader_spin_density
 _atom_site_hse06_ddec_charge
 _atom_site_hse06_ddec_spin_density
 _atom_site_hse06_ddec_sum_bond_order
 _atom_site_hse06_magmom
 _atom_site_pbe_bader_spin_density
 _atom_site_pbe_cm5_charge
 _atom_site_pbe_ddec_charge
 _atom_site_pbe_ddec_spin_density
 _atom_site_pbe_ddec_sum_bond_order
 _atom_site_pbe_magmom
Zn  Zn0  1  0.88321570  0.82966981  0.53406237  1  0  1.180814  0  1.804623  0  0  1.007967  0  2.283955  0  0  1.050583  0  2.223783  0  0  0.708895  0.978136  0  2.325466  0
Zn  Zn1  1  0.24677152  0.67040774  0.96588591  1  0  1.182407  0  1.802914  0  0  1.009663  0  2.282011  0  0  1.05222  0  2.221954  0  0  0.708819  0.979123  0  2.324093  0
Zn  Zn2  1  0.11678852  0.17033062  0.46593642  1  0  1.180808  0  1.804684  0  0  1.007945  0  2.284017  0  0  1.050568  0  2.22384  0  0  0.708891  0.978113  0  2.325528  0
Zn  Zn3  1  0.75322690  0.32959160  0.03411540  1  0  1.182384  0  1.802915  0  0  1.009677  0  2.282028  0  0  1.052223  0  2.221963  0  0  0.708821  0.979131  0  2.324106  0
Zn  Zn4  1  0.27363434  0.25002069  0.74996702  1  0  1.065336  0  1.878835  0  0  0.8764  0  2.364637  0  0  0.917385  0  2.31173  0  0  0.739866  0.847555  0  2.40133  0
Zn  Zn5  1  0.72636390  0.74998080  0.25003131  1  0  1.065315  0  1.878894  0  0  0.8764  0  2.364702  0  0  0.917372  0  2.311794  0  0  0.739865  0.847546  0  2.401387  0
P  P6  1  0.42363887  0.87591788  0.41651889  1  0  1.722746  0  4.992989  0  0  1.537177  0  5.506567  0  0  1.595096  0  5.455097  0  0  0.372171  1.496716  0  5.541734  0
P  P7  1  0.71599507  0.62409770  0.08354536  1  0  1.723495  0  4.991593  0  0  1.537699  0  5.505473  0  0  1.595616  0  5.454007  0  0  0.372427  1.497117  0  5.540375  0
P  P8  1  0.57636302  0.12407828  0.58347879  1  0  1.722714  0  4.993011  0  0  1.537121  0  5.506627  0  0  1.594983  0  5.455345  0  0  0.372151  1.496679  0  5.54175  0
P  P9  1  0.28399979  0.37590165  0.91645366  1  0  1.723586  0  4.991373  0  0  1.537809  0  5.505214  0  0  1.595736  0  5.453739  0  0  0.372484  1.497224  0  5.540123  0
H  H10  1  0.65049643  0.41084034  0.78083093  1  0  0.33195  0  0.906232  0  0  0.305325  0  0.97452  0  0  0.314822  0  0.966885  0  0  0.322277  0.298731  0  0.979774  0
H  H11  1  0.84184934  0.08941642  0.71912738  1  0  0.332223  0  0.906398  0  0  0.305762  0  0.974487  0  0  0.315284  0  0.966831  0  0  0.322  0.299057  0  0.979917  0
H  H12  1  0.34949587  0.58915795  0.21916734  1  0  0.331928  0  0.906266  0  0  0.305376  0  0.974482  0  0  0.314872  0  0.966838  0  0  0.322265  0.298782  0  0.979738  0
H  H13  1  0.15815455  0.91058720  0.28087387  1  0  0.332228  0  0.906393  0  0  0.305757  0  0.974502  0  0  0.315297  0  0.966844  0  0  0.322009  0.29905  0  0.979931  0
H  H14  1  0.30047539  0.65873211  0.75489917  1  0  0.352222  0  0.89189  0  0  0.328829  0  0.962605  0  0  0.336259  0  0.956597  0  0  0.30538  0.323648  0  0.966715  0
H  H15  1  0.71377869  0.84145313  0.74500097  1  0  0.351844  0  0.89274  0  0  0.328699  0  0.963197  0  0  0.336117  0  0.957188  0  0  0.305287  0.323395  0  0.967532  0
H  H16  1  0.69952498  0.34126724  0.24510019  1  0  0.35221  0  0.891904  0  0  0.328818  0  0.962623  0  0  0.336248  0  0.956615  0  0  0.305367  0.323637  0  0.966732  0
H  H17  1  0.28622945  0.15854943  0.25499856  1  0  0.351857  0  0.89271  0  0  0.328664  0  0.963221  0  0  0.336081  0  0.957216  0  0  0.305271  0.323359  0  0.967557  0
H  H18  1  0.35495644  0.77294692  0.65038701  1  0  0.359933  0  0.862994  0  0  0.342775  0  0.922139  0  0  0.349952  0  0.916173  0  0  0.315598  0.337673  0  0.926451  0
H  H19  1  0.77813676  0.72718000  0.84950900  1  0  0.35893  0  0.863495  0  0  0.34205  0  0.922471  0  0  0.349194  0  0.916571  0  0  0.315467  0.336977  0  0.926764  0
H  H20  1  0.64504274  0.22705243  0.34961158  1  0  0.359909  0  0.862849  0  0  0.342757  0  0.921997  0  0  0.349933  0  0.916031  0  0  0.315579  0.337656  0  0.926305  0
H  H21  1  0.22186587  0.27282256  0.15049019  1  0  0.358865  0  0.863527  0  0  0.342001  0  0.922488  0  0  0.349146  0  0.916588  0  0  0.315453  0.336953  0  0.92674  0
H  H22  1  0.45294340  0.42450864  0.59284509  1  0  0.333072  0  0.901748  0  0  0.315844  0  0.964428  0  0  0.32316  0  0.958358  0  0  0.305905  0.31073  0  0.968675  0
H  H23  1  0.47029909  0.07547194  0.90711091  1  0  0.332934  0  0.901458  0  0  0.31575  0  0.964023  0  0  0.323032  0  0.957988  0  0  0.305894  0.310518  0  0.968427  0
H  H24  1  0.54705152  0.57549177  0.40715521  1  0  0.333042  0  0.901722  0  0  0.315875  0  0.964323  0  0  0.32319  0  0.958258  0  0  0.305922  0.31076  0  0.968569  0
H  H25  1  0.52969881  0.92452953  0.09289363  1  0  0.332924  0  0.901556  0  0  0.315741  0  0.964118  0  0  0.323021  0  0.958088  0  0  0.305909  0.310509  0  0.968522  0
H  H26  1  0.35276567  0.60565674  0.54260068  1  0  0.340013  0  0.920736  0  0  0.320009  0  0.986637  0  0  0.32759  0  0.980471  0  0  0.300526  0.314652  0  0.990991  0
H  H27  1  0.50085022  0.89432593  0.95736204  1  0  0.339006  0  0.92126  0  0  0.31921  0  0.987109  0  0  0.326794  0  0.980925  0  0  0.30003  0.313867  0  0.99128  0
H  H28  1  0.64723362  0.39433940  0.45739960  1  0  0.339888  0  0.920754  0  0  0.319876  0  0.98669  0  0  0.327461  0  0.980521  0  0  0.300443  0.31452  0  0.991043  0
H  H29  1  0.49914919  0.10567234  0.04264083  1  0  0.338949  0  0.921366  0  0  0.319228  0  0.987125  0  0  0.326812  0  0.980942  0  0  0.30005  0.313885  0  0.991297  0
C  C30  1  0.66739765  0.60811599  0.68512769  1  0  0.628994  0  3.82542  0  0  0.565065  0  4.113952  0  0  0.59273  0  4.119552  0  0  0.348477  0.546611  0  4.109734  0
C  C31  1  0.96026706  0.89207778  0.81480636  1  0  0.630112  0  3.824207  0  0  0.567091  0  4.111656  0  0  0.594738  0  4.117248  0  0  0.349407  0.54847  0  4.107585  0
C  C32  1  0.33259537  0.39188336  0.31487121  1  0  0.628842  0  3.825671  0  0  0.56491  0  4.114246  0  0  0.59257  0  4.119859  0  0  0.348347  0.546462  0  4.110018  0
C  C33  1  0.03973474  0.10792371  0.18519427  1  0  0.630093  0  3.82385  0  0  0.567062  0  4.111314  0  0  0.594713  0  4.116945  0  0  0.349413  0.548446  0  4.107239  0
C  C34  1  0.06957562  0.52203235  0.62716838  1  0  0.61166  0  3.875698  0  0  0.558536  0  4.158144  0  0  0.584742  0  4.16512  0  0  0.332648  0.540849  0  4.153116  0
C  C35  1  0.21868155  0.97803143  0.87274125  1  0  0.612961  0  3.876547  0  0  0.559952  0  4.158816  0  0  0.586205  0  4.165705  0  0  0.333007  0.542146  0  4.153546  0
C  C36  1  0.93042209  0.47796915  0.37282854  1  0  0.611771  0  3.875659  0  0  0.558431  0  4.158383  0  0  0.584638  0  4.165366  0  0  0.332675  0.540743  0  4.153353  0
C  C37  1  0.78131048  0.02197112  0.12726076  1  0  0.612924  0  3.87619  0  0  0.559872  0  4.15855  0  0  0.586129  0  4.165428  0  0  0.332963  0.542064  0  4.15328  0
N  N38  1  0.86171057  0.64056422  0.61801318  1  0  -0.639371  0  3.078209  0  0  -0.558316  0  3.37602  0  0  -0.583877  0  3.375015  0  0  -0.370104  -0.540971  0  3.376389  0
N  N39  1  0.12007457  0.85954311  0.88189337  1  0  -0.639492  0  3.078387  0  0  -0.55871  0  3.375734  0  0  -0.584385  0  3.374776  0  0  -0.370461  -0.541137  0  3.37604  0
N  N40  1  0.13828565  0.35943620  0.38198582  1  0  -0.639298  0  3.07819  0  0  -0.558156  0  3.376061  0  0  -0.583704  0  3.375032  0  0  -0.370055  -0.540814  0  3.376427  0
N  N41  1  0.87991818  0.14046373  0.11810550  1  0  -0.639551  0  3.078073  0  0  -0.558762  0  3.375472  0  0  -0.584421  0  3.374505  0  0  -0.37051  -0.541192  0  3.375777  0
N  N42  1  0.75498128  0.47593421  0.73213138  1  0  -0.276289  0  3.319273  0  0  -0.218636  0  3.558053  0  0  -0.234552  0  3.569536  0  0  -0.285486  -0.208252  0  3.550295  0
N  N43  1  0.96269466  0.02426579  0.76783273  1  0  -0.277824  0  3.322008  0  0  -0.220298  0  3.55987  0  0  -0.236205  0  3.571199  0  0  -0.286214  -0.209952  0  3.552356  0
N  N44  1  0.24501700  0.52406301  0.26786736  1  0  -0.276185  0  3.3193  0  0  -0.218648  0  3.558072  0  0  -0.234564  0  3.569566  0  0  -0.285413  -0.208267  0  3.550311  0
N  N45  1  0.03730674  0.97573783  0.23216906  1  0  -0.277831  0  3.321828  0  0  -0.220266  0  3.559665  0  0  -0.236265  0  3.571101  0  0  -0.286182  -0.209919  0  3.552142  0
N  N46  1  0.01283075  0.41983493  0.69592786  1  0  -0.40288  0  3.117669  0  0  -0.345875  0  3.429746  0  0  -0.364108  0  3.434326  0  0  -0.290179  -0.333618  0  3.42666  0
N  N47  1  0.12842109  0.08028115  0.80402361  1  0  -0.40335  0  3.120445  0  0  -0.346161  0  3.431778  0  0  -0.364368  0  3.436386  0  0  -0.28951  -0.333447  0  3.428406  0
N  N48  1  0.98716457  0.58016336  0.30407129  1  0  -0.402995  0  3.117767  0  0  -0.345874  0  3.429924  0  0  -0.364107  0  3.434505  0  0  -0.29023  -0.333612  0  3.426827  0
N  N49  1  0.87157662  0.91971925  0.19598171  1  0  -0.403357  0  3.120111  0  0  -0.346192  0  3.431502  0  0  -0.364369  0  3.436128  0  0  -0.289557  -0.333476  0  3.428125  0
N  N50  1  0.43019721  0.69790746  0.70343915  1  0  -0.701515  0  3.053743  0  0  -0.661149  0  3.296937  0  0  -0.680678  0  3.290892  0  0  -0.576316  -0.647589  0  3.300822  0
N  N51  1  0.83115953  0.80230960  0.79648177  1  0  -0.700506  0  3.054598  0  0  -0.661294  0  3.297811  0  0  -0.6808  0  3.291862  0  0  -0.576272  -0.647786  0  3.301923  0
N  N52  1  0.56979718  0.30209297  0.29655974  1  0  -0.701459  0  3.053682  0  0  -0.661091  0  3.29689  0  0  -0.68062  0  3.290846  0  0  -0.576254  -0.647533  0  3.300772  0
N  N53  1  0.16884494  0.19769296  0.20351753  1  0  -0.700373  0  3.054414  0  0  -0.661112  0  3.297704  0  0  -0.680606  0  3.29176  0  0  -0.57619  -0.647631  0  3.301776  0
N  N54  1  0.30259696  0.51047519  0.57254785  1  0  -0.702881  0  3.086709  0  0  -0.667778  0  3.326844  0  0  -0.68765  0  3.321738  0  0  -0.592404  -0.654053  0  3.330236  0
N  N55  1  0.38555259  0.98953412  0.92737644  1  0  -0.703114  0  3.086608  0  0  -0.66845  0  3.326729  0  0  -0.688248  0  3.32153  0  0  -0.59242  -0.654251  0  3.32963  0
N  N56  1  0.69740798  0.48952630  0.42745158  1  0  -0.702727  0  3.086574  0  0  -0.667623  0  3.326763  0  0  -0.687499  0  3.321663  0  0  -0.592324  -0.653901  0  3.330153  0
N  N57  1  0.61442966  0.01046950  0.07262695  1  0  -0.702971  0  3.086827  0  0  -0.668357  0  3.326874  0  0  -0.68816  0  3.321679  0  0  -0.592416  -0.654159  0  3.329774  0
O  O58  1  0.27803213  0.80924209  0.50781116  1  0  -0.936171  0  1.994265  0  0  -0.830566  0  2.280035  0  0  -0.859249  0  2.251592  0  0  -0.386366  -0.810335  0  2.299382  0
O  O59  1  0.59473320  0.69078058  0.99228709  1  0  -0.936432  0  1.992425  0  0  -0.831262  0  2.278801  0  0  -0.859877  0  2.25027  0  0  -0.387135  -0.810774  0  2.297959  0
O  O60  1  0.72197630  0.19075833  0.49218928  1  0  -0.936229  0  1.994321  0  0  -0.830584  0  2.280059  0  0  -0.859287  0  2.251663  0  0  -0.386386  -0.810358  0  2.299403  0
O  O61  1  0.40526763  0.30921771  0.00771240  1  0  -0.936451  0  1.992305  0  0  -0.83132  0  2.278706  0  0  -0.859928  0  2.25016  0  0  -0.387176  -0.810835  0  2.297868  0
O  O62  1  0.40996281  0.79391072  0.34132795  1  0  -0.894837  0  1.96424  0  0  -0.789861  0  2.238562  0  0  -0.819309  0  2.214117  0  0  -0.388654  -0.769173  0  2.254901  0
O  O63  1  0.54509156  0.70601904  0.15877162  1  0  -0.895395  0  1.963761  0  0  -0.789999  0  2.237689  0  0  -0.819496  0  2.213335  0  0  -0.388316  -0.769261  0  2.254448  0
O  O64  1  0.59004277  0.20608755  0.65867460  1  0  -0.894846  0  1.964011  0  0  -0.789852  0  2.238315  0  0  -0.819292  0  2.213885  0  0  -0.388654  -0.76917  0  2.254663  0
O  O65  1  0.45490170  0.29398245  0.84122779  1  0  -0.895426  0  1.963834  0  0  -0.789975  0  2.237726  0  0  -0.819508  0  2.213401  0  0  -0.38832  -0.769235  0  2.254484  0
O  O66  1  0.72127166  0.85939483  0.42499584  1  0  -0.911107  0  1.993727  0  0  -0.819697  0  2.303846  0  0  -0.847689  0  2.274238  0  0  -0.397661  -0.799974  0  2.323925  0
O  O67  1  0.00549572  0.64076428  0.07499139  1  0  -0.91143  0  1.993784  0  0  -0.82015  0  2.304315  0  0  -0.848166  0  2.274709  0  0  -0.397521  -0.800259  0  2.324178  0
O  O68  1  0.27873422  0.14060452  0.57500385  1  0  -0.911065  0  1.993832  0  0  -0.819655  0  2.303954  0  0  -0.847638  0  2.274364  0  0  -0.397612  -0.79993  0  2.324024  0
O  O69  1  0.99449577  0.35923828  0.92500919  1  0  -0.911403  0  1.993651  0  0  -0.820164  0  2.304199  0  0  -0.848175  0  2.274587  0  0  -0.397518  -0.800272  0  2.324059  0
O  O70  1  0.27828223  0.03446805  0.38553086  1  0  -0.928747  0  1.994736  0  0  -0.827716  0  2.29092  0  0  -0.856389  0  2.263462  0  0  -0.394655  -0.807452  0  2.309346  0
O  O71  1  0.69855027  0.46548149  0.11450614  1  0  -0.9293  0  1.993461  0  0  -0.827908  0  2.28951  0  0  -0.856451  0  2.261775  0  0  -0.394423  -0.807703  0  2.308459  0
O  O72  1  0.72172181  0.96553130  0.61446872  1  0  -0.928725  0  1.994805  0  0  -0.827709  0  2.291013  0  0  -0.856373  0  2.263576  0  0  -0.394654  -0.807447  0  2.309436  0
O  O73  1  0.30144418  0.53452000  0.88549404  1  0  -0.929356  0  1.993427  0  0  -0.827957  0  2.28946  0  0  -0.8565  0  2.261724  0  0  -0.394413  -0.807754  0  2.308415  0
