# generated using pymatgen
data_Co3H16C16(OF)18
_symmetry_space_group_name_H-M   'P 1'
_cell_length_a   9.31207934
_cell_length_b   8.97706877
_cell_length_c   12.36189063
_cell_angle_alpha   93.20704517
_cell_angle_beta   105.05673673
_cell_angle_gamma   102.47037450
_symmetry_Int_Tables_number   1
_chemical_formula_structural   Co3H16C16(OF)18
_chemical_formula_sum   'Co3 H16 C16 O18 F18'
_cell_volume   967.47069056
_cell_formula_units_Z   1
loop_
 _symmetry_equiv_pos_site_id
 _symmetry_equiv_pos_as_xyz
  1  'x, y, z'
loop_
 _atom_site_type_symbol
 _atom_site_label
 _atom_site_symmetry_multiplicity
 _atom_site_fract_x
 _atom_site_fract_y
 _atom_site_fract_z
 _atom_site_occupancy
 _atom_site_pbe_bader_charge
 _atom_site_pbe_bader_spin_density
 _atom_site_pbe_cm5_charge
 _atom_site_pbe_ddec_charge
 _atom_site_pbe_ddec_spin_density
 _atom_site_pbe_ddec_sum_bond_order
 _atom_site_pbe_magmom
Co  Co0  1  0.49944906  0.00056120  0.50062445  1  1.218413  0.946248  0.609416  0.907421  1.005579  2.714313  0.941
Co  Co1  1  0.48914370  0.84288880  0.75198959  1  1.319602  2.600115  0.646845  1.01875  2.777019  2.307819  2.588
Co  Co2  1  0.51137111  0.15890031  0.24710185  1  1.311396  -2.587135  0.64203  1.012372  -2.804933  2.313247  -2.576
H  H3  1  0.35982804  0.82244827  0.03032876  1  0.095787  0.001928  0.101582  0.08814  0.000817  1.002904  0.001
H  H4  1  0.64090395  0.17717174  0.96957101  1  0.092206  -0.001852  0.101451  0.087988  -0.000789  1.004496  -0.001
H  H5  1  0.26103020  0.83838718  0.88751661  1  0.095095  9.4e-05  0.102985  0.082302  -0.000165  1.044717  0.0
H  H6  1  0.73935063  0.16095050  0.11242795  1  0.097022  -6e-05  0.103102  0.082257  0.000176  1.043971  0.0
H  H7  1  0.72886818  0.93502541  0.97445881  1  0.129899  6.5e-05  0.11593  0.109382  -0.000154  0.987025  0.0
H  H8  1  0.27154899  0.06452551  0.02522675  1  0.128483  -2.5e-05  0.115775  0.109327  0.000165  0.985368  0.0
H  H9  1  0.63654030  0.87897040  0.08152703  1  0.074152  0.002263  0.105083  0.084418  0.000953  0.972302  0.001
H  H10  1  0.36383827  0.12044114  0.91811221  1  0.072409  -0.002237  0.104668  0.08426  -0.000953  0.972893  -0.001
H  H11  1  0.41345797  0.71134499  0.53941272  1  0.625492  0.000716  0.339148  0.431581  0.000469  0.830949  0.001
H  H12  1  0.58518966  0.28227469  0.45965237  1  0.636195  -0.000713  0.340106  0.431127  -0.000459  0.829992  -0.001
H  H13  1  0.60254611  0.75647179  0.60223907  1  0.658298  0.000151  0.296541  0.391734  0.000236  0.949981  0.0
H  H14  1  0.39542656  0.23764324  0.39545804  1  0.65635  -6.3e-05  0.297748  0.391522  -8.5e-05  0.950964  0.0
H  H15  1  0.32046785  0.53930213  0.75412855  1  0.630745  0.001987  0.332227  0.425961  0.001053  0.854522  0.001
H  H16  1  0.67953853  0.46207647  0.24434591  1  0.633754  -0.001821  0.332006  0.426654  -0.001002  0.85362  -0.001
H  H17  1  0.20701378  0.64575575  0.72174645  1  0.655034  0.0009  0.323765  0.423895  0.000552  0.868995  0.001
H  H18  1  0.79321095  0.35606407  0.27756963  1  0.657766  -0.000795  0.322779  0.422545  -0.000535  0.871158  0.0
C  C19  1  0.28734975  0.03841960  0.63289645  1  1.653348  -0.006595  0.217372  0.452355  -0.003306  4.22523  -0.005
C  C20  1  0.71243976  0.96270410  0.36762639  1  1.652515  -0.000487  0.217207  0.453015  -0.001087  4.225987  0.0
C  C21  1  0.16961648  0.13256756  0.64618596  1  1.721927  0.002917  0.298015  0.589978  0.001632  4.020851  0.003
C  C22  1  0.83027947  0.86827432  0.35474923  1  1.723775  -0.004337  0.29852  0.592523  -0.002447  4.01619  -0.004
C  C23  1  0.69605571  0.14722374  0.71577340  1  1.631794  -0.007832  0.215885  0.454412  -0.004063  4.221754  -0.005
C  C24  1  0.30329664  0.85415019  0.28500980  1  1.650862  -0.000305  0.215655  0.455207  -0.001029  4.221209  -0.001
C  C25  1  0.81185814  0.29880322  0.77754473  1  1.728556  0.002967  0.297243  0.593762  0.001691  4.019193  0.003
C  C26  1  0.18775151  0.70261384  0.22278860  1  1.72348  -0.004953  0.296112  0.590476  -0.002837  4.018581  -0.004
C  C27  1  0.76887334  0.73688335  0.75928740  1  1.653332  -0.000495  0.203109  0.438739  0.000345  4.283767  -0.001
C  C28  1  0.23206970  0.26291837  0.24037203  1  1.651887  0.000704  0.203086  0.437369  -0.000166  4.277469  0.001
C  C29  1  0.93175473  0.74620303  0.83724460  1  1.699837  0.003749  0.298891  0.590174  0.002105  3.99926  0.003
C  C30  1  0.06868057  0.25378948  0.16349335  1  1.701292  -0.00341  0.29859  0.58997  -0.001953  4.000387  -0.003
C  C31  1  0.36137194  0.88835805  0.95825806  1  0.359402  0.001221  -0.078671  -0.023021  0.000841  3.874374  0.001
C  C32  1  0.63910255  0.11116496  0.04154196  1  0.36475  -0.001054  -0.079044  -0.024341  -0.000761  3.876941  -0.001
C  C33  1  0.63385734  0.94488695  0.00884260  1  0.374489  0.000759  -0.070932  -0.001425  0.000583  3.837974  0.0
C  C34  1  0.36657937  0.05464696  0.99086250  1  0.39118  -0.000685  -0.070741  -0.002931  -0.000565  3.839052  0.0
O  O35  1  0.34856170  0.07404967  0.55492317  1  -1.089263  -0.005757  -0.285959  -0.461747  -0.002172  2.490341  -0.004
O  O36  1  0.65084296  0.92731058  0.44543675  1  -1.093377  -0.003056  -0.285399  -0.460899  -0.000698  2.479847  -0.002
O  O37  1  0.31027021  0.94481757  0.70388340  1  -1.143192  0.047784  -0.302018  -0.52858  0.026214  2.440851  0.042
O  O38  1  0.69008347  0.05597158  0.29626210  1  -1.138248  -0.051435  -0.303601  -0.530087  -0.028355  2.435435  -0.044
O  O39  1  0.65996226  0.14342090  0.60910083  1  -1.080021  -0.009828  -0.295975  -0.482234  -0.004311  2.501846  -0.007
O  O40  1  0.33839698  0.85789597  0.39167093  1  -1.086208  -0.00426  -0.295285  -0.479479  -0.001414  2.495007  -0.003
O  O41  1  0.65336228  0.05069207  0.77725943  1  -1.150479  0.045222  -0.289304  -0.517245  0.024909  2.43191  0.041
O  O42  1  0.34654684  0.95041452  0.22351623  1  -1.150684  -0.049739  -0.290579  -0.517735  -0.027452  2.423078  -0.044
O  O43  1  0.67055622  0.74382279  0.81237957  1  -1.14493  0.053382  -0.31732  -0.542034  0.028445  2.386008  0.046
O  O44  1  0.33018288  0.25861670  0.18676992  1  -1.14631  -0.050157  -0.314395  -0.538702  -0.027333  2.381611  -0.043
O  O45  1  0.75445415  0.73156142  0.65513728  1  -1.103869  0.00439  -0.300885  -0.465572  0.001853  2.217765  0.004
O  O46  1  0.24708550  0.26496379  0.34464201  1  -1.101751  -0.002783  -0.299998  -0.463143  -0.001268  2.222861  -0.003
O  O47  1  0.49393314  0.87576524  0.92086430  1  -1.030879  0.057013  -0.226631  -0.241313  0.031057  2.630779  0.049
O  O48  1  0.50649543  0.12385059  0.07875310  1  -1.041965  -0.055629  -0.22736  -0.241498  -0.030866  2.637416  -0.048
O  O49  1  0.30790409  0.63286768  0.72051048  1  -1.222158  0.037109  -0.552333  -0.763551  0.020079  2.063949  0.029
O  O50  1  0.69230669  0.36902814  0.27867593  1  -1.227656  -0.035338  -0.551594  -0.763661  -0.019541  2.062109  -0.029
O  O51  1  0.49784306  0.78961794  0.58917726  1  -1.213493  0.1089  -0.540144  -0.781219  0.059331  2.347447  0.09
O  O52  1  0.50140043  0.20431136  0.40880872  1  -1.211461  -0.024334  -0.537391  -0.774879  -0.013743  2.363898  -0.022
F  F53  1  0.10336401  0.18450850  0.54996028  1  -0.612847  0.001077  -0.098429  -0.18245  0.000518  1.332243  0.001
F  F54  1  0.89567043  0.81582409  0.45100171  1  -0.614142  -0.00139  -0.099301  -0.184496  -0.000684  1.332185  -0.001
F  F55  1  0.05831055  0.05131259  0.68566826  1  -0.613945  -0.000265  -0.097046  -0.186714  -0.000223  1.370076  0.0
F  F56  1  0.94241818  0.94943495  0.31593799  1  -0.613638  -0.000109  -0.098616  -0.189146  6.7e-05  1.367286  0.0
F  F57  1  0.24672994  0.26010254  0.72473892  1  -0.614913  0.000406  -0.120502  -0.234016  0.00015  1.257924  0.0
F  F58  1  0.75353889  0.74103730  0.27584204  1  -0.620311  -0.001354  -0.121239  -0.235277  -0.000616  1.258418  -0.001
F  F59  1  0.80024990  0.41657255  0.71370118  1  -0.617177  0.001306  -0.107706  -0.205705  0.000613  1.363209  0.001
F  F60  1  0.19417800  0.58559676  0.28792843  1  -0.619114  -0.001745  -0.108565  -0.205584  -0.000863  1.357374  -0.001
F  F61  1  0.95877060  0.28398678  0.80053336  1  -0.604354  -0.000347  -0.108845  -0.203997  -0.000209  1.318268  0.0
F  F62  1  0.04130231  0.71933242  0.19517620  1  -0.607957  -0.000473  -0.108568  -0.203552  -0.000162  1.318447  0.0
F  F63  1  0.78572538  0.34002917  0.87684987  1  -0.618022  -0.000485  -0.099416  -0.195891  -0.0003  1.353867  -0.001
F  F64  1  0.21872701  0.65876300  0.12588788  1  -0.61741  -0.000143  -0.100451  -0.196638  3.9e-05  1.349738  0.0
F  F65  1  0.93192251  0.66005718  0.92348857  1  -0.616196  0.000164  -0.104103  -0.196522  -2e-06  1.36002  0.0
F  F66  1  0.06750025  0.34070083  0.07762211  1  -0.618047  -0.000141  -0.103767  -0.196146  0.0  1.360367  0.0
F  F67  1  0.99824179  0.89547053  0.88331141  1  -0.61081  0.000681  -0.098844  -0.194947  0.000267  1.30814  0.001
F  F68  1  0.00254652  0.10463438  0.11700511  1  -0.609499  -0.000708  -0.09852  -0.194499  -0.0003  1.30742  -0.001
F  F69  1  0.02566936  0.70173657  0.77925999  1  -0.634387  0.001212  -0.102298  -0.220192  0.000513  1.370064  0.001
F  F70  1  0.97526856  0.29710285  0.22239316  1  -0.631812  -0.001099  -0.1011  -0.218549  -0.000472  1.36948  -0.001
