# generated using pymatgen
data_Nd2Cu3P6H24C30(NO3)6
_symmetry_space_group_name_H-M   'P 1'
_cell_length_a   10.39649979
_cell_length_b   11.44555999
_cell_length_c   11.44442974
_cell_angle_alpha   111.25419854
_cell_angle_beta   107.62135685
_cell_angle_gamma   107.62696261
_symmetry_Int_Tables_number   1
_chemical_formula_structural   Nd2Cu3P6H24C30(NO3)6
_chemical_formula_sum   'Nd2 Cu3 P6 H24 C30 N6 O18'
_cell_volume   1071.24375674
_cell_formula_units_Z   1
loop_
 _symmetry_equiv_pos_site_id
 _symmetry_equiv_pos_as_xyz
  1  'x, y, z'
loop_
 _atom_site_type_symbol
 _atom_site_label
 _atom_site_symmetry_multiplicity
 _atom_site_fract_x
 _atom_site_fract_y
 _atom_site_fract_z
 _atom_site_occupancy
 _atom_site_hle17_ddec_charge
 _atom_site_hle17_ddec_spin_density
 _atom_site_hle17_ddec_sum_bond_order
 _atom_site_hle17_magmom
 _atom_site_hse06_10hf_ddec_charge
 _atom_site_hse06_10hf_ddec_spin_density
 _atom_site_hse06_10hf_ddec_sum_bond_order
 _atom_site_hse06_10hf_magmom
 _atom_site_hse06_ddec_charge
 _atom_site_hse06_ddec_spin_density
 _atom_site_hse06_ddec_sum_bond_order
 _atom_site_hse06_magmom
 _atom_site_pbe_cm5_charge
 _atom_site_pbe_ddec_charge
 _atom_site_pbe_ddec_spin_density
 _atom_site_pbe_ddec_sum_bond_order
 _atom_site_pbe_magmom
Nd  Nd0  1  0.49999980  0.99999803  0.99999743  1  2.451274  0.001323  1.734414  0.002  2.345146  0.002112  2.135373  0.003  2.380744  0.00078  2.087315  0.002  1.573817  2.284283  0.001096  2.230356  0.001
Nd  Nd1  1  0.99999303  0.99999873  0.99999575  1  2.441383  -0.000391  1.743205  0.0  2.307348  0.000666  2.19971  0.001  2.376552  8.3e-05  2.091411  0.001  1.558456  2.277584  0.000188  2.237319  0.0
Cu  Cu2  1  0.99999911  0.00000228  0.50000299  1  0.846118  0.685967  1.848448  0.506  0.812527  0.765033  2.247692  0.613  0.89841  0.825325  2.177278  0.689  0.768163  0.756569  0.723738  2.298965  0.564
Cu  Cu3  1  0.99999915  0.50000395  0.00000197  1  0.84567  0.685956  1.849057  0.506  0.812638  0.765061  2.24836  0.613  0.897791  0.825325  2.178862  0.689  0.768202  0.756779  0.723749  2.299412  0.564
Cu  Cu4  1  0.49999262  0.49999460  0.49999420  1  0.84601  0.686032  1.847029  0.506  0.813134  0.765137  2.246015  0.613  0.898687  0.825421  2.175938  0.689  0.767899  0.757001  0.723814  2.297476  0.564
P  P5  1  0.17276251  0.01494549  0.76332398  1  1.475669  0.002529  4.996873  0.001  1.316469  0.005123  5.519131  0.004  1.369638  0.003536  5.478678  0.003  0.345239  1.279009  0.006181  5.545518  0.004
P  P6  1  0.15777640  0.74841144  0.98506185  1  1.472914  0.002524  4.999043  0.001  1.313489  0.005115  5.52233  0.004  1.366525  0.003536  5.482224  0.003  0.344491  1.276131  0.006174  5.548342  0.004
P  P7  1  0.40935347  0.23661253  0.25154588  1  1.475121  0.00254  4.998573  0.001  1.315956  0.005125  5.520851  0.004  1.369178  0.003547  5.480256  0.003  0.344973  1.27848  0.006177  5.547165  0.004
P  P8  1  0.82723817  0.98505642  0.23667764  1  1.475651  0.002522  4.996789  0.001  1.316489  0.00512  5.519039  0.004  1.369646  0.003538  5.478633  0.003  0.345236  1.279036  0.006182  5.545423  0.004
P  P9  1  0.84222385  0.25159364  0.01493817  1  1.473013  0.002527  4.998853  0.001  1.31355  0.005115  5.522223  0.004  1.366587  0.003536  5.482112  0.003  0.344587  1.276204  0.006174  5.548249  0.004
P  P10  1  0.59063580  0.76337668  0.74844450  1  1.475376  0.002529  4.998509  0.001  1.316215  0.005125  5.520798  0.004  1.369451  0.003545  5.480152  0.003  0.345006  1.278746  0.006177  5.547117  0.004
H  H11  1  0.33575897  0.31144069  0.01912740  1  0.124531  0.000664  0.940966  0.001  0.136515  0.000659  0.99583  0.001  0.140285  0.00048  0.994133  0.0  0.121612  0.133612  0.000801  0.997455  0.001
H  H12  1  0.02433398  0.70770445  0.68863631  1  0.124562  0.000664  0.940751  0.001  0.136488  0.000658  0.995703  0.001  0.14028  0.000479  0.993964  0.0  0.121392  0.133503  0.0008  0.997472  0.001
H  H13  1  0.31653367  0.98083420  0.29225574  1  0.124862  0.000664  0.940102  0.001  0.136153  0.000659  0.995765  0.001  0.139933  0.00048  0.994065  0.0  0.121492  0.133238  0.000801  0.997417  0.001
H  H14  1  0.66424680  0.68856333  0.98087725  1  0.12451  0.000666  0.940948  0.001  0.136528  0.000659  0.995781  0.001  0.140297  0.00048  0.994084  0.0  0.121627  0.133623  0.000801  0.997406  0.001
H  H15  1  0.97567169  0.29229534  0.31136241  1  0.12457  0.000662  0.940689  0.001  0.136461  0.000658  0.995675  0.001  0.14026  0.000479  0.993928  0.0  0.121387  0.13348  0.000801  0.997443  0.001
H  H16  1  0.68346671  0.01915500  0.70774118  1  0.124865  0.000665  0.940072  0.001  0.136107  0.000659  0.995794  0.001  0.139888  0.00048  0.994097  0.0  0.121433  0.133191  0.000801  0.997454  0.001
H  H17  1  0.37186340  0.54355573  0.02672043  1  0.099861  0.000188  0.937991  0.0  0.113663  -6.3e-05  0.992918  0.0  0.116128  -8.9e-05  0.991772  0.0  0.112522  0.111935  -2.7e-05  0.993618  0.0
H  H18  1  0.82832829  0.48321498  0.45646909  1  0.100657  0.000192  0.938161  0.0  0.114119  -6.2e-05  0.993272  0.0  0.11664  -8.8e-05  0.99208  0.0  0.11273  0.112379  -2.7e-05  0.993949  0.0
H  H19  1  0.34515019  0.97329615  0.51683183  1  0.100774  0.00019  0.938234  0.0  0.114289  -6.2e-05  0.993229  0.0  0.116734  -8.8e-05  0.992139  0.0  0.112472  0.112589  -2.7e-05  0.993876  0.0
H  H20  1  0.62814237  0.45644829  0.97328510  1  0.099935  0.000188  0.937949  0.0  0.113668  -6.2e-05  0.992941  0.0  0.116133  -8.9e-05  0.991794  0.0  0.112493  0.111934  -2.7e-05  0.993653  0.0
H  H21  1  0.17167536  0.51678481  0.54352996  1  0.100665  0.000191  0.938155  0.0  0.114133  -6.3e-05  0.993266  0.0  0.116657  -8.8e-05  0.992066  0.0  0.112741  0.112393  -2.7e-05  0.993943  0.0
H  H22  1  0.65485592  0.02670046  0.48316935  1  0.100761  0.000189  0.938258  0.0  0.114315  -6.2e-05  0.993195  0.0  0.11676  -8.8e-05  0.992103  0.0  0.112466  0.112612  -2.7e-05  0.993847  0.0
H  H23  1  0.25602313  0.54189901  0.80101955  1  0.121224  0.00057  0.936223  0.001  0.134011  0.000581  0.989286  0.001  0.13744  0.000433  0.988156  0.0  0.118274  0.131305  0.000709  0.990661  0.001
H  H24  1  0.71407368  0.25913177  0.45807525  1  0.121264  0.00057  0.936201  0.001  0.133764  0.000581  0.989563  0.001  0.137175  0.000432  0.988457  0.0  0.118122  0.131068  0.000708  0.990928  0.001
H  H25  1  0.45504995  0.19898015  0.74089434  1  0.1211  0.000571  0.935553  0.001  0.133598  0.000582  0.988928  0.001  0.137014  0.000433  0.987796  0.0  0.118103  0.130881  0.000709  0.990329  0.001
H  H26  1  0.74397606  0.45810396  0.19898554  1  0.121237  0.000568  0.936247  0.001  0.134088  0.000581  0.989227  0.001  0.137517  0.000432  0.988096  0.0  0.118314  0.131383  0.000709  0.990603  0.001
H  H27  1  0.28592651  0.74087120  0.54192749  1  0.121266  0.000572  0.93617  0.001  0.133774  0.000581  0.989525  0.001  0.137183  0.000432  0.988425  0.0  0.118118  0.131074  0.000708  0.990891  0.001
H  H28  1  0.54494611  0.80101858  0.25910224  1  0.12109  0.000569  0.935523  0.001  0.133608  0.000582  0.988882  0.001  0.137027  0.000433  0.987743  0.0  0.118074  0.130869  0.000709  0.990307  0.001
H  H29  1  0.08543470  0.30396352  0.57353569  1  0.094032  0.000763  0.941868  0.002  0.103776  0.000688  1.001197  0.001  0.105786  0.000495  0.999875  0.001  0.121373  0.102111  0.000843  1.002272  0.002
H  H30  1  0.78143674  0.26958004  0.69600482  1  0.093473  0.000764  0.941925  0.002  0.103218  0.000687  1.001396  0.001  0.105181  0.000495  1.00011  0.001  0.121129  0.101623  0.000843  1.002395  0.002
H  H31  1  0.51194207  0.42646115  0.73042142  1  0.094094  0.000768  0.941921  0.002  0.103696  0.000687  1.001501  0.001  0.105654  0.000495  1.000238  0.001  0.121339  0.102125  0.000843  1.002443  0.002
H  H32  1  0.91456045  0.69603945  0.42647004  1  0.094018  0.000761  0.941957  0.002  0.103768  0.000687  1.001276  0.001  0.105787  0.000495  0.999935  0.001  0.121375  0.102103  0.000843  1.002345  0.002
H  H33  1  0.21855846  0.73042505  0.30399732  1  0.093424  0.000765  0.941936  0.002  0.103196  0.000688  1.001376  0.001  0.105158  0.000495  1.000091  0.001  0.121101  0.101597  0.000843  1.002373  0.002
H  H34  1  0.48804788  0.57353546  0.26956835  1  0.094207  0.000767  0.941823  0.002  0.10376  0.000688  1.001436  0.001  0.105738  0.000495  1.000146  0.001  0.121363  0.10212  0.000843  1.002458  0.002
C  C35  1  0.19676519  0.19030163  0.79304237  1  -0.056366  -0.01266  3.70153  -0.008  -0.031362  -0.003785  3.94453  -0.002  -0.029788  -0.005377  3.965962  -0.003  0.112063  -0.032418  -0.002447  3.931231  -0.001
C  C36  1  0.00640681  0.60274478  0.80973451  1  -0.055976  -0.01266  3.701575  -0.008  -0.030908  -0.003786  3.945136  -0.002  -0.029303  -0.005379  3.966507  -0.003  0.111919  -0.031909  -0.00245  3.931672  -0.001
C  C37  1  0.40361922  0.20689802  0.39718991  1  -0.056161  -0.012668  3.701189  -0.008  -0.030999  -0.00378  3.944353  -0.002  -0.029432  -0.005372  3.965754  -0.003  0.112114  -0.031977  -0.002446  3.930914  -0.001
C  C38  1  0.80323448  0.80970028  0.20696246  1  -0.056337  -0.012657  3.701441  -0.008  -0.031421  -0.003787  3.944639  -0.002  -0.029854  -0.005371  3.966084  -0.003  0.112056  -0.032471  -0.002447  3.931316  -0.001
C  C39  1  0.99359439  0.39725819  0.19026589  1  -0.056034  -0.012673  3.701483  -0.008  -0.030932  -0.003787  3.945055  -0.002  -0.029328  -0.005383  3.966426  -0.003  0.111905  -0.031942  -0.00245  3.931599  -0.001
C  C40  1  0.59637260  0.79309224  0.60280243  1  -0.056139  -0.012657  3.701195  -0.008  -0.031011  -0.003781  3.94436  -0.002  -0.029446  -0.005377  3.965764  -0.003  0.112164  -0.031989  -0.002446  3.930928  -0.001
C  C41  1  0.28474139  0.31585316  0.92342500  1  -0.082803  0.008244  3.696355  0.008  -0.102381  0.002766  3.937256  0.003  -0.108141  0.002721  3.9579  0.003  -0.062975  -0.099033  0.002879  3.924222  0.003
C  C42  1  0.96887728  0.60757492  0.68418610  1  -0.082499  0.008243  3.697333  0.008  -0.101922  0.002768  3.93797  0.003  -0.107683  0.002719  3.958641  0.003  -0.063056  -0.098558  0.002879  3.924923  0.003
C  C43  1  0.36123556  0.07653574  0.39237546  1  -0.082119  0.008252  3.696376  0.008  -0.101148  0.00277  3.936798  0.003  -0.106886  0.002719  3.957458  0.003  -0.063232  -0.097835  0.00288  3.923734  0.003
C  C44  1  0.71526184  0.68414981  0.07658032  1  -0.082891  0.008231  3.696309  0.008  -0.102476  0.002769  3.937255  0.003  -0.108233  0.002716  3.957897  0.003  -0.063027  -0.09913  0.002879  3.924212  0.003
C  C45  1  0.03112595  0.39242805  0.31581485  1  -0.082466  0.00825  3.697276  0.008  -0.101857  0.002769  3.937924  0.003  -0.107623  0.00272  3.958591  0.003  -0.063066  -0.098496  0.002879  3.92489  0.003
C  C46  1  0.63876083  0.92345558  0.60761939  1  -0.082109  0.008242  3.696403  0.008  -0.101082  0.002768  3.936805  0.003  -0.106821  0.002722  3.957469  0.003  -0.063174  -0.097768  0.00288  3.923747  0.003
C  C47  1  0.30468306  0.44344310  0.92706640  1  -0.003882  -0.014201  3.701774  -0.009  -0.025173  -0.005205  3.959387  -0.003  -0.021793  -0.005838  3.976961  -0.003  -0.058942  -0.027434  -0.004679  3.947453  -0.002
C  C48  1  0.86124510  0.48363573  0.55656091  1  -0.005855  -0.014203  3.70454  -0.009  -0.026832  -0.005209  3.961925  -0.003  -0.02354  -0.005837  3.979522  -0.003  -0.05946  -0.029041  -0.004679  3.949962  -0.002
C  C49  1  0.37762469  0.07294975  0.51638093  1  -0.006488  -0.014209  3.703866  -0.009  -0.027259  -0.005212  3.96074  -0.003  -0.023918  -0.005842  3.978346  -0.003  -0.058646  -0.029509  -0.004682  3.948777  -0.002
C  C50  1  0.69531963  0.55655880  0.07293839  1  -0.003781  -0.014181  3.701715  -0.009  -0.025008  -0.005208  3.959313  -0.003  -0.021626  -0.005831  3.976884  -0.003  -0.058882  -0.027267  -0.004679  3.94738  -0.002
C  C51  1  0.13875605  0.51636512  0.44343870  1  -0.005916  -0.0142  3.704516  -0.009  -0.026901  -0.005209  3.96193  -0.003  -0.023609  -0.005841  3.979527  -0.003  -0.059489  -0.02911  -0.004679  3.949968  -0.002
C  C52  1  0.62237583  0.92704581  0.48361659  1  -0.006417  -0.014199  3.70384  -0.009  -0.0272  -0.00521  3.960683  -0.003  -0.023861  -0.005842  3.978292  -0.003  -0.058596  -0.029445  -0.004682  3.948715  -0.002
C  C53  1  0.23771009  0.44295266  0.80092902  1  -0.104586  0.010153  3.699266  0.011  -0.121906  0.00389  3.955163  0.005  -0.128066  0.003595  3.974855  0.004  -0.076397  -0.118095  0.004127  3.942386  0.005
C  C54  1  0.79472474  0.35797900  0.55701997  1  -0.10414  0.010141  3.700558  0.011  -0.12102  0.003888  3.956182  0.005  -0.127173  0.003591  3.975884  0.004  -0.075686  -0.117211  0.004124  3.943412  0.005
C  C55  1  0.43684876  0.19909926  0.64205001  1  -0.102613  0.010161  3.698102  0.011  -0.119583  0.003893  3.953547  0.005  -0.125767  0.003595  3.973339  0.004  -0.075488  -0.11575  0.004128  3.940745  0.005
C  C56  1  0.76229064  0.55705137  0.19907688  1  -0.104722  0.010147  3.699327  0.011  -0.122079  0.003891  3.955191  0.005  -0.128243  0.003591  3.974888  0.004  -0.076444  -0.11827  0.004126  3.942411  0.005
C  C57  1  0.20527545  0.64202397  0.44298015  1  -0.104104  0.010139  3.700432  0.011  -0.120995  0.003889  3.956088  0.005  -0.127148  0.003594  3.975792  0.004  -0.075677  -0.117183  0.004124  3.94331  0.005
C  C58  1  0.56314772  0.80089629  0.35794466  1  -0.102641  0.010159  3.698121  0.011  -0.119638  0.003892  3.953573  0.005  -0.125824  0.003597  3.973371  0.004  -0.075496  -0.115779  0.004127  3.94075  0.005
C  C59  1  0.14611317  0.31379059  0.67540006  1  0.131364  -0.01024  3.672575  -0.006  0.102821  -0.001736  3.92741  -0.001  0.111111  -0.003532  3.947713  -0.002  0.049218  0.097668  -0.000431  3.913518  0.0
C  C60  1  0.83229707  0.36161567  0.68618858  1  0.131641  -0.010238  3.673359  -0.006  0.103193  -0.001736  3.928434  -0.001  0.111554  -0.003531  3.948647  -0.002  0.049135  0.097968  -0.000431  3.914567  0.0
C  C61  1  0.47075148  0.32460672  0.63837653  1  0.130194  -0.010282  3.673072  -0.006  0.10189  -0.001746  3.928344  -0.001  0.110206  -0.00354  3.948637  -0.002  0.048716  0.096688  -0.000438  3.914443  0.0
C  C62  1  0.85388247  0.68621132  0.32460716  1  0.13135  -0.010227  3.672696  -0.006  0.102839  -0.001735  3.927542  -0.001  0.111126  -0.003529  3.947847  -0.002  0.049199  0.097684  -0.000431  3.913652  0.0
C  C63  1  0.16770158  0.63838624  0.31381335  1  0.131704  -0.010243  3.673361  -0.006  0.10326  -0.001737  3.928444  -0.001  0.111621  -0.003534  3.948658  -0.002  0.049188  0.098037  -0.000431  3.914569  0.0
C  C64  1  0.52924198  0.67538884  0.36161643  1  0.130063  -0.010275  3.673157  -0.006  0.101792  -0.001743  3.928404  -0.001  0.110095  -0.003544  3.948692  -0.002  0.048683  0.096642  -0.000438  3.914513  0.0
N  N65  1  0.12642410  0.19093031  0.67287303  1  -0.298497  0.080705  3.397186  0.104  -0.252509  0.055577  3.681951  0.076  -0.283243  0.046099  3.706583  0.068  -0.34324  -0.233178  0.060964  3.666607  0.08
N  N66  1  0.93545075  0.48194290  0.80908067  1  -0.297702  0.080674  3.397404  0.104  -0.252581  0.055571  3.683299  0.076  -0.283134  0.046096  3.707807  0.068  -0.343206  -0.23329  0.060962  3.66798  0.079
N  N67  1  0.45350462  0.32708877  0.51800116  1  -0.298428  0.080744  3.396394  0.104  -0.253404  0.055615  3.682193  0.076  -0.284063  0.046129  3.706769  0.068  -0.343413  -0.234068  0.061012  3.666862  0.08
N  N68  1  0.87357207  0.80907265  0.32713297  1  -0.29836  0.080707  3.397216  0.104  -0.252436  0.055578  3.68209  0.076  -0.283169  0.046098  3.706728  0.068  -0.343182  -0.233107  0.060967  3.666739  0.08
N  N69  1  0.06455003  0.51806325  0.19092163  1  -0.297716  0.080678  3.397388  0.104  -0.252646  0.055571  3.683339  0.076  -0.283199  0.046097  3.707844  0.068  -0.343187  -0.233345  0.060961  3.668012  0.079
N  N70  1  0.54648268  0.67290255  0.48198858  1  -0.298467  0.08074  3.39641  0.104  -0.253404  0.055613  3.682159  0.076  -0.284066  0.04613  3.706742  0.068  -0.343435  -0.234065  0.06101  3.666804  0.08
O  O71  1  0.11003521  0.92890733  0.60077126  1  -0.80671  0.078924  1.996483  0.106  -0.759042  0.052393  2.300948  0.075  -0.798171  0.041245  2.280191  0.064  -0.393116  -0.732548  0.059525  2.31573  0.081
O  O72  1  0.18111723  0.67190680  0.07109540  1  -0.806006  0.078988  1.997386  0.106  -0.758147  0.052485  2.301488  0.075  -0.797107  0.041327  2.280862  0.064  -0.39301  -0.731693  0.059629  2.316236  0.082
O  O73  1  0.50916376  0.39915746  0.32808435  1  -0.806221  0.07888  1.996533  0.106  -0.75858  0.052347  2.301087  0.075  -0.797598  0.041206  2.280212  0.064  -0.392778  -0.732065  0.059478  2.315913  0.081
O  O74  1  0.88996652  0.07109670  0.39922966  1  -0.806728  0.078917  1.996517  0.106  -0.759065  0.052389  2.300972  0.075  -0.7982  0.041242  2.280242  0.064  -0.393128  -0.732572  0.059519  2.315756  0.081
O  O75  1  0.81888056  0.32810146  0.92890861  1  -0.806028  0.078987  1.997253  0.106  -0.75815  0.052486  2.301377  0.075  -0.797112  0.041328  2.280751  0.064  -0.393038  -0.731699  0.059626  2.316126  0.081
O  O76  1  0.49082604  0.60083281  0.67190656  1  -0.806321  0.078875  1.996614  0.106  -0.75867  0.052343  2.301157  0.075  -0.797685  0.041205  2.280272  0.064  -0.392792  -0.732165  0.059474  2.31601  0.081
O  O77  1  0.05773599  0.95828504  0.81075507  1  -0.973343  0.002011  1.972097  0.003  -0.902672  0.000924  2.251243  0.002  -0.934221  0.000273  2.227528  0.001  -0.477141  -0.883048  0.001789  2.266311  0.003
O  O78  1  0.09939732  0.85248498  0.04172430  1  -0.972864  0.002015  1.9736  0.003  -0.902113  0.000927  2.252695  0.002  -0.933637  0.000273  2.229036  0.001  -0.476629  -0.882523  0.001791  2.267759  0.003
O  O79  1  0.24690970  0.18919104  0.14745266  1  -0.973335  0.002014  1.973021  0.003  -0.902578  0.000928  2.251998  0.002  -0.934131  0.000275  2.228281  0.001  -0.477071  -0.883027  0.001794  2.267187  0.003
O  O80  1  0.94226209  0.04171370  0.18924293  1  -0.973319  0.002013  1.972057  0.003  -0.902625  0.000926  2.251166  0.002  -0.934173  0.000271  2.227454  0.001  -0.477132  -0.883004  0.001789  2.266231  0.003
O  O81  1  0.90060551  0.14752328  0.95827148  1  -0.972913  0.002012  1.973662  0.003  -0.902166  0.000924  2.252787  0.002  -0.933692  0.000274  2.229133  0.001  -0.47665  -0.882558  0.001791  2.267814  0.003
O  O82  1  0.75308068  0.81080240  0.85253957  1  -0.973442  0.002014  1.973065  0.003  -0.902707  0.000927  2.252081  0.002  -0.934263  0.000274  2.228355  0.001  -0.477127  -0.883154  0.001793  2.267276  0.003
O  O83  1  0.33088938  0.03412697  0.84303340  1  -0.959172  0.009213  1.957533  0.012  -0.894108  0.00517  2.23451  0.007  -0.919186  0.003118  2.21002  0.004  -0.474455  -0.868719  0.007653  2.251072  0.01
O  O84  1  0.29667831  0.80897772  0.96582524  1  -0.957989  0.009206  1.957197  0.012  -0.892713  0.005163  2.233903  0.007  -0.917849  0.003116  2.209658  0.004  -0.474212  -0.867333  0.00764  2.250376  0.01
O  O85  1  0.48779059  0.15693145  0.19098914  1  -0.958797  0.009191  1.9584  0.012  -0.893548  0.005161  2.235139  0.007  -0.918709  0.003113  2.210778  0.004  -0.474562  -0.868143  0.007639  2.251669  0.01
O  O86  1  0.66911023  0.96587282  0.15696629  1  -0.959208  0.009215  1.957505  0.012  -0.89415  0.005171  2.234476  0.007  -0.919222  0.003119  2.209989  0.004  -0.47448  -0.868761  0.007652  2.251032  0.01
O  O87  1  0.70332327  0.19101995  0.03417159  1  -0.958007  0.009203  1.957086  0.012  -0.892742  0.005163  2.233841  0.007  -0.917868  0.003115  2.209578  0.004  -0.474261  -0.867365  0.00764  2.250316  0.01
O  O88  1  0.51219868  0.84305775  0.80900037  1  -0.95888  0.009192  1.958403  0.012  -0.893606  0.005162  2.235097  0.007  -0.918771  0.003115  2.21073  0.004  -0.474502  -0.868204  0.007638  2.251633  0.01
