# generated using pymatgen
data_FeCu2H16(C7N3)4
_symmetry_space_group_name_H-M   'P 1'
_cell_length_a   6.77507529
_cell_length_b   7.61463760
_cell_length_c   13.89228842
_cell_angle_alpha   74.08835427
_cell_angle_beta   90.78107047
_cell_angle_gamma   79.99397751
_symmetry_Int_Tables_number   1
_chemical_formula_structural   FeCu2H16(C7N3)4
_chemical_formula_sum   'Fe1 Cu2 H16 C28 N12'
_cell_volume   677.33420946
_cell_formula_units_Z   1
loop_
 _symmetry_equiv_pos_site_id
 _symmetry_equiv_pos_as_xyz
  1  'x, y, z'
loop_
 _atom_site_type_symbol
 _atom_site_label
 _atom_site_symmetry_multiplicity
 _atom_site_fract_x
 _atom_site_fract_y
 _atom_site_fract_z
 _atom_site_occupancy
 _atom_site_hle17_bader_spin_density
 _atom_site_hle17_ddec_charge
 _atom_site_hle17_ddec_spin_density
 _atom_site_hle17_ddec_sum_bond_order
 _atom_site_hle17_magmom
 _atom_site_hse06_10hf_bader_spin_density
 _atom_site_hse06_10hf_ddec_charge
 _atom_site_hse06_10hf_ddec_spin_density
 _atom_site_hse06_10hf_ddec_sum_bond_order
 _atom_site_hse06_10hf_magmom
 _atom_site_hse06_bader_spin_density
 _atom_site_hse06_ddec_charge
 _atom_site_hse06_ddec_spin_density
 _atom_site_hse06_ddec_sum_bond_order
 _atom_site_hse06_magmom
 _atom_site_pbe_bader_spin_density
 _atom_site_pbe_cm5_charge
 _atom_site_pbe_ddec_charge
 _atom_site_pbe_ddec_spin_density
 _atom_site_pbe_ddec_sum_bond_order
 _atom_site_pbe_magmom
Fe  Fe0  1  0.99179712  0.00012506  0.98868276  1  0  0.607479  0  3.227113  0  0  0.583489  0  3.707682  0  0  0.630002  0  3.646802  0  0  0.802505  0.55924  0  3.741404  0
Cu  Cu1  1  0.56316231  0.52542808  0.07721313  1  0  0.274888  0  2.534145  0  0  0.199719  0  3.036302  0  0  0.181496  0  2.996433  0  0  0.418316  0.216578  0  3.059599  0
Cu  Cu2  1  0.43094488  0.46929078  0.91546516  1  0  0.289437  0  2.478928  0  0  0.213636  0  2.976121  0  0  0.196829  0  2.936301  0  0  0.422438  0.229507  0  2.999384  0
H  H3  1  0.90725637  0.34117744  0.19967024  1  0  0.103623  0  0.96341  0  0  0.109479  0  1.031783  0  0  0.11407  0  1.028292  0  0  0.103378  0.105905  0  1.034728  0
H  H4  1  0.08631642  0.65813747  0.79760774  1  0  0.102798  0  0.966107  0  0  0.108456  0  1.034752  0  0  0.113001  0  1.031421  0  0  0.102473  0.104952  0  1.037535  0
H  H5  1  0.18022006  0.40204354  0.08474562  1  0  0.08821  0  0.944851  0  0  0.096912  0  1.008035  0  0  0.098934  0  1.006272  0  0  0.118222  0.095086  0  1.009746  0
H  H6  1  0.80988392  0.59790753  0.91032857  1  0  0.087746  0  0.949205  0  0  0.097053  0  1.012152  0  0  0.099385  0  1.010284  0  0  0.117882  0.094934  0  1.013981  0
H  H7  1  0.52758411  0.51672822  0.30105270  1  0  0.093543  0  0.941498  0  0  0.098355  0  1.012531  0  0  0.101946  0  1.00827  0  0  0.118411  0.095645  0  1.015779  0
H  H8  1  0.46877722  0.48526343  0.69100280  1  0  0.09486  0  0.943784  0  0  0.09965  0  1.014881  0  0  0.103264  0  1.010731  0  0  0.118553  0.097001  0  1.017872  0
H  H9  1  0.14666713  0.05869996  0.79385557  1  0  0.09922  0  0.951925  0  0  0.106674  0  1.015142  0  0  0.108497  0  1.012872  0  0  0.12868  0.105224  0  1.017028  0
H  H10  1  0.86856076  0.92435628  0.21197519  1  0  0.094532  0  0.937003  0  0  0.103311  0  0.99942  0  0  0.104598  0  0.998734  0  0  0.125956  0.102439  0  0.999947  0
H  H11  1  0.57676131  0.03974241  0.89620404  1  0  0.106742  0  0.937608  0  0  0.113801  0  0.999093  0  0  0.115086  0  0.997497  0  0  0.128214  0.112499  0  1.000844  0
H  H12  1  0.43849700  0.96174268  0.11642060  1  0  0.100367  0  0.930511  0  0  0.108112  0  0.991874  0  0  0.108496  0  0.992291  0  0  0.125816  0.107842  0  0.991689  0
H  H13  1  0.94799002  0.37227114  0.37562452  1  0  0.114684  0  0.964752  0  0  0.122066  0  1.029061  0  0  0.125346  0  1.026089  0  0  0.110039  0.119729  0  1.031269  0
H  H14  1  0.05108706  0.62731688  0.62131191  1  0  0.1133  0  0.962941  0  0  0.12092  0  1.027183  0  0  0.124596  0  1.023918  0  0  0.109696  0.118232  0  1.029584  0
H  H15  1  0.65869037  0.08660499  0.58199996  1  0  0.126037  0  0.938158  0  0  0.132505  0  1.002752  0  0  0.136839  0  0.997344  0  0  0.115667  0.129158  0  1.007043  0
H  H16  1  0.33655138  0.92555529  0.42790836  1  0  0.1215  0  0.944486  0  0  0.129587  0  1.007654  0  0  0.132592  0  1.004756  0  0  0.115337  0.127564  0  1.009609  0
H  H17  1  0.43212403  0.07237267  0.72441526  1  0  0.107126  0  0.956178  0  0  0.117507  0  1.013275  0  0  0.119601  0  1.014116  0  0  0.110385  0.115964  0  1.013042  0
H  H18  1  0.57280119  0.94107565  0.29037993  1  0  0.105289  0  0.962717  0  0  0.116163  0  1.020051  0  0  0.11828  0  1.020904  0  0  0.108684  0.114756  0  1.01952  0
C  C19  1  0.72174228  0.70994519  0.06898030  1  0  -0.112658  0  3.428506  0  0  -0.11864  0  3.803883  0  0  -0.098455  0  3.800785  0  0  -0.054905  -0.132556  0  3.804462  0
C  C20  1  0.27179928  0.28643857  0.92320933  1  0  -0.116914  0  3.43598  0  0  -0.121391  0  3.811061  0  0  -0.101945  0  3.808254  0  0  -0.055526  -0.134542  0  3.811198  0
C  C21  1  0.68583027  0.31007152  0.03741749  1  0  -0.123308  0  3.50502  0  0  -0.126111  0  3.892918  0  0  -0.099769  0  3.878487  0  0  -0.071702  -0.145062  0  3.902205  0
C  C22  1  0.31547185  0.68253643  0.95987297  1  0  -0.119632  0  3.526255  0  0  -0.121118  0  3.916092  0  0  -0.094823  0  3.901209  0  0  -0.073386  -0.139975  0  3.925494  0
C  C23  1  0.04245091  0.37742275  0.22632694  1  0  -0.106627  0  3.739569  0  0  -0.114891  0  3.986243  0  0  -0.124161  0  4.009093  0  0  -0.078288  -0.109314  0  3.971917  0
C  C24  1  0.95197500  0.62232873  0.76984035  1  0  -0.108584  0  3.738194  0  0  -0.116431  0  3.986668  0  0  -0.126191  0  4.010123  0  0  -0.078548  -0.110339  0  3.971573  0
C  C25  1  0.19422298  0.41209505  0.16123196  1  0  0.163164  0  3.612488  0  0  0.131567  0  3.856274  0  0  0.139516  0  3.873619  0  0  0.06192  0.12605  0  3.84575  0
C  C26  1  0.79819771  0.58810143  0.83372306  1  0  0.163236  0  3.606371  0  0  0.130331  0  3.850803  0  0  0.138161  0  3.86839  0  0  0.060623  0.124992  0  3.839993  0
C  C27  1  0.38929993  0.47652619  0.28092085  1  0  0.100731  0  3.638075  0  0  0.061181  0  3.885959  0  0  0.068945  0  3.900453  0  0  0.059303  0.056221  0  3.876539  0
C  C28  1  0.60654033  0.52467449  0.71241810  1  0  0.093581  0  3.643224  0  0  0.054756  0  3.890097  0  0  0.061757  0  3.905508  0  0  0.057243  0.05063  0  3.879733  0
C  C29  1  0.24181202  0.44503895  0.35060209  1  0  -0.023793  0  3.859398  0  0  0.001658  0  4.090089  0  0  -0.005743  0  4.112594  0  0  0.00619  0.00631  0  4.075077  0
C  C30  1  0.75594057  0.55633006  0.64389462  1  0  -0.021895  0  3.864268  0  0  0.002793  0  4.095365  0  0  -0.00411  0  4.118027  0  0  0.006878  0.007003  0  4.080179  0
C  C31  1  0.98968196  0.06172826  0.77522084  1  0  0.096269  0  3.616802  0  0  0.05702  0  3.863915  0  0  0.068987  0  3.878372  0  0  0.065162  0.048468  0  3.855183  0
C  C32  1  0.02305928  0.92872692  0.23264896  1  0  0.099142  0  3.672506  0  0  0.062361  0  3.923832  0  0  0.069622  0  3.943167  0  0  0.072157  0.057425  0  3.910593  0
C  C33  1  0.67031555  0.05171797  0.83261204  1  0  0.138201  0  3.595534  0  0  0.103565  0  3.853529  0  0  0.118137  0  3.865766  0  0  0.064559  0.092597  0  3.847229  0
C  C34  1  0.34268290  0.94789464  0.17944732  1  0  0.141377  0  3.651826  0  0  0.110864  0  3.910799  0  0  0.119838  0  3.928861  0  0  0.071338  0.104491  0  3.898838  0
C  C35  1  0.06453476  0.39394657  0.32271339  1  0  -0.02901  0  3.666551  0  0  -0.058693  0  3.909952  0  0  -0.053383  0  3.926651  0  0  -0.055821  -0.062002  0  3.898725  0
C  C36  1  0.93281045  0.60615158  0.67326023  1  0  -0.02481  0  3.664062  0  0  -0.054649  0  3.907706  0  0  -0.049571  0  3.924283  0  0  -0.0544  -0.057722  0  3.896567  0
C  C37  1  0.92008207  0.07509920  0.67782296  1  0  -0.028292  0  3.893703  0  0  -0.00342  0  4.126226  0  0  -0.011466  0  4.146112  0  0  0.006259  0.001547  0  4.113802  0
C  C38  1  0.08361616  0.92489721  0.33038554  1  0  -0.033967  0  3.889336  0  0  -0.007119  0  4.117684  0  0  -0.015462  0  4.142016  0  0  0.005662  -0.001434  0  4.100927  0
C  C39  1  0.26518005  0.47119326  0.44751787  1  0  0.294966  0  3.753499  0  0  0.276139  0  4.02698  0  0  0.288346  0  4.047095  0  0  0.197483  0.267809  0  4.013484  0
C  C40  1  0.73426339  0.53135056  0.54663805  1  0  0.293109  0  3.75331  0  0  0.275191  0  4.026894  0  0  0.286181  0  4.046732  0  0  0.197145  0.267899  0  4.013853  0
C  C41  1  0.71547304  0.07912622  0.65696729  1  0  -0.028667  0  3.663338  0  0  -0.061662  0  3.914706  0  0  -0.051307  0  3.926534  0  0  -0.056006  -0.069477  0  3.907916  0
C  C42  1  0.28589675  0.92733066  0.35284230  1  0  -0.022586  0  3.669092  0  0  -0.053288  0  3.914748  0  0  -0.049942  0  3.935074  0  0  -0.049865  -0.054847  0  3.900057  0
C  C43  1  0.59170311  0.06912767  0.73658780  1  0  -0.111069  0  3.730008  0  0  -0.121518  0  3.985079  0  0  -0.131469  0  4.004422  0  0  -0.076496  -0.115486  0  3.973692  0
C  C44  1  0.41576216  0.93769807  0.27571998  1  0  -0.116188  0  3.726754  0  0  -0.125465  0  3.974923  0  0  -0.135312  0  3.999732  0  0  -0.075091  -0.118892  0  3.957963  0
C  C45  1  0.06790087  0.07385848  0.60596618  1  0  0.278903  0  3.744734  0  0  0.264883  0  4.012213  0  0  0.274998  0  4.032419  0  0  0.196014  0.258164  0  3.999121  0
C  C46  1  0.93253285  0.92951886  0.40032515  1  0  0.274577  0  3.753583  0  0  0.260061  0  4.019812  0  0  0.27203  0  4.040465  0  0  0.195098  0.251816  0  4.005639  0
N  N47  1  0.82598441  0.82105271  0.04312845  1  0  -0.337449  0  3.338319  0  0  -0.301991  0  3.65001  0  0  -0.327246  0  3.661822  0  0  -0.399847  -0.285592  0  3.640193  0
N  N48  1  0.16500116  0.17652128  0.94370188  1  0  -0.332634  0  3.338228  0  0  -0.29699  0  3.647049  0  0  -0.321865  0  3.659516  0  0  -0.398263  -0.280895  0  3.636678  0
N  N49  1  0.79983136  0.18808737  0.01988297  1  0  -0.314851  0  3.309236  0  0  -0.28297  0  3.622626  0  0  -0.306728  0  3.630549  0  0  -0.39616  -0.267716  0  3.615855  0
N  N50  1  0.19289138  0.80801256  0.96785531  1  0  -0.315172  0  3.305373  0  0  -0.283121  0  3.617279  0  0  -0.306736  0  3.625399  0  0  -0.395776  -0.267889  0  3.610146  0
N  N51  1  0.86847174  0.04691179  0.85216698  1  0  -0.189634  0  3.32368  0  0  -0.136879  0  3.596997  0  0  -0.16372  0  3.614776  0  0  -0.312489  -0.119892  0  3.584509  0
N  N52  1  0.15004019  0.94158147  0.15986358  1  0  -0.23074  0  3.162089  0  0  -0.182794  0  3.4311  0  0  -0.205347  0  3.450433  0  0  -0.273915  -0.166658  0  3.417355  0
N  N53  1  0.36501663  0.46136768  0.18753874  1  0  -0.258591  0  3.318033  0  0  -0.191882  0  3.608251  0  0  -0.202054  0  3.617122  0  0  -0.342581  -0.186342  0  3.602882  0
N  N54  1  0.62826897  0.53893939  0.80615512  1  0  -0.256549  0  3.316215  0  0  -0.187843  0  3.604867  0  0  -0.1985  0  3.614631  0  0  -0.342374  -0.181996  0  3.59871  0
N  N55  1  0.27682015  0.49615693  0.52645442  1  0  -0.413543  0  2.603118  0  0  -0.386684  0  2.82952  0  0  -0.401332  0  2.843493  0  0  -0.300256  -0.376503  0  2.820037  0
N  N56  1  0.72281225  0.50768618  0.46737445  1  0  -0.40941  0  2.599911  0  0  -0.384057  0  2.825972  0  0  -0.396256  0  2.839215  0  0  -0.300202  -0.376309  0  2.817444  0
N  N57  1  0.19930000  0.06584047  0.55291243  1  0  -0.389242  0  2.588241  0  0  -0.364652  0  2.807703  0  0  -0.37628  0  2.822001  0  0  -0.290995  -0.357361  0  2.798388  0
N  N58  1  0.79913531  0.94111966  0.45198817  1  0  -0.392822  0  2.5876  0  0  -0.365507  0  2.806635  0  0  -0.380205  0  2.82142  0  0  -0.290799  -0.354873  0  2.796342  0
