# generated using pymatgen
data_CdH24C26(N2O3)2
_symmetry_space_group_name_H-M   'P 1'
_cell_length_a   12.41081117
_cell_length_b   13.10444859
_cell_length_c   16.19023033
_cell_angle_alpha   90.00034226
_cell_angle_beta   89.99992592
_cell_angle_gamma   97.23509982
_symmetry_Int_Tables_number   1
_chemical_formula_structural   CdH24C26(N2O3)2
_chemical_formula_sum   'Cd4 H96 C104 N16 O24'
_cell_volume   2612.16218968
_cell_formula_units_Z   4
loop_
 _symmetry_equiv_pos_site_id
 _symmetry_equiv_pos_as_xyz
  1  'x, y, z'
loop_
 _atom_site_type_symbol
 _atom_site_label
 _atom_site_symmetry_multiplicity
 _atom_site_fract_x
 _atom_site_fract_y
 _atom_site_fract_z
 _atom_site_occupancy
 _atom_site_pbe_bader_charge
 _atom_site_pbe_bader_spin_density
 _atom_site_pbe_cm5_charge
 _atom_site_pbe_ddec_charge
 _atom_site_pbe_ddec_spin_density
 _atom_site_pbe_ddec_sum_bond_order
 _atom_site_pbe_magmom
Cd  Cd0  1  0.02206877  0.36385014  0.54460093  1  1.266877  0  0.758005  0.868537  0  2.166368  0
Cd  Cd1  1  0.97793704  0.13615208  0.04459961  1  1.266835  0  0.758012  0.868536  0  2.166225  0
Cd  Cd2  1  0.97793337  0.63615191  0.45539921  1  1.266875  0  0.757994  0.868535  0  2.166297  0
Cd  Cd3  1  0.02206358  0.86385072  0.95539929  1  1.266798  0  0.758004  0.868522  0  2.166323  0
H  H4  1  0.29814014  0.34107638  0.16900448  1  0.434066  0  0.323467  0.275988  0  0.938025  0
H  H5  1  0.70186230  0.15891978  0.66900043  1  0.434062  0  0.323534  0.276124  0  0.938057  0
H  H6  1  0.70186029  0.65892489  0.83099998  1  0.433989  0  0.323499  0.276046  0  0.938147  0
H  H7  1  0.29814180  0.84107845  0.33099848  1  0.434128  0  0.323468  0.27598  0  0.938021  0
H  H8  1  0.78998055  0.42451711  0.93273849  1  0.462104  0  0.331815  0.289955  0  0.910053  0
H  H9  1  0.21000781  0.07548615  0.43274563  1  0.461866  0  0.331714  0.289773  0  0.91009  0
H  H10  1  0.21001467  0.57548103  0.06725979  1  0.462044  0  0.331757  0.289846  0  0.910078  0
H  H11  1  0.78998736  0.92451813  0.56725698  1  0.461965  0  0.331747  0.289861  0  0.910101  0
H  H12  1  0.26804940  0.38847106  0.50085103  1  0.115115  0  0.120012  0.105115  0  0.999197  0
H  H13  1  0.73195836  0.11152011  0.00084550  1  0.115288  0  0.120021  0.105151  0  0.999224  0
H  H14  1  0.73195119  0.61152483  0.49915343  1  0.1153  0  0.120047  0.105126  0  0.999295  0
H  H15  1  0.26804873  0.88846969  0.99914908  1  0.115154  0  0.120023  0.105158  0  0.999131  0
H  H16  1  0.39832304  0.40507961  0.38121405  1  0.110261  0  0.113794  0.138614  0  1.011796  0
H  H17  1  0.60168445  0.09490810  0.88120978  1  0.110382  0  0.113852  0.138656  0  1.011708  0
H  H18  1  0.60167678  0.59492318  0.61878980  1  0.110149  0  0.113855  0.138652  0  1.011743  0
H  H19  1  0.39832583  0.90507482  0.11878542  1  0.110245  0  0.113828  0.138679  0  1.011674  0
H  H20  1  0.00492734  0.31490993  0.34614101  1  0.10594  0  0.114758  0.081836  0  1.028362  0
H  H21  1  0.99507447  0.18509669  0.84613619  1  0.105856  0  0.114792  0.081908  0  1.028412  0
H  H22  1  0.99507220  0.68509056  0.65386160  1  0.105939  0  0.114763  0.081877  0  1.028357  0
H  H23  1  0.00492848  0.81490537  0.15386086  1  0.105923  0  0.114778  0.081857  0  1.028403  0
H  H24  1  0.05829744  0.41968422  0.73429817  1  0.108527  0  0.125021  0.094848  0  1.017283  0
H  H25  1  0.94169360  0.08031844  0.23429537  1  0.108357  0  0.125016  0.094794  0  1.0172  0
H  H26  1  0.94170560  0.58031861  0.26570939  1  0.108563  0  0.125053  0.094898  0  1.017214  0
H  H27  1  0.05829673  0.91968580  0.76570662  1  0.108131  0  0.125021  0.094865  0  1.017222  0
H  H28  1  0.95849599  0.43149706  0.86652010  1  0.065523  0  0.119517  0.137581  0  0.969335  0
H  H29  1  0.04148868  0.06850801  0.36651995  1  0.066545  0  0.119539  0.137527  0  0.969418  0
H  H30  1  0.04150014  0.56850186  0.13348436  1  0.065503  0  0.119484  0.137516  0  0.96936  0
H  H31  1  0.95850283  0.93149931  0.63348266  1  0.065394  0  0.119507  0.137549  0  0.969411  0
H  H32  1  0.65968329  0.38481951  0.72567037  1  0.123209  0  0.113677  0.139817  0  1.01956  0
H  H33  1  0.34030971  0.11517926  0.22567944  1  0.123351  0  0.113704  0.139843  0  1.019606  0
H  H34  1  0.34031767  0.61517946  0.27432668  1  0.123165  0  0.113677  0.139844  0  1.019537  0
H  H35  1  0.65968471  0.88481887  0.77432194  1  0.123238  0  0.113661  0.139795  0  1.019574  0
H  H36  1  0.77405762  0.38099298  0.59891918  1  0.061911  0  0.114585  0.082693  0  1.011354  0
H  H37  1  0.22594417  0.11900344  0.09892343  1  0.062079  0  0.114548  0.082712  0  1.011177  0
H  H38  1  0.22595079  0.61900760  0.40108035  1  0.061794  0  0.114604  0.082722  0  1.011363  0
H  H39  1  0.77404972  0.88099699  0.90107733  1  0.061881  0  0.114561  0.082715  0  1.011276  0
H  H40  1  0.11956505  0.32683649  0.22104085  1  0.140606  0  0.111627  0.142855  0  1.002256  0
H  H41  1  0.88043776  0.17317002  0.72103423  1  0.140458  0  0.111713  0.142944  0  1.002085  0
H  H42  1  0.88043713  0.67317247  0.77896362  1  0.140501  0  0.111733  0.142948  0  1.00208  0
H  H43  1  0.11956842  0.82683207  0.27896097  1  0.14058  0  0.111638  0.142804  0  1.002302  0
H  H44  1  0.60660131  0.53396015  0.14874568  1  0.126118  0  0.117203  0.122406  0  1.005414  0
H  H45  1  0.39340317  0.96602732  0.64874160  1  0.126063  0  0.117226  0.122473  0  1.005555  0
H  H46  1  0.39340132  0.46603268  0.85125446  1  0.126062  0  0.117283  0.122549  0  1.005525  0
H  H47  1  0.60660121  0.03397322  0.35125546  1  0.125991  0  0.117246  0.12248  0  1.005656  0
H  H48  1  0.39609953  0.25245101  0.10248447  1  0.05532  0  0.107643  0.103267  0  1.013632  0
H  H49  1  0.60389429  0.24754613  0.60248095  1  0.054881  0  0.10767  0.103295  0  1.013724  0
H  H50  1  0.60389560  0.74754636  0.89752000  1  0.054741  0  0.107657  0.103277  0  1.013731  0
H  H51  1  0.39610777  0.75245515  0.39751240  1  0.055648  0  0.107685  0.103323  0  1.013652  0
H  H52  1  0.48389039  0.23703255  0.96621392  1  0.118004  0  0.114007  0.113636  0  1.008099  0
H  H53  1  0.51609824  0.26296020  0.46621120  1  0.118409  0  0.114014  0.113633  0  1.008178  0
H  H54  1  0.51610327  0.76295943  0.03379240  1  0.118365  0  0.114021  0.113651  0  1.00814  0
H  H55  1  0.48390068  0.73704182  0.53378400  1  0.118195  0  0.114  0.11358  0  1.008279  0
H  H56  1  0.69661744  0.51728184  0.01340904  1  0.072719  0  0.107741  0.104245  0  1.002467  0
H  H57  1  0.30337652  0.98270995  0.51340821  1  0.072617  0  0.107718  0.104256  0  1.002342  0
H  H58  1  0.30337612  0.48270938  0.98658924  1  0.072623  0  0.107736  0.104271  0  1.002344  0
H  H59  1  0.69662544  0.01729056  0.48658946  1  0.072625  0  0.107711  0.10423  0  1.002342  0
H  H60  1  0.70521667  0.28888220  0.18664937  1  0.020992  0  0.095669  0.084568  0  0.962227  0
H  H61  1  0.29478661  0.21112100  0.68664967  1  0.02095  0  0.095677  0.084606  0  0.962247  0
H  H62  1  0.29478647  0.71112140  0.81335016  1  0.020973  0  0.095658  0.08457  0  0.962239  0
H  H63  1  0.70521089  0.78888254  0.31335047  1  0.020968  0  0.095668  0.08461  0  0.96213  0
H  H64  1  0.73969009  0.13835906  0.26624883  1  0.002269  0  0.092182  0.09311  0  1.001894  0
H  H65  1  0.26031635  0.36164473  0.76625176  1  0.002198  0  0.092165  0.093078  0  1.001879  0
H  H66  1  0.26031315  0.86164530  0.73374945  1  0.002194  0  0.092156  0.093072  0  1.001887  0
H  H67  1  0.73968105  0.63835804  0.23374899  1  0.00213  0  0.092189  0.093152  0  1.001841  0
H  H68  1  0.85270522  0.20795490  0.31630321  1  -0.001978  0  0.081677  0.072852  0  1.011847  0
H  H69  1  0.14729857  0.29204769  0.81630776  1  -0.001975  0  0.081646  0.072816  0  1.011828  0
H  H70  1  0.14729522  0.79204637  0.68369446  1  -0.001651  0  0.081669  0.072848  0  1.011791  0
H  H71  1  0.85269874  0.70795431  0.18369485  1  -0.001867  0  0.081644  0.072793  0  1.01184  0
H  H72  1  0.90832361  0.40192069  0.26830188  1  0.017759  0  0.081057  0.069837  0  1.03789  0
H  H73  1  0.09167913  0.09807924  0.76829810  1  0.017622  0  0.08108  0.069868  0  1.037876  0
H  H74  1  0.09167764  0.59808058  0.73170011  1  0.017662  0  0.081058  0.069867  0  1.037886  0
H  H75  1  0.90831969  0.90192201  0.23169833  1  0.017784  0  0.081076  0.069904  0  1.037782  0
H  H76  1  0.82824158  0.45303649  0.19330188  1  -0.018662  0  0.081878  0.073469  0  0.998039  0
H  H77  1  0.17176179  0.04696753  0.69329715  1  -0.018727  0  0.081858  0.073447  0  0.998024  0
H  H78  1  0.17176085  0.54696786  0.80670012  1  -0.018675  0  0.081859  0.073445  0  0.998106  0
H  H79  1  0.82823428  0.95303754  0.30670052  1  -0.01867  0  0.081876  0.073479  0  0.998001  0
H  H80  1  0.69336096  0.19646478  0.40856631  1  0.019564  0  0.079266  0.073043  0  1.030815  0
H  H81  1  0.30664613  0.30353311  0.90856767  1  0.019501  0  0.079324  0.073088  0  1.03081  0
H  H82  1  0.30664404  0.80353422  0.59143383  1  0.019551  0  0.0793  0.073098  0  1.03079  0
H  H83  1  0.69335493  0.69646662  0.09143185  1  0.019516  0  0.079311  0.073088  0  1.030812  0
H  H84  1  0.61582580  0.24931595  0.33136807  1  0.062621  0  0.086611  0.089882  0  1.010883  0
H  H85  1  0.38418011  0.25068446  0.83136601  1  0.062531  0  0.086595  0.089842  0  1.010898  0
H  H86  1  0.38417687  0.75068380  0.66863331  1  0.062597  0  0.086586  0.089832  0  1.010873  0
H  H87  1  0.61581539  0.74931599  0.16863228  1  0.062496  0  0.086605  0.089835  0  1.01087  0
H  H88  1  0.67657518  0.38485130  0.42845100  1  0.011885  0  0.098209  0.078824  0  0.956844  0
H  H89  1  0.32343080  0.11514442  0.92844523  1  0.011836  0  0.098197  0.078759  0  0.95674  0
H  H90  1  0.32342640  0.61514614  0.57155161  1  0.011869  0  0.098215  0.078808  0  0.956762  0
H  H91  1  0.67656765  0.88485375  0.07155182  1  0.011777  0  0.098203  0.078755  0  0.956808  0
H  H92  1  0.67031973  0.44035689  0.28866128  1  0.044718  0  0.082557  0.086009  0  1.034808  0
H  H93  1  0.32967938  0.05964008  0.78865647  1  0.044859  0  0.082545  0.086012  0  1.034814  0
H  H94  1  0.32967990  0.55964436  0.71134071  1  0.044852  0  0.08257  0.086048  0  1.034757  0
H  H95  1  0.67031631  0.94036191  0.21133996  1  0.044613  0  0.082537  0.086053  0  1.034813  0
H  H96  1  0.78317788  0.51176359  0.33592262  1  0.106445  0  0.085994  0.097182  0  1.06125  0
H  H97  1  0.21682401  0.98823824  0.83591634  1  0.106558  0  0.086  0.097186  0  1.06136  0
H  H98  1  0.21682426  0.48823846  0.66408061  1  0.106539  0  0.085999  0.097221  0  1.06129  0
H  H99  1  0.78317400  0.01176300  0.16407886  1  0.106556  0  0.086024  0.097238  0  1.061235  0
C  C100  1  0.23993874  0.37631068  0.43733432  1  0.452701  0  0.040167  0.094001  0  3.973207  0
C  C101  1  0.76006994  0.12368744  0.93732818  1  0.452949  0  0.040104  0.093796  0  3.973582  0
C  C102  1  0.76006384  0.62368830  0.56266891  1  0.45265  0  0.040156  0.093998  0  3.973502  0
C  C103  1  0.23993639  0.87630927  0.06266516  1  0.452666  0  0.040138  0.093972  0  3.973294  0
C  C104  1  0.31184376  0.38461796  0.37140936  1  0.063509  0  -0.095014  -0.231554  0  3.946206  0
C  C105  1  0.68816056  0.11537657  0.87140325  1  0.063252  0  -0.094992  -0.231472  0  3.945969  0
C  C106  1  0.68815701  0.61537947  0.62859325  1  0.063536  0  -0.095043  -0.231534  0  3.94601  0
C  C107  1  0.31184326  0.88461935  0.12859009  1  0.06347  0  -0.095073  -0.231696  0  3.946151  0
C  C108  1  0.27000251  0.36641704  0.29133574  1  0.340552  0  0.115878  0.28553  0  4.035863  0
C  C109  1  0.73000191  0.13358384  0.79132845  1  0.34048  0  0.115745  0.285504  0  4.035651  0
C  C110  1  0.73000172  0.63358887  0.70866687  1  0.340499  0  0.115762  0.285412  0  4.035637  0
C  C111  1  0.27000513  0.86641211  0.20866366  1  0.340363  0  0.115881  0.285519  0  4.035945  0
C  C112  1  0.09251269  0.33479674  0.35145471  1  0.469206  0  0.043784  0.108762  0  3.985312  0
C  C113  1  0.90749539  0.16520844  0.85145112  1  0.469413  0  0.043745  0.108625  0  3.9853  0
C  C114  1  0.90748893  0.66520761  0.64854790  1  0.469443  0  0.043805  0.10875  0  3.985158  0
C  C115  1  0.09251241  0.83479366  0.14854593  1  0.469284  0  0.043771  0.108647  0  3.985314  0
C  C116  1  0.97004115  0.41333211  0.73504632  1  0.502084  0  0.054248  0.111676  0  3.958339  0
C  C117  1  0.02995212  0.08666903  0.23504565  1  0.502575  0  0.054323  0.111713  0  3.95847  0
C  C118  1  0.02995867  0.58667068  0.26495567  1  0.502313  0  0.054263  0.111656  0  3.958357  0
C  C119  1  0.97004196  0.91333294  0.76495572  1  0.502746  0  0.054319  0.111747  0  3.958244  0
C  C120  1  0.91391066  0.41893293  0.80859812  1  0.098337  0  -0.084032  -0.226871  0  3.934748  0
C  C121  1  0.08607932  0.08106871  0.30859861  1  0.097203  0  -0.084012  -0.226732  0  3.935244  0
C  C122  1  0.08608930  0.58106449  0.19140572  1  0.098134  0  -0.083981  -0.226754  0  3.935149  0
C  C123  1  0.91391523  0.91893711  0.69140276  1  0.098103  0  -0.084026  -0.226858  0  3.935061  0
C  C124  1  0.79997855  0.40546997  0.80714295  1  0.316954  0  0.114913  0.284854  0  4.026692  0
C  C125  1  0.20000598  0.09453314  0.30714648  1  0.317037  0  0.114782  0.28478  0  4.026839  0
C  C126  1  0.20001667  0.59452817  0.19286028  1  0.316939  0  0.114849  0.284849  0  4.026821  0
C  C127  1  0.79998776  0.90547267  0.69285551  1  0.316905  0  0.114851  0.284856  0  4.026727  0
C  C128  1  0.74763051  0.39249332  0.73016751  1  -0.003163  0  -0.095876  -0.238219  0  3.95451  0
C  C129  1  0.25236381  0.10750319  0.23016982  1  -0.003114  0  -0.095839  -0.238195  0  3.954424  0
C  C130  1  0.25237296  0.60750644  0.26983511  1  -0.003225  0  -0.095904  -0.238386  0  3.9546  0
C  C131  1  0.74762979  0.89249494  0.76982908  1  -0.003015  0  -0.095828  -0.238173  0  3.954377  0
C  C132  1  0.81137662  0.39020997  0.65990040  1  0.468025  0  0.042062  0.094809  0  3.992456  0
C  C133  1  0.18862000  0.10978453  0.15990402  1  0.467924  0  0.042046  0.094692  0  3.992498  0
C  C134  1  0.18862928  0.60978981  0.34010159  1  0.46802  0  0.042123  0.094951  0  3.992725  0
C  C135  1  0.81137309  0.89021590  0.84009735  1  0.467953  0  0.042159  0.094869  0  3.992489  0
C  C136  1  0.15745984  0.34118345  0.28156749  1  -0.015584  0  -0.09466  -0.242201  0  3.939022  0
C  C137  1  0.84254417  0.15882043  0.78156331  1  -0.01589  0  -0.09471  -0.242281  0  3.938808  0
C  C138  1  0.84254340  0.65882091  0.71843574  1  -0.015954  0  -0.094777  -0.242273  0  3.93874  0
C  C139  1  0.15746254  0.84117936  0.21843436  1  -0.015627  0  -0.094694  -0.242062  0  3.938992  0
C  C140  1  0.44227630  0.41407282  0.21455861  1  1.41914  0  0.249634  0.481424  0  4.096867  0
C  C141  1  0.55772307  0.08592516  0.71455618  1  1.419106  0  0.249629  0.481512  0  4.096819  0
C  C142  1  0.55772457  0.58592537  0.78544400  1  1.419226  0  0.249597  0.481458  0  4.09679  0
C  C143  1  0.44227998  0.91407767  0.28544087  1  1.418801  0  0.249723  0.481601  0  4.096524  0
C  C144  1  0.49467839  0.39639649  0.13360849  1  -0.099132  0  -0.008715  -0.033575  0  3.986397  0
C  C145  1  0.50532513  0.10359482  0.63360249  1  -0.098689  0  -0.008763  -0.033527  0  3.986444  0
C  C146  1  0.50532058  0.60359939  0.86639598  1  -0.099174  0  -0.008702  -0.033358  0  3.986416  0
C  C147  1  0.49468105  0.89640727  0.36639394  1  -0.099467  0  -0.008808  -0.033543  0  3.986524  0
C  C148  1  0.58173154  0.46845755  0.10873622  1  -0.004092  0  -0.0674  -0.073601  0  3.932725  0
C  C149  1  0.41826745  0.03153584  0.60873365  1  -0.004131  0  -0.067357  -0.073694  0  3.932924  0
C  C150  1  0.41826877  0.53153603  0.89126454  1  -0.004151  0  -0.06746  -0.073933  0  3.933011  0
C  C151  1  0.58173479  0.96846698  0.39126463  1  -0.004158  0  -0.067408  -0.073818  0  3.932996  0
C  C152  1  0.46079998  0.31156739  0.08283137  1  -0.014749  0  -0.079394  -0.102329  0  3.968539  0
C  C153  1  0.53919347  0.18842653  0.58282762  1  -0.014501  0  -0.07942  -0.102404  0  3.96865  0
C  C154  1  0.53919719  0.68842693  0.91717309  1  -0.014032  0  -0.079395  -0.102412  0  3.968689  0
C  C155  1  0.46080625  0.81157549  0.41716758  1  -0.014622  0  -0.079304  -0.102269  0  3.968676  0
C  C156  1  0.63703893  0.36440721  0.89536155  1  1.375157  0  0.245124  0.470137  0  4.121522  0
C  C157  1  0.36295032  0.13558965  0.39536205  1  1.375235  0  0.245152  0.470139  0  4.121241  0
C  C158  1  0.36295948  0.63558405  0.10464106  1  1.375319  0  0.245042  0.469972  0  4.121497  0
C  C159  1  0.63704248  0.86440847  0.60463685  1  1.375158  0  0.245069  0.470017  0  4.121636  0
C  C160  1  0.59595911  0.37468136  0.98120534  1  -0.005005  0  -0.009987  -0.033883  0  4.000302  0
C  C161  1  0.40403549  0.12530771  0.48120637  1  -0.00441  0  -0.010009  -0.033825  0  4.000126  0
C  C162  1  0.40403517  0.62530909  0.01879294  1  -0.004387  0  -0.010064  -0.033907  0  4.000126  0
C  C163  1  0.59596457  0.87469048  0.51879377  1  -0.004344  0  -0.01011  -0.034006  0  4.00043  0
C  C164  1  0.51081953  0.30112466  0.00711962  1  -0.041627  0  -0.070662  -0.076713  0  3.951878  0
C  C165  1  0.48917531  0.19886643  0.50711658  1  -0.042664  0  -0.070705  -0.076778  0  3.95193  0
C  C166  1  0.48918039  0.69886584  0.99288485  1  -0.042613  0  -0.070732  -0.076789  0  3.95188  0
C  C167  1  0.51082351  0.80113482  0.49287800  1  -0.042309  0  -0.070704  -0.076741  0  3.952117  0
C  C168  1  0.63226644  0.45772243  0.03310475  1  -0.067869  0  -0.079852  -0.106584  0  3.972702  0
C  C169  1  0.36773198  0.04227195  0.53310291  1  -0.067768  0  -0.079803  -0.106534  0  3.972568  0
C  C170  1  0.36773134  0.54227035  0.96689786  1  -0.067739  0  -0.079771  -0.106445  0  3.972458  0
C  C171  1  0.63226827  0.95772778  0.46689847  1  -0.067719  0  -0.079774  -0.106421  0  3.972581  0
C  C172  1  0.86115371  0.25245663  0.15163549  1  1.538087  0  0.184586  0.568505  0  4.192923  0
C  C173  1  0.13884789  0.24754554  0.65163797  1  1.538181  0  0.184651  0.56858  0  4.192823  0
C  C174  1  0.13884639  0.74754847  0.84836094  1  1.53812  0  0.184686  0.568617  0  4.192672  0
C  C175  1  0.86114899  0.75245954  0.34836093  1  1.53797  0  0.184563  0.568399  0  4.192995  0
C  C176  1  0.78578245  0.29082771  0.21607140  1  0.011485  0  -0.09419  -0.101433  0  3.866451  0
C  C177  1  0.21422114  0.20917186  0.71607300  1  0.011609  0  -0.094105  -0.101434  0  3.866469  0
C  C178  1  0.21421790  0.70917279  0.78392812  1  0.011573  0  -0.094108  -0.101349  0  3.866371  0
C  C179  1  0.78577545  0.79083090  0.28392652  1  0.01173  0  -0.094138  -0.10134  0  3.866259  0
C  C180  1  0.77229100  0.21493983  0.28929809  1  0.017191  0  -0.16513  -0.153163  0  3.892318  0
C  C181  1  0.22771263  0.28506103  0.78930129  1  0.017308  0  -0.165135  -0.153147  0  3.892245  0
C  C182  1  0.22771106  0.78506145  0.71069958  1  0.016931  0  -0.1651  -0.153102  0  3.892309  0
C  C183  1  0.77228288  0.71493942  0.21069885  1  0.017222  0  -0.165145  -0.153174  0  3.892329  0
C  C184  1  0.82427036  0.39957377  0.24604837  1  0.00307  0  -0.174571  -0.159596  0  3.964993  0
C  C185  1  0.17572879  0.10042290  0.74604638  1  0.003177  0  -0.174637  -0.159627  0  3.965051  0
C  C186  1  0.17572799  0.60042363  0.75395239  1  0.00313  0  -0.17461  -0.159663  0  3.96509  0
C  C187  1  0.82426581  0.89957677  0.25395314  1  0.003053  0  -0.174637  -0.159717  0  3.964963  0
C  C188  1  0.69843083  0.25026609  0.35628059  1  -0.036069  0  -0.175077  -0.175493  0  3.945385  0
C  C189  1  0.30157118  0.24972908  0.85628107  1  -0.035991  0  -0.175148  -0.175585  0  3.945553  0
C  C190  1  0.30156753  0.74973131  0.64371894  1  -0.036021  0  -0.175133  -0.175623  0  3.945536  0
C  C191  1  0.69842798  0.75026833  0.14371907  1  -0.036011  0  -0.175115  -0.175531  0  3.945623  0
C  C192  1  0.84010463  0.36301077  0.44138336  1  1.509022  0  0.192533  0.574556  0  4.142236  0
C  C193  1  0.15989650  0.13698500  0.94138403  1  1.508898  0  0.192536  0.574491  0  4.142275  0
C  C194  1  0.15989534  0.63698665  0.55861555  1  1.509221  0  0.192552  0.574553  0  4.142346  0
C  C195  1  0.84010223  0.86301548  0.05861179  1  1.509064  0  0.192565  0.574641  0  4.142121  0
C  C196  1  0.73863202  0.35927673  0.38673686  1  0.040112  0  -0.088337  -0.087735  0  3.858262  0
C  C197  1  0.26137095  0.14072020  0.88673560  1  0.040124  0  -0.088264  -0.087393  0  3.857922  0
C  C198  1  0.26136794  0.64072069  0.61326328  1  0.040098  0  -0.088322  -0.087592  0  3.858045  0
C  C199  1  0.73862697  0.85928027  0.11326145  1  0.039744  0  -0.088346  -0.087578  0  3.857987  0
C  C200  1  0.75169351  0.43468032  0.31386840  1  -0.093319  0  -0.180707  -0.188861  0  3.917725  0
C  C201  1  0.24830687  0.06532068  0.81386555  1  -0.093598  0  -0.180717  -0.188941  0  3.917854  0
C  C202  1  0.24830693  0.56532095  0.68613235  1  -0.093545  0  -0.180711  -0.188931  0  3.917736  0
C  C203  1  0.75168954  0.93468054  0.18613088  1  -0.092987  0  -0.1807  -0.18898  0  3.917717  0
N  N204  1  0.13189449  0.35196301  0.42815161  1  -1.231503  0  -0.338829  -0.256916  0  3.517941  0
N  N205  1  0.86810964  0.14803730  0.92814797  1  -1.231577  0  -0.338777  -0.25672  0  3.51786  0
N  N206  1  0.86810610  0.64803288  0.57185100  1  -1.23141  0  -0.338846  -0.256954  0  3.517898  0
N  N207  1  0.13189384  0.85196246  0.07185032  1  -1.231552  0  -0.338787  -0.256851  0  3.518017  0
N  N208  1  0.33523408  0.37042788  0.22128606  1  -1.227485  0  -0.39487  -0.380144  0  3.585608  0
N  N209  1  0.66476742  0.12956787  0.72128005  1  -1.227365  0  -0.394944  -0.380415  0  3.585787  0
N  N210  1  0.66476745  0.62957570  0.77871655  1  -1.227231  0  -0.394821  -0.380218  0  3.585768  0
N  N211  1  0.33523639  0.87042805  0.27871515  1  -1.227269  0  -0.394837  -0.380169  0  3.585517  0
N  N212  1  0.92033804  0.39850238  0.66146490  1  -1.197847  0  -0.331397  -0.243845  0  3.501974  0
N  N213  1  0.07966014  0.10149829  0.16146858  1  -1.198273  0  -0.331396  -0.243761  0  3.502234  0
N  N214  1  0.07966904  0.60150049  0.33853710  1  -1.197805  0  -0.331436  -0.243928  0  3.502203  0
N  N215  1  0.92033242  0.89850443  0.83853527  1  -1.197704  0  -0.331449  -0.243916  0  3.502099  0
N  N216  1  0.74381446  0.40609123  0.88173672  1  -1.234261  0  -0.392439  -0.381566  0  3.551989  0
N  N217  1  0.25617267  0.09390783  0.38174082  1  -1.234301  0  -0.392266  -0.381363  0  3.551943  0
N  N218  1  0.25618219  0.59390539  0.11826465  1  -1.234148  0  -0.392265  -0.381358  0  3.551935  0
N  N219  1  0.74382041  0.90609260  0.61826055  1  -1.234157  0  -0.392385  -0.381559  0  3.552056  0
O  O220  1  0.57837798  0.32205861  0.84067726  1  -1.121532  0  -0.264182  -0.438557  0  2.143567  0
O  O221  1  0.42161231  0.17793941  0.34067853  1  -1.12153  0  -0.264275  -0.438614  0  2.143162  0
O  O222  1  0.42162099  0.67793726  0.15932411  1  -1.121795  0  -0.264203  -0.438528  0  2.143471  0
O  O223  1  0.57838405  0.82205490  0.65931852  1  -1.121677  0  -0.264144  -0.438421  0  2.143455  0
O  O224  1  0.49076321  0.46558709  0.27000203  1  -1.117609  0  -0.266565  -0.437427  0  2.112199  0
O  O225  1  0.50923829  0.03441591  0.77000001  1  -1.117549  0  -0.266517  -0.437448  0  2.112344  0
O  O226  1  0.50923884  0.53441419  0.72999935  1  -1.117523  0  -0.266542  -0.437454  0  2.112239  0
O  O227  1  0.49076147  0.96559303  0.22999581  1  -1.117285  0  -0.266649  -0.437571  0  2.112082  0
O  O228  1  0.90026908  0.44861258  0.45282748  1  -1.192513  0  -0.339357  -0.578434  0  2.290564  0
O  O229  1  0.09973920  0.05138256  0.95283520  1  -1.192598  0  -0.339371  -0.578449  0  2.290643  0
O  O230  1  0.09973857  0.55138183  0.54716648  1  -1.192736  0  -0.339346  -0.578439  0  2.290523  0
O  O231  1  0.90025938  0.94862329  0.04716680  1  -1.192744  0  -0.339303  -0.578442  0  2.290341  0
O  O232  1  0.82560862  0.16630246  0.11700824  1  -1.179276  0  -0.343571  -0.578194  0  2.273867  0
O  O233  1  0.17439229  0.33370022  0.61701112  1  -1.179373  0  -0.343641  -0.578279  0  2.273857  0
O  O234  1  0.17439039  0.83370033  0.88299252  1  -1.179305  0  -0.34369  -0.578338  0  2.273778  0
O  O235  1  0.82560772  0.66630411  0.38298964  1  -1.179221  0  -0.343537  -0.578182  0  2.273931  0
O  O236  1  0.95369172  0.30099093  0.13606754  1  -1.190183  0  -0.356193  -0.590182  0  2.110723  0
O  O237  1  0.04631221  0.19901038  0.63606678  1  -1.190218  0  -0.356214  -0.590204  0  2.110723  0
O  O238  1  0.04630909  0.69901341  0.86393198  1  -1.190224  0  -0.356204  -0.590183  0  2.110664  0
O  O239  1  0.95368671  0.80099164  0.36393027  1  -1.19019  0  -0.356196  -0.590143  0  2.11077  0
O  O240  1  0.86080860  0.28098389  0.47741290  1  -1.183632  0  -0.349907  -0.577355  0  2.15021  0
O  O241  1  0.13919800  0.21901756  0.97741214  1  -1.183412  0  -0.349858  -0.577322  0  2.150289  0
O  O242  1  0.13919155  0.71901507  0.52258972  1  -1.183661  0  -0.349905  -0.577337  0  2.150397  0
O  O243  1  0.86080244  0.78098370  0.02258738  1  -1.183384  0  -0.349932  -0.577415  0  2.150449  0
