# generated using pymatgen
data_CdH8C10I2(NCl)2
_symmetry_space_group_name_H-M   'P 1'
_cell_length_a   4.17086354
_cell_length_b   12.38015001
_cell_length_c   14.51768683
_cell_angle_alpha   90.00056679
_cell_angle_beta   90.00004724
_cell_angle_gamma   85.48117040
_symmetry_Int_Tables_number   1
_chemical_formula_structural   CdH8C10I2(NCl)2
_chemical_formula_sum   'Cd2 H16 C20 I4 N4 Cl4'
_cell_volume   747.30382037
_cell_formula_units_Z   2
loop_
 _symmetry_equiv_pos_site_id
 _symmetry_equiv_pos_as_xyz
  1  'x, y, z'
loop_
 _atom_site_type_symbol
 _atom_site_label
 _atom_site_symmetry_multiplicity
 _atom_site_fract_x
 _atom_site_fract_y
 _atom_site_fract_z
 _atom_site_occupancy
 _atom_site_hle17_bader_spin_density
 _atom_site_hle17_ddec_charge
 _atom_site_hle17_ddec_spin_density
 _atom_site_hle17_ddec_sum_bond_order
 _atom_site_hle17_magmom
 _atom_site_hse06_10hf_bader_spin_density
 _atom_site_hse06_10hf_ddec_charge
 _atom_site_hse06_10hf_ddec_spin_density
 _atom_site_hse06_10hf_ddec_sum_bond_order
 _atom_site_hse06_10hf_magmom
 _atom_site_hse06_bader_spin_density
 _atom_site_hse06_ddec_charge
 _atom_site_hse06_ddec_spin_density
 _atom_site_hse06_ddec_sum_bond_order
 _atom_site_hse06_magmom
 _atom_site_pbe_bader_spin_density
 _atom_site_pbe_cm5_charge
 _atom_site_pbe_ddec_charge
 _atom_site_pbe_ddec_spin_density
 _atom_site_pbe_ddec_sum_bond_order
 _atom_site_pbe_magmom
Cd  Cd0  1  0.99999346  0.99999941  0.99999796  1  0  0.729892  0  2.052099  0  0  0.577959  0  2.474781  0  0  0.628095  0  2.444041  0  0  0.469103  0.542782  0  2.496614  0
Cd  Cd1  1  0.99999779  0.49999681  0.50000234  1  0  0.729875  0  2.052039  0  0  0.577973  0  2.474655  0  0  0.62809  0  2.443958  0  0  0.469113  0.542796  0  2.496493  0
H  H2  1  0.77916813  0.89764741  0.80301165  1  0  0.077916  0  0.992405  0  0  0.083032  0  1.06639  0  0  0.086302  0  1.063186  0  0  0.093424  0.080673  0  1.068652  0
H  H3  1  0.77918221  0.39763811  0.69699339  1  0  0.077894  0  0.992449  0  0  0.083053  0  1.06639  0  0  0.086334  0  1.063175  0  0  0.093425  0.08067  0  1.068678  0
H  H4  1  0.22081111  0.10235056  0.19698287  1  0  0.077921  0  0.992398  0  0  0.082993  0  1.066433  0  0  0.086264  0  1.063227  0  0  0.09341  0.080645  0  1.068688  0
H  H5  1  0.22084549  0.60235601  0.30301835  1  0  0.077925  0  0.992449  0  0  0.083054  0  1.066414  0  0  0.086323  0  1.06321  0  0  0.093428  0.080681  0  1.068693  0
H  H6  1  0.95644922  0.10476716  0.57150246  1  0  0.1087  0  0.955724  0  0  0.113272  0  1.02803  0  0  0.117091  0  1.024294  0  0  0.09524  0.110457  0  1.030798  0
H  H7  1  0.95648872  0.60475947  0.92849941  1  0  0.108702  0  0.955888  0  0  0.113325  0  1.028124  0  0  0.117143  0  1.024387  0  0  0.095249  0.110507  0  1.030889  0
H  H8  1  0.04357098  0.89522949  0.42849481  1  0  0.108759  0  0.9557  0  0  0.113344  0  1.02798  0  0  0.117161  0  1.024241  0  0  0.095276  0.110529  0  1.030747  0
H  H9  1  0.04351266  0.39525358  0.07150199  1  0  0.10871  0  0.955883  0  0  0.113339  0  1.028091  0  0  0.117159  0  1.024357  0  0  0.095303  0.110523  0  1.030858  0
H  H10  1  0.17505881  0.23400876  0.68347483  1  0  0.100012  0  0.974981  0  0  0.10831  0  1.039192  0  0  0.11161  0  1.038041  0  0  0.091511  0.105878  0  1.040315  0
H  H11  1  0.17507837  0.73399920  0.81652219  1  0  0.099959  0  0.975108  0  0  0.108306  0  1.039251  0  0  0.111606  0  1.038101  0  0  0.091468  0.105872  0  1.040373  0
H  H12  1  0.82496659  0.76598459  0.31652382  1  0  0.099989  0  0.975045  0  0  0.108361  0  1.039158  0  0  0.11166  0  1.03801  0  0  0.09153  0.105927  0  1.040282  0
H  H13  1  0.82490959  0.26600594  0.18347370  1  0  0.100054  0  0.97497  0  0  0.108344  0  1.039177  0  0  0.111644  0  1.038027  0  0  0.091447  0.105909  0  1.040305  0
H  H14  1  0.17896752  0.18834663  0.85234039  1  0  0.06799  0  0.991456  0  0  0.070721  0  1.068935  0  0  0.074137  0  1.065095  0  0  0.090309  0.068258  0  1.071664  0
H  H15  1  0.17896441  0.68833374  0.64765764  1  0  0.067947  0  0.991396  0  0  0.070674  0  1.068906  0  0  0.074087  0  1.06507  0  0  0.090286  0.068211  0  1.07163  0
H  H16  1  0.82103855  0.81164778  0.14765826  1  0  0.067957  0  0.99139  0  0  0.070711  0  1.068854  0  0  0.07412  0  1.065014  0  0  0.090337  0.068248  0  1.071579  0
H  H17  1  0.82101914  0.31166821  0.35233757  1  0  0.068028  0  0.991346  0  0  0.07075  0  1.06887  0  0  0.074159  0  1.065029  0  0  0.090315  0.068286  0  1.071596  0
C  C18  1  0.86633344  0.97129050  0.77423738  1  0  0.057603  0  3.70644  0  0  0.018277  0  3.956613  0  0  0.024548  0  3.974422  0  0  0.028349  0.014392  0  3.944413  0
C  C19  1  0.86635504  0.47128064  0.72576273  1  0  0.057751  0  3.706549  0  0  0.018424  0  3.956663  0  0  0.024681  0  3.974468  0  0  0.028409  0.014554  0  3.944487  0
C  C20  1  0.13366022  0.02870729  0.22576127  1  0  0.057653  0  3.706501  0  0  0.018321  0  3.95665  0  0  0.024592  0  3.974465  0  0  0.028358  0.014424  0  3.944444  0
C  C21  1  0.13365024  0.52872024  0.27424488  1  0  0.057525  0  3.706628  0  0  0.018142  0  3.956847  0  0  0.024418  0  3.974665  0  0  0.028287  0.014269  0  3.944659  0
C  C22  1  0.85212450  0.99194804  0.67974446  1  0  0.08424  0  3.797521  0  0  0.102434  0  4.058873  0  0  0.100718  0  4.081588  0  0  0.011331  0.103092  0  4.043678  0
C  C23  1  0.85214709  0.49193686  0.82025721  1  0  0.084195  0  3.797253  0  0  0.102319  0  4.058753  0  0  0.100604  0  4.081467  0  0  0.011345  0.102979  0  4.043551  0
C  C24  1  0.14787367  0.00805212  0.32025075  1  0  0.084289  0  3.797694  0  0  0.102564  0  4.05893  0  0  0.100833  0  4.081663  0  0  0.011389  0.103221  0  4.043734  0
C  C25  1  0.14786199  0.50807206  0.17974627  1  0  0.084313  0  3.797438  0  0  0.10252  0  4.058779  0  0  0.100785  0  4.081517  0  0  0.011402  0.103178  0  4.04358  0
C  C26  1  0.96366795  0.08709159  0.64506989  1  0  -0.069304  0  3.716469  0  0  -0.098622  0  3.967909  0  0  -0.095931  0  3.985413  0  0  -0.079122  -0.100013  0  3.955986  0
C  C27  1  0.96370460  0.58708226  0.85493321  1  0  -0.069453  0  3.716542  0  0  -0.098794  0  3.967999  0  0  -0.096105  0  3.985502  0  0  -0.079191  -0.100183  0  3.956067  0
C  C28  1  0.03634714  0.91290755  0.35492462  1  0  -0.069493  0  3.716519  0  0  -0.098877  0  3.968051  0  0  -0.096176  0  3.985554  0  0  -0.079223  -0.100269  0  3.956124  0
C  C29  1  0.03629987  0.41292509  0.14507026  1  0  -0.069481  0  3.716255  0  0  -0.098809  0  3.96761  0  0  -0.096116  0  3.985119  0  0  -0.079252  -0.100198  0  3.955686  0
C  C30  1  0.08300016  0.15909323  0.70781244  1  0  -0.096154  0  3.724968  0  0  -0.103683  0  3.971202  0  0  -0.110714  0  3.992933  0  0  -0.086953  -0.099269  0  3.956702  0
C  C31  1  0.08302625  0.65908734  0.79218744  1  0  -0.096054  0  3.724934  0  0  -0.103608  0  3.971121  0  0  -0.11064  0  3.992853  0  0  -0.086977  -0.099195  0  3.956608  0
C  C32  1  0.91701332  0.84089946  0.29218690  1  0  -0.096131  0  3.724801  0  0  -0.10369  0  3.971004  0  0  -0.110722  0  3.992729  0  0  -0.086976  -0.099278  0  3.9565  0
C  C33  1  0.91696141  0.34092023  0.20781603  1  0  -0.096113  0  3.724897  0  0  -0.10363  0  3.97106  0  0  -0.110661  0  3.992787  0  0  -0.086888  -0.099216  0  3.956555  0
C  C34  1  0.08702050  0.13399685  0.80132448  1  0  0.1179  0  3.700702  0  0  0.083944  0  3.953513  0  0  0.091113  0  3.972082  0  0  0.031597  0.079358  0  3.940774  0
C  C35  1  0.08702226  0.63398694  0.69867244  1  0  0.117935  0  3.700753  0  0  0.083956  0  3.953612  0  0  0.091127  0  3.972182  0  0  0.031619  0.079371  0  3.940864  0
C  C36  1  0.91298308  0.86599839  0.19867142  1  0  0.118126  0  3.700452  0  0  0.084107  0  3.953336  0  0  0.091287  0  3.971888  0  0  0.031662  0.07952  0  3.940589  0
C  C37  1  0.91296359  0.36601580  0.30132896  1  0  0.117849  0  3.701095  0  0  0.083866  0  3.953922  0  0  0.091045  0  3.972481  0  0  0.031585  0.079283  0  3.941177  0
I  I38  1  0.47261335  0.16912756  0.02850102  1  0  -0.426673  0  1.251176  0  0  -0.375613  0  1.601545  0  0  -0.396918  0  1.580475  0  0  -0.188089  -0.360379  0  1.617912  0
I  I39  1  0.47261151  0.66912736  0.47150479  1  0  -0.426649  0  1.251181  0  0  -0.375586  0  1.601536  0  0  -0.396887  0  1.580468  0  0  -0.188073  -0.360346  0  1.617894  0
I  I40  1  0.52737510  0.83087353  0.97149487  1  0  -0.426647  0  1.251195  0  0  -0.375615  0  1.601612  0  0  -0.396916  0  1.580533  0  0  -0.188084  -0.360386  0  1.617971  0
I  I41  1  0.52739226  0.33086626  0.52849731  1  0  -0.426667  0  1.251182  0  0  -0.375623  0  1.601562  0  0  -0.39692  0  1.580489  0  0  -0.188072  -0.360383  0  1.617919  0
N  N42  1  0.98196910  0.04131898  0.83381120  1  0  -0.297487  0  3.279625  0  0  -0.218961  0  3.535734  0  0  -0.239845  0  3.559933  0  0  -0.324254  -0.204693  0  3.518688  0
N  N43  1  0.98196523  0.54131360  0.66619290  1  0  -0.297441  0  3.280039  0  0  -0.21893  0  3.536234  0  0  -0.239806  0  3.560416  0  0  -0.324161  -0.204664  0  3.519184  0
N  N44  1  0.01802716  0.95867716  0.16618469  1  0  -0.297656  0  3.279467  0  0  -0.219057  0  3.535543  0  0  -0.239953  0  3.559768  0  0  -0.324279  -0.20479  0  3.518499  0
N  N45  1  0.01803334  0.45868332  0.33381195  1  0  -0.297384  0  3.280074  0  0  -0.218842  0  3.536206  0  0  -0.239726  0  3.560403  0  0  -0.324196  -0.204577  0  3.519156  0
Cl  Cl46  1  0.69737614  0.89786599  0.60742335  1  0  -0.089703  0  1.393639  0  0  -0.072114  0  1.629014  0  0  -0.076178  0  1.625615  0  0  0.002084  -0.069164  0  1.631611  0
Cl  Cl47  1  0.69742100  0.39785456  0.89257966  1  0  -0.089715  0  1.393645  0  0  -0.072102  0  1.629058  0  0  -0.076167  0  1.625661  0  0  0.00206  -0.069152  0  1.631657  0
Cl  Cl48  1  0.30260750  0.10213516  0.39257048  1  0  -0.089739  0  1.393656  0  0  -0.072162  0  1.62898  0  0  -0.076221  0  1.625586  0  0  0.002029  -0.069214  0  1.631579  0
Cl  Cl49  1  0.30259349  0.60214943  0.10743277  1  0  -0.089663  0  1.393998  0  0  -0.072075  0  1.629378  0  0  -0.076134  0  1.625988  0  0  0.002109  -0.069125  0  1.631973  0
