# generated using pymatgen
data_ZnH16C22(NO2)2
_symmetry_space_group_name_H-M   'P 1'
_cell_length_a   7.92324126
_cell_length_b   7.92321172
_cell_length_c   14.92986425
_cell_angle_alpha   97.93267792
_cell_angle_beta   97.93216111
_cell_angle_gamma   91.93178200
_symmetry_Int_Tables_number   1
_chemical_formula_structural   ZnH16C22(NO2)2
_chemical_formula_sum   'Zn2 H32 C44 N4 O8'
_cell_volume   918.07883652
_cell_formula_units_Z   2
loop_
 _symmetry_equiv_pos_site_id
 _symmetry_equiv_pos_as_xyz
  1  'x, y, z'
loop_
 _atom_site_type_symbol
 _atom_site_label
 _atom_site_symmetry_multiplicity
 _atom_site_fract_x
 _atom_site_fract_y
 _atom_site_fract_z
 _atom_site_occupancy
 _atom_site_hle17_bader_spin_density
 _atom_site_hle17_ddec_charge
 _atom_site_hle17_ddec_spin_density
 _atom_site_hle17_ddec_sum_bond_order
 _atom_site_hle17_magmom
 _atom_site_hse06_10hf_bader_spin_density
 _atom_site_hse06_10hf_ddec_charge
 _atom_site_hse06_10hf_ddec_spin_density
 _atom_site_hse06_10hf_ddec_sum_bond_order
 _atom_site_hse06_10hf_magmom
 _atom_site_hse06_bader_spin_density
 _atom_site_hse06_ddec_charge
 _atom_site_hse06_ddec_spin_density
 _atom_site_hse06_ddec_sum_bond_order
 _atom_site_hse06_magmom
 _atom_site_pbe_bader_spin_density
 _atom_site_pbe_cm5_charge
 _atom_site_pbe_ddec_charge
 _atom_site_pbe_ddec_spin_density
 _atom_site_pbe_ddec_sum_bond_order
 _atom_site_pbe_magmom
Zn  Zn0  1  0.03617963  0.96382007  0.75000258  1  0  0.966989  0  1.898934  0  0  0.775792  0  2.372408  0  0  0.824576  0  2.318224  0  0  0.688057  0.741795  0  2.409496  0
Zn  Zn1  1  0.96382051  0.03619079  0.24999953  1  0  0.96694  0  1.89891  0  0  0.775753  0  2.372371  0  0  0.824539  0  2.318184  0  0  0.688044  0.741759  0  2.409443  0
H  H2  1  0.85490758  0.52022563  0.53365639  1  0  0.106194  0  0.947908  0  0  0.114407  0  1.012043  0  0  0.116845  0  1.010954  0  0  0.111698  0.112584  0  1.012897  0
H  H3  1  0.52023286  0.85489436  0.03365762  1  0  0.106292  0  0.947999  0  0  0.114531  0  1.012118  0  0  0.116945  0  1.011032  0  0  0.111754  0.112707  0  1.012974  0
H  H4  1  0.14509270  0.47978780  0.46634658  1  0  0.106145  0  0.948039  0  0  0.114396  0  1.012138  0  0  0.116847  0  1.011029  0  0  0.111775  0.112576  0  1.012983  0
H  H5  1  0.47976739  0.14509359  0.96634627  1  0  0.106312  0  0.947962  0  0  0.114515  0  1.012114  0  0  0.116929  0  1.011049  0  0  0.111772  0.11269  0  1.012969  0
H  H6  1  0.81136966  0.21333499  0.45764546  1  0  0.126562  0  0.940573  0  0  0.134984  0  0.999163  0  0  0.138333  0  0.998236  0  0  0.115247  0.132575  0  1.000044  0
H  H7  1  0.21334421  0.81136143  0.95764597  1  0  0.126539  0  0.940669  0  0  0.134996  0  0.99921  0  0  0.138344  0  0.998286  0  0  0.115281  0.132587  0  1.00009  0
H  H8  1  0.18863928  0.78667455  0.54235449  1  0  0.126592  0  0.940646  0  0  0.135042  0  0.999192  0  0  0.138392  0  0.998262  0  0  0.115302  0.132633  0  1.000072  0
H  H9  1  0.78665371  0.18863035  0.04235870  1  0  0.126584  0  0.940655  0  0  0.135012  0  0.999229  0  0  0.13836  0  0.998305  0  0  0.115247  0.132606  0  1.000106  0
H  H10  1  0.06613843  0.33731794  0.78085890  1  0  0.085922  0  0.94601  0  0  0.091388  0  1.017502  0  0  0.094568  0  1.013874  0  0  0.120147  0.089006  0  1.020197  0
H  H11  1  0.33732077  0.06614268  0.28085767  1  0  0.085946  0  0.945992  0  0  0.09141  0  1.017474  0  0  0.094588  0  1.013848  0  0  0.120158  0.089031  0  1.020171  0
H  H12  1  0.93386787  0.66269030  0.21913944  1  0  0.085906  0  0.94599  0  0  0.091393  0  1.017454  0  0  0.094566  0  1.013844  0  0  0.120157  0.089014  0  1.02015  0
H  H13  1  0.66268129  0.93385668  0.71914312  1  0  0.085972  0  0.945982  0  0  0.091437  0  1.017452  0  0  0.094609  0  1.013844  0  0  0.120176  0.089057  0  1.020153  0
H  H14  1  0.88969471  0.98233784  0.55343926  1  0  0.083165  0  0.948679  0  0  0.091364  0  1.014447  0  0  0.093567  0  1.012967  0  0  0.119285  0.089746  0  1.015517  0
H  H15  1  0.98234677  0.88969644  0.05343667  1  0  0.082989  0  0.948733  0  0  0.091241  0  1.014484  0  0  0.093442  0  1.013005  0  0  0.119265  0.089622  0  1.015554  0
H  H16  1  0.11031037  0.01767046  0.44656235  1  0  0.083083  0  0.94863  0  0  0.091344  0  1.014343  0  0  0.093546  0  1.012864  0  0  0.11926  0.089728  0  1.015409  0
H  H17  1  0.01765135  0.11029917  0.94656828  1  0  0.082997  0  0.948744  0  0  0.091302  0  1.014433  0  0  0.093504  0  1.012955  0  0  0.119281  0.08968  0  1.015505  0
H  H18  1  0.38134087  0.10485284  0.57566142  1  0  0.091272  0  0.970582  0  0  0.10281  0  1.031371  0  0  0.105424  0  1.03059  0  0  0.095141  0.100934  0  1.032007  0
H  H19  1  0.10486616  0.38133127  0.07566453  1  0  0.091229  0  0.970489  0  0  0.102768  0  1.031279  0  0  0.105381  0  1.030498  0  0  0.095148  0.100894  0  1.031908  0
H  H20  1  0.61865860  0.89514407  0.42434437  1  0  0.091293  0  0.970493  0  0  0.102838  0  1.031267  0  0  0.105452  0  1.030482  0  0  0.09513  0.100959  0  1.031905  0
H  H21  1  0.89513296  0.61866286  0.92432832  1  0  0.091258  0  0.97056  0  0  0.102785  0  1.031357  0  0  0.105399  0  1.030574  0  0  0.095138  0.100907  0  1.031989  0
H  H22  1  0.37599925  0.34699344  0.69894594  1  0  0.08163  0  0.968154  0  0  0.092951  0  1.03036  0  0  0.09513  0  1.0302  0  0  0.094412  0.091396  0  1.030494  0
H  H23  1  0.34701504  0.37599747  0.19894424  1  0  0.081709  0  0.968139  0  0  0.09292  0  1.030463  0  0  0.095094  0  1.030304  0  0  0.094447  0.091373  0  1.030594  0
H  H24  1  0.62399382  0.65300342  0.30105740  1  0  0.081693  0  0.968202  0  0  0.092975  0  1.030438  0  0  0.095153  0  1.030278  0  0  0.094448  0.091423  0  1.03057  0
H  H25  1  0.65298433  0.62400174  0.80104764  1  0  0.081636  0  0.968158  0  0  0.092919  0  1.030396  0  0  0.095097  0  1.030238  0  0  0.094432  0.091363  0  1.030535  0
H  H26  1  0.44497923  0.64450447  0.67359609  1  0  0.098979  0  0.967492  0  0  0.109697  0  1.030289  0  0  0.112596  0  1.029146  0  0  0.09805  0.107539  0  1.031265  0
H  H27  1  0.64452083  0.44498153  0.17358443  1  0  0.099044  0  0.967482  0  0  0.109747  0  1.030305  0  0  0.112648  0  1.029159  0  0  0.098037  0.107608  0  1.031265  0
H  H28  1  0.55501509  0.35549237  0.32640599  1  0  0.099031  0  0.967477  0  0  0.109739  0  1.030285  0  0  0.112639  0  1.02914  0  0  0.098071  0.107591  0  1.031252  0
H  H29  1  0.35547855  0.55501891  0.82640418  1  0  0.099118  0  0.967425  0  0  0.109811  0  1.030239  0  0  0.112711  0  1.029093  0  0  0.098091  0.107624  0  1.031246  0
H  H30  1  0.46147548  0.15669675  0.42498730  1  0  0.091415  0  0.968656  0  0  0.101482  0  1.034781  0  0  0.104689  0  1.032429  0  0  0.097442  0.099168  0  1.036548  0
H  H31  1  0.15669555  0.46146626  0.92498905  1  0  0.091358  0  0.96875  0  0  0.101466  0  1.03482  0  0  0.104668  0  1.032465  0  0  0.097456  0.099152  0  1.036582  0
H  H32  1  0.53852500  0.84329506  0.57501888  1  0  0.091322  0  0.968658  0  0  0.101413  0  1.034771  0  0  0.104621  0  1.032417  0  0  0.097435  0.099098  0  1.036542  0
H  H33  1  0.84329940  0.53852148  0.07500241  1  0  0.091478  0  0.968624  0  0  0.10157  0  1.034702  0  0  0.104775  0  1.032349  0  0  0.097508  0.099254  0  1.036467  0
C  C34  1  0.99856885  0.62873266  0.71268802  1  0  0.633951  0  3.931686  0  0  0.586619  0  4.218006  0  0  0.621247  0  4.211461  0  0  0.200536  0.563249  0  4.221676  0
C  C35  1  0.62873443  0.99856273  0.21269145  1  0  0.634176  0  3.931358  0  0  0.586813  0  4.217677  0  0  0.621439  0  4.211131  0  0  0.200555  0.563443  0  4.221349  0
C  C36  1  0.00143248  0.37127691  0.28731342  1  0  0.633865  0  3.931811  0  0  0.586528  0  4.218186  0  0  0.621155  0  4.211642  0  0  0.200401  0.563151  0  4.221862  0
C  C37  1  0.37126752  0.00143410  0.78731049  1  0  0.633983  0  3.931385  0  0  0.58663  0  4.217719  0  0  0.621256  0  4.211175  0  0  0.200497  0.563265  0  4.22138  0
C  C38  1  0.96380101  0.45073927  0.66284277  1  0  -0.103429  0  3.737276  0  0  -0.075817  0  3.96842  0  0  -0.089128  0  3.992138  0  0  -0.009129  -0.067534  0  3.952744  0
C  C39  1  0.45074218  0.96379015  0.16284360  1  0  -0.103747  0  3.737535  0  0  -0.076049  0  3.968625  0  0  -0.089359  0  3.992331  0  0  -0.009183  -0.067759  0  3.952949  0
C  C40  1  0.03620433  0.54927412  0.33715786  1  0  -0.103212  0  3.737329  0  0  -0.075631  0  3.968537  0  0  -0.088941  0  3.99226  0  0  -0.009002  -0.067345  0  3.952864  0
C  C41  1  0.54926220  0.03620415  0.83715900  1  0  -0.103629  0  3.737313  0  0  -0.075979  0  3.968411  0  0  -0.089287  0  3.992122  0  0  -0.009132  -0.067685  0  3.952724  0
C  C42  1  0.89106707  0.41526483  0.57101696  1  0  0.010761  0  3.656101  0  0  -0.020856  0  3.903976  0  0  -0.014164  0  3.920827  0  0  -0.047838  -0.024877  0  3.892557  0
C  C43  1  0.41527276  0.89105439  0.07101926  1  0  0.010726  0  3.656285  0  0  -0.020958  0  3.904184  0  0  -0.014232  0  3.921058  0  0  -0.047908  -0.024982  0  3.892766  0
C  C44  1  0.10893650  0.58473961  0.42898227  1  0  0.010937  0  3.656073  0  0  -0.020733  0  3.904007  0  0  -0.014047  0  3.920854  0  0  -0.047808  -0.024752  0  3.89258  0
C  C45  1  0.58472761  0.10893610  0.92898415  1  0  0.010713  0  3.656074  0  0  -0.020916  0  3.903946  0  0  -0.014203  0  3.92081  0  0  -0.047916  -0.024937  0  3.89252  0
C  C46  1  0.86546585  0.24582437  0.52934210  1  0  -0.109965  0  3.70248  0  0  -0.121227  0  3.956794  0  0  -0.129175  0  3.977503  0  0  -0.073723  -0.116359  0  3.94309  0
C  C47  1  0.24583265  0.86545569  0.02934091  1  0  -0.109882  0  3.702394  0  0  -0.121172  0  3.956779  0  0  -0.129122  0  3.97748  0  0  -0.073702  -0.116304  0  3.943074  0
C  C48  1  0.13454326  0.75418776  0.47066004  1  0  -0.110083  0  3.702625  0  0  -0.121362  0  3.956958  0  0  -0.129311  0  3.97767  0  0  -0.073817  -0.116496  0  3.943251  0
C  C49  1  0.75416641  0.13453355  0.97066366  1  0  -0.109926  0  3.70226  0  0  -0.121205  0  3.956642  0  0  -0.129153  0  3.977343  0  0  -0.073698  -0.116346  0  3.942939  0
C  C50  1  0.00783640  0.31425136  0.70943620  1  0  0.12424  0  3.680531  0  0  0.081727  0  3.928295  0  0  0.09058  0  3.945674  0  0  0.05774  0.076141  0  3.916467  0
C  C51  1  0.31425456  0.00783574  0.20943525  1  0  0.124288  0  3.680727  0  0  0.081763  0  3.928418  0  0  0.090619  0  3.9458  0  0  0.057737  0.076165  0  3.916603  0
C  C52  1  0.99217136  0.68575949  0.29056509  1  0  0.124106  0  3.680683  0  0  0.081621  0  3.928461  0  0  0.090472  0  3.945842  0  0  0.057742  0.076027  0  3.916641  0
C  C53  1  0.68574746  0.99216237  0.79056678  1  0  0.124301  0  3.680722  0  0  0.081796  0  3.928414  0  0  0.09065  0  3.945791  0  0  0.057753  0.076192  0  3.916604  0
C  C54  1  0.91049533  0.11717003  0.58128801  1  0  0.130016  0  3.672248  0  0  0.098055  0  3.919753  0  0  0.105967  0  3.93733  0  0  0.053296  0.093041  0  3.907776  0
C  C55  1  0.11717766  0.91049254  0.08128767  1  0  0.13025  0  3.672039  0  0  0.098202  0  3.91958  0  0  0.106116  0  3.937159  0  0  0.053325  0.093195  0  3.907595  0
C  C56  1  0.08951100  0.88283823  0.41871167  1  0  0.129991  0  3.672289  0  0  0.098008  0  3.919793  0  0  0.105917  0  3.937376  0  0  0.053296  0.092996  0  3.90781  0
C  C57  1  0.88282278  0.08949922  0.91871583  1  0  0.130155  0  3.671957  0  0  0.098077  0  3.919466  0  0  0.10599  0  3.937045  0  0  0.053288  0.093073  0  3.907481  0
C  C58  1  0.41295819  0.23357928  0.56281550  1  0  -0.083695  0  3.788457  0  0  -0.096736  0  4.036554  0  0  -0.099132  0  4.059282  0  0  -0.101179  -0.094967  0  4.020923  0
C  C59  1  0.23359228  0.41295605  0.06281554  1  0  -0.083485  0  3.788456  0  0  -0.096504  0  4.036521  0  0  -0.098898  0  4.059247  0  0  -0.101071  -0.09473  0  4.020885  0
C  C60  1  0.58703603  0.76641505  0.43718908  1  0  -0.083774  0  3.788948  0  0  -0.096809  0  4.037031  0  0  -0.099204  0  4.059756  0  0  -0.101209  -0.095038  0  4.021398  0
C  C61  1  0.76640592  0.58704447  0.93717836  1  0  -0.083568  0  3.788781  0  0  -0.096585  0  4.03684  0  0  -0.098981  0  4.059574  0  0  -0.101092  -0.094814  0  4.0212  0
C  C62  1  0.41026225  0.37185510  0.63355666  1  0  -0.073011  0  3.796951  0  0  -0.087176  0  4.047663  0  0  -0.089237  0  4.071085  0  0  -0.100578  -0.085625  0  4.031532  0
C  C63  1  0.37186974  0.41026275  0.13355399  1  0  -0.073196  0  3.796904  0  0  -0.087276  0  4.047644  0  0  -0.089333  0  4.071068  0  0  -0.100647  -0.085738  0  4.031534  0
C  C64  1  0.58972961  0.62814304  0.36644669  1  0  -0.073053  0  3.797041  0  0  -0.087184  0  4.047764  0  0  -0.089244  0  4.071186  0  0  -0.100558  -0.085636  0  4.031639  0
C  C65  1  0.62812840  0.58973772  0.86643655  1  0  -0.073075  0  3.796857  0  0  -0.087206  0  4.047547  0  0  -0.08927  0  4.070974  0  0  -0.100582  -0.085661  0  4.031415  0
C  C66  1  0.45113347  0.53648329  0.62037849  1  0  -0.123943  0  3.733007  0  0  -0.142038  0  3.977384  0  0  -0.145187  0  3.999068  0  0  -0.094437  -0.139735  0  3.962625  0
C  C67  1  0.53649196  0.45114164  0.12037432  1  0  -0.124056  0  3.732782  0  0  -0.142073  0  3.977148  0  0  -0.145224  0  3.998834  0  0  -0.094431  -0.139791  0  3.962406  0
C  C68  1  0.54885561  0.46351099  0.37962306  1  0  -0.124054  0  3.732844  0  0  -0.142085  0  3.977231  0  0  -0.145232  0  3.998913  0  0  -0.09447  -0.139793  0  3.962479  0
C  C69  1  0.46350488  0.54885760  0.87961872  1  0  -0.124133  0  3.73299  0  0  -0.142187  0  3.977353  0  0  -0.145337  0  3.999042  0  0  -0.094526  -0.139863  0  3.962606  0
C  C70  1  0.49892375  0.56998158  0.53599427  1  0  0.045235  0  3.798287  0  0  0.06549  0  4.015247  0  0  0.064986  0  4.04012  0  0  -0.011797  0.065837  0  3.998326  0
C  C71  1  0.56998455  0.49892958  0.03598691  1  0  0.045452  0  3.797937  0  0  0.065531  0  4.015085  0  0  0.065027  0  4.03996  0  0  -0.011805  0.065877  0  3.998168  0
C  C72  1  0.50106534  0.43001271  0.46400795  1  0  0.045412  0  3.798169  0  0  0.065487  0  4.015265  0  0  0.064985  0  4.040138  0  0  -0.011831  0.065837  0  3.998346  0
C  C73  1  0.43000969  0.50106960  0.96400261  1  0  0.045291  0  3.798238  0  0  0.065492  0  4.015279  0  0  0.064988  0  4.040151  0  0  -0.011857  0.065847  0  3.998344  0
C  C74  1  0.45676495  0.26237173  0.47968948  1  0  -0.12023  0  3.755004  0  0  -0.139151  0  4.003245  0  0  -0.141627  0  4.02417  0  0  -0.092351  -0.137355  0  3.98896  0
C  C75  1  0.26237214  0.45676230  0.97968886  1  0  -0.120236  0  3.755179  0  0  -0.139235  0  4.003412  0  0  -0.141698  0  4.024327  0  0  -0.092424  -0.137441  0  3.989124  0
C  C76  1  0.54322938  0.73762512  0.52031328  1  0  -0.120062  0  3.755317  0  0  -0.139052  0  4.003485  0  0  -0.141525  0  4.024407  0  0  -0.092339  -0.137252  0  3.989195  0
C  C77  1  0.73762191  0.54323306  0.02030105  1  0  -0.120385  0  3.755407  0  0  -0.13933  0  4.003648  0  0  -0.141801  0  4.024569  0  0  -0.092466  -0.137525  0  3.989352  0
N  N78  1  0.98138885  0.15124050  0.66971080  1  0  -0.329957  0  3.333742  0  0  -0.245335  0  3.610127  0  0  -0.265332  0  3.625086  0  0  -0.333351  -0.231943  0  3.599752  0
N  N79  1  0.15124635  0.98139208  0.16970948  1  0  -0.330027  0  3.333896  0  0  -0.245345  0  3.610242  0  0  -0.265345  0  3.625206  0  0  -0.333355  -0.231951  0  3.599861  0
N  N80  1  0.01861615  0.84876652  0.33029004  1  0  -0.329788  0  3.333679  0  0  -0.24522  0  3.610104  0  0  -0.265215  0  3.625068  0  0  -0.333401  -0.231826  0  3.599722  0
N  N81  1  0.84875448  0.01860732  0.83029323  1  0  -0.330021  0  3.333821  0  0  -0.245356  0  3.610194  0  0  -0.265354  0  3.625155  0  0  -0.333371  -0.23196  0  3.599818  0
O  O82  1  0.06357377  0.65210606  0.79529479  1  0  -0.615137  0  1.91504  0  0  -0.567945  0  2.142443  0  0  -0.591381  0  2.132747  0  0  -0.315212  -0.551596  0  2.148549  0
O  O83  1  0.65210596  0.06356234  0.29529626  1  0  -0.615187  0  1.914942  0  0  -0.56803  0  2.142402  0  0  -0.591466  0  2.132705  0  0  -0.315259  -0.551694  0  2.148531  0
O  O84  1  0.93642631  0.34790354  0.20470790  1  0  -0.615141  0  1.915207  0  0  -0.567958  0  2.14263  0  0  -0.591393  0  2.132931  0  0  -0.315229  -0.55163  0  2.14879  0
O  O85  1  0.34789727  0.93643449  0.70470577  1  0  -0.615099  0  1.91508  0  0  -0.567921  0  2.142508  0  0  -0.591353  0  2.132811  0  0  -0.315209  -0.55159  0  2.148637  0
O  O86  1  0.95904712  0.75079099  0.66546667  1  0  -0.633536  0  2.022074  0  0  -0.562589  0  2.289391  0  0  -0.59186  0  2.27655  0  0  -0.327414  -0.542113  0  2.297448  0
O  O87  1  0.75079450  0.95904300  0.16546732  1  0  -0.633565  0  2.021848  0  0  -0.562605  0  2.289177  0  0  -0.591878  0  2.276334  0  0  -0.327365  -0.542126  0  2.297229  0
O  O88  1  0.04095668  0.24921729  0.33453418  1  0  -0.633591  0  2.022086  0  0  -0.562605  0  2.289358  0  0  -0.591877  0  2.27652  0  0  -0.327386  -0.542126  0  2.297414  0
O  O89  1  0.24920637  0.04095766  0.83453414  1  0  -0.633561  0  2.021847  0  0  -0.562593  0  2.289171  0  0  -0.591865  0  2.276331  0  0  -0.327396  -0.542118  0  2.297225  0
