# generated using pymatgen
data_AgH8C10(NO)3
_symmetry_space_group_name_H-M   'P 1'
_cell_length_a   5.27611900
_cell_length_b   9.73933347
_cell_length_c   10.93223093
_cell_angle_alpha   94.72909683
_cell_angle_beta   104.04396095
_cell_angle_gamma   101.50149655
_symmetry_Int_Tables_number   1
_chemical_formula_structural   AgH8C10(NO)3
_chemical_formula_sum   'Ag2 H16 C20 N6 O6'
_cell_volume   528.94624450
_cell_formula_units_Z   2
loop_
 _symmetry_equiv_pos_site_id
 _symmetry_equiv_pos_as_xyz
  1  'x, y, z'
loop_
 _atom_site_type_symbol
 _atom_site_label
 _atom_site_symmetry_multiplicity
 _atom_site_fract_x
 _atom_site_fract_y
 _atom_site_fract_z
 _atom_site_occupancy
 _atom_site_pbe_bader_charge
 _atom_site_pbe_bader_spin_density
 _atom_site_pbe_cm5_charge
 _atom_site_pbe_ddec_charge
 _atom_site_pbe_ddec_spin_density
 _atom_site_pbe_ddec_sum_bond_order
 _atom_site_pbe_magmom
Ag  Ag0  1  0.63221376  0.86804780  0.64089539  1  0.597321  0  0.426121  0.277993  0  1.86243  0
Ag  Ag1  1  0.36777980  0.13195077  0.35909920  1  0.59723  0  0.426076  0.277938  0  1.862461  0
H  H2  1  0.82049676  0.58099471  0.57387893  1  0.114336  0  0.111587  0.092153  0  1.016508  0
H  H3  1  0.17949735  0.41900068  0.42611365  1  0.114387  0  0.111585  0.092175  0  1.016527  0
H  H4  1  0.75371109  0.32835711  0.61308376  1  0.145346  0  0.104945  0.116881  0  1.054092  0
H  H5  1  0.24628089  0.67163299  0.38691916  1  0.145407  0  0.10495  0.116914  0  1.054089  0
H  H6  1  0.47639306  0.24416632  0.75890223  1  0.118127  0  0.114521  0.132812  0  1.005839  0
H  H7  1  0.52360262  0.75583647  0.24111304  1  0.118172  0  0.114562  0.13281  0  1.006049  0
H  H8  1  0.32233570  0.66283792  0.79851599  1  0.093427  0  0.114103  0.094996  0  1.018896  0
H  H9  1  0.67767656  0.33717227  0.20148068  1  0.093384  0  0.114175  0.09512  0  1.018861  0
H  H10  1  0.05233294  0.17590297  0.70987912  1  0.145097  0  0.11567  0.105851  0  1.050142  0
H  H11  1  0.94766767  0.82410723  0.29012080  1  0.145088  0  0.115645  0.105858  0  1.050014  0
H  H12  1  0.07541641  0.38978856  0.07660633  1  0.118975  0  0.110087  0.124343  0  1.016125  0
H  H13  1  0.92457900  0.61020047  0.92339599  1  0.118911  0  0.110102  0.124428  0  1.016117  0
H  H14  1  0.78964801  0.16274415  0.11235066  1  0.075565  0  0.106092  0.110071  0  1.024972  0
H  H15  1  0.21035959  0.83724170  0.88764549  1  0.075577  0  0.10608  0.110046  0  1.025008  0
H  H16  1  0.63836727  0.95846040  0.93708480  1  0.090907  0  0.108526  0.076236  0  1.021386  0
H  H17  1  0.36162553  0.04152758  0.06290342  1  0.090914  0  0.108544  0.076283  0  1.021431  0
C  C18  1  0.69543108  0.54041509  0.63498491  1  0.516641  0  0.030347  0.057278  0  3.959175  0
C  C19  1  0.30456482  0.45957500  0.36501938  1  0.516518  0  0.030399  0.057395  0  3.958889  0
C  C20  1  0.65996147  0.40051283  0.65871004  1  -0.077746  0  -0.084594  -0.104471  0  3.980733  0
C  C21  1  0.34004832  0.59948677  0.34129654  1  -0.077884  0  -0.084605  -0.104587  0  3.980503  0
C  C22  1  0.50153011  0.35291796  0.73869857  1  -0.040011  0  -0.080228  -0.154583  0  3.94254  0
C  C23  1  0.49846387  0.64709013  0.26131050  1  -0.039858  0  -0.080293  -0.154589  0  3.942838  0
C  C24  1  0.38012543  0.44959107  0.79059726  1  0.466385  0  0.090399  0.217756  0  4.025635  0
C  C25  1  0.61986477  0.55040855  0.20940343  1  0.466286  0  0.090455  0.217912  0  4.025816  0
C  C26  1  0.41903263  0.58739170  0.75937058  1  0.526176  0  0.030805  -0.033212  0  3.961173  0
C  C27  1  0.58097352  0.41260897  0.24062194  1  0.526075  0  0.030674  -0.033528  0  3.961298  0
C  C28  1  0.00150845  0.17844846  0.80074403  1  0.539385  0  0.030535  -0.043696  0  3.940618  0
C  C29  1  0.99849324  0.82155539  0.19925005  1  0.539504  0  0.030616  -0.043654  0  3.940421  0
C  C30  1  0.08983592  0.29844799  0.89294452  1  0.364424  0  0.086805  0.21133  0  4.034713  0
C  C31  1  0.91015796  0.70155586  0.10704867  1  0.364501  0  0.086805  0.211335  0  4.034797  0
C  C32  1  0.01103544  0.29550908  0.00608013  1  -0.019355  0  -0.084056  -0.151428  0  3.962188  0
C  C33  1  0.98895245  0.70448526  0.99391807  1  -0.019517  0  -0.084031  -0.15159  0  3.96239  0
C  C34  1  0.84765399  0.17218249  0.02369417  1  -0.023825  0  -0.088614  -0.120884  0  4.017192  0
C  C35  1  0.15234259  0.82781396  0.97630244  1  -0.023913  0  -0.088583  -0.120788  0  4.016896  0
C  C36  1  0.76525428  0.05746622  0.92692860  1  0.497833  0  0.030796  0.061283  0  3.988593  0
C  C37  1  0.23475284  0.94253233  0.07305930  1  0.498196  0  0.030813  0.061341  0  3.988253  0
N  N38  1  0.57549510  0.63270383  0.68442845  1  -1.224206  0  -0.333186  -0.191048  0  3.58201  0
N  N39  1  0.42450438  0.36729473  0.31557139  1  -1.224129  0  -0.33317  -0.191008  0  3.581958  0
N  N40  1  0.83999061  0.06082230  0.81836722  1  -1.18581  0  -0.324292  -0.184666  0  3.517208  0
N  N41  1  0.16001553  0.93917837  0.18162530  1  -1.186023  0  -0.324387  -0.184774  0  3.516959  0
N  N42  1  0.97308554  0.12520613  0.41648314  1  0.436153  0  -0.090382  0.236557  0  3.82535  0
N  N43  1  0.02692149  0.87479136  0.58353120  1  0.436168  0  -0.090316  0.23659  0  3.825457  0
O  O44  1  0.23515764  0.42763086  0.87926753  1  -1.105776  0  -0.144833  -0.200368  0  2.646582  0
O  O45  1  0.76482272  0.57236877  0.12072655  1  -1.105669  0  -0.144878  -0.200371  0  2.646561  0
O  O46  1  0.95583964  0.21868232  0.49830597  1  -0.581618  0  -0.18087  -0.372457  0  2.185973  0
O  O47  1  0.04417920  0.78131093  0.50170757  1  -0.581488  0  -0.180942  -0.372468  0  2.185964  0
O  O48  1  0.75380024  0.05389636  0.34056250  1  -0.587748  0  -0.200278  -0.358746  0  2.265975  0
O  O49  1  0.24620045  0.94610008  0.65944921  1  -0.587842  0  -0.200286  -0.358772  0  2.266078  0
