# generated using pymatgen
data_CdH10C22N4(O2F)4
_symmetry_space_group_name_H-M   'P 1'
_cell_length_a   8.62732145
_cell_length_b   10.07152820
_cell_length_c   14.05696281
_cell_angle_alpha   90.00006857
_cell_angle_beta   89.99986619
_cell_angle_gamma   115.13844916
_symmetry_Int_Tables_number   1
_chemical_formula_structural   CdH10C22N4(O2F)4
_chemical_formula_sum   'Cd2 H20 C44 N8 O16 F8'
_cell_volume   1105.72635147
_cell_formula_units_Z   2
loop_
 _symmetry_equiv_pos_site_id
 _symmetry_equiv_pos_as_xyz
  1  'x, y, z'
loop_
 _atom_site_type_symbol
 _atom_site_label
 _atom_site_symmetry_multiplicity
 _atom_site_fract_x
 _atom_site_fract_y
 _atom_site_fract_z
 _atom_site_occupancy
 _atom_site_hle17_bader_spin_density
 _atom_site_hle17_ddec_charge
 _atom_site_hle17_ddec_spin_density
 _atom_site_hle17_ddec_sum_bond_order
 _atom_site_hle17_magmom
 _atom_site_hse06_10hf_bader_spin_density
 _atom_site_hse06_10hf_ddec_charge
 _atom_site_hse06_10hf_ddec_spin_density
 _atom_site_hse06_10hf_ddec_sum_bond_order
 _atom_site_hse06_10hf_magmom
 _atom_site_hse06_bader_spin_density
 _atom_site_hse06_ddec_charge
 _atom_site_hse06_ddec_spin_density
 _atom_site_hse06_ddec_sum_bond_order
 _atom_site_hse06_magmom
 _atom_site_pbe_bader_spin_density
 _atom_site_pbe_cm5_charge
 _atom_site_pbe_ddec_charge
 _atom_site_pbe_ddec_spin_density
 _atom_site_pbe_ddec_sum_bond_order
 _atom_site_pbe_magmom
Cd  Cd0  1  0.50065673  0.77366477  0.41079141  1  0  1.179031  0  1.60759  0  0  0.988806  0  2.048488  0  0  1.047072  0  1.994655  0  0  0.799033  0.946844  0  2.085682  0
Cd  Cd1  1  0.49934525  0.22633802  0.91079108  1  0  1.179067  0  1.60747  0  0  0.988839  0  2.048361  0  0  1.047108  0  1.994526  0  0  0.799039  0.946871  0  2.085552  0
H  H2  1  0.63701551  0.02045013  0.61247894  1  0  0.390705  0  0.914695  0  0  0.358217  0  0.994936  0  0  0.371377  0  0.980578  0  0  0.292518  0.34899  0  1.003877  0
H  H3  1  0.36298538  0.97954818  0.11247965  1  0  0.390712  0  0.914699  0  0  0.35822  0  0.994946  0  0  0.371379  0  0.98058  0  0  0.292513  0.348993  0  1.003887  0
H  H4  1  0.05676986  0.82405718  0.65944219  1  0  0.334641  0  0.869594  0  0  0.310372  0  0.937491  0  0  0.320118  0  0.928511  0  0  0.324952  0.30339  0  0.94406  0
H  H5  1  0.94323187  0.17594552  0.15944209  1  0  0.334644  0  0.869613  0  0  0.310368  0  0.937489  0  0  0.320113  0  0.928513  0  0  0.324949  0.303387  0  0.944056  0
H  H6  1  0.16927671  0.92768611  0.97460341  1  0  0.142178  0  0.937124  0  0  0.149977  0  1.000658  0  0  0.15353  0  0.998873  0  0  0.115508  0.147456  0  1.001994  0
H  H7  1  0.83072566  0.07231561  0.47460409  1  0  0.142219  0  0.937094  0  0  0.150002  0  1.000637  0  0  0.153556  0  0.998855  0  0  0.115514  0.147481  0  1.001976  0
H  H8  1  0.63248757  0.82029507  0.01022543  1  0  0.154218  0  0.943519  0  0  0.155347  0  1.015954  0  0  0.160167  0  1.012124  0  0  0.110498  0.151888  0  1.018728  0
H  H9  1  0.36751314  0.17970210  0.51022241  1  0  0.154138  0  0.94359  0  0  0.155317  0  1.015969  0  0  0.160141  0  1.012137  0  0  0.110521  0.15186  0  1.018743  0
H  H10  1  0.85604093  0.91379333  0.72984662  1  0  0.140293  0  0.944703  0  0  0.143436  0  1.015186  0  0  0.148011  0  1.011372  0  0  0.112195  0.140299  0  1.017624  0
H  H11  1  0.14395714  0.08620721  0.22984475  1  0  0.140289  0  0.944754  0  0  0.143436  0  1.015213  0  0  0.14801  0  1.011402  0  0  0.112219  0.140302  0  1.017652  0
H  H12  1  0.17853441  0.50569735  0.37658428  1  0  0.14226  0  0.981574  0  0  0.145658  0  1.052903  0  0  0.150753  0  1.048192  0  0  0.109321  0.141981  0  1.056478  0
H  H13  1  0.82146470  0.49430873  0.87658514  1  0  0.14228  0  0.98154  0  0  0.145664  0  1.052889  0  0  0.150757  0  1.048182  0  0  0.109317  0.141996  0  1.056437  0
H  H14  1  0.63400713  0.35637177  0.40390203  1  0  0.157494  0  0.94296  0  0  0.160964  0  1.009895  0  0  0.166483  0  1.004939  0  0  0.111625  0.157479  0  1.012909  0
H  H15  1  0.36599209  0.64362773  0.90390153  1  0  0.157494  0  0.942983  0  0  0.160961  0  1.009928  0  0  0.16648  0  1.004968  0  0  0.111626  0.157477  0  1.012938  0
H  H16  1  0.93534591  0.39929587  0.65600465  1  0  0.14487  0  0.934104  0  0  0.147866  0  1.004204  0  0  0.152796  0  0.999766  0  0  0.112399  0.144074  0  1.007893  0
H  H17  1  0.06465421  0.60070354  0.15600404  1  0  0.144878  0  0.934103  0  0  0.147879  0  1.004198  0  0  0.152809  0  0.999759  0  0  0.112403  0.144087  0  1.007889  0
H  H18  1  0.18592219  0.37003883  0.69104048  1  0  0.338413  0  0.824017  0  0  0.320936  0  0.879432  0  0  0.329412  0  0.872043  0  0  0.345621  0.314796  0  0.88497  0
H  H19  1  0.81407719  0.62996170  0.19104238  1  0  0.338342  0  0.824035  0  0  0.320939  0  0.879365  0  0  0.329417  0  0.871973  0  0  0.34562  0.3148  0  0.884902  0
H  H20  1  0.75837530  0.61292526  0.69216844  1  0  0.384486  0  0.925281  0  0  0.350124  0  1.008896  0  0  0.363471  0  0.995661  0  0  0.290224  0.340863  0  1.017137  0
H  H21  1  0.24162305  0.38707088  0.19216953  1  0  0.384412  0  0.925373  0  0  0.350025  0  1.00904  0  0  0.363372  0  0.995803  0  0  0.29019  0.340764  0  1.017279  0
C  C22  1  0.32899038  0.94073751  0.65831663  1  0  0.034347  0  3.680868  0  0  0.016141  0  3.947321  0  0  0.016476  0  3.963707  0  0  0.093026  0.015781  0  3.936557  0
C  C23  1  0.67101027  0.05926300  0.15831610  1  0  0.034362  0  3.680881  0  0  0.016109  0  3.947327  0  0  0.016444  0  3.963715  0  0  0.093013  0.015752  0  3.936561  0
C  C24  1  0.62469373  0.11443406  0.73259882  1  0  0.646514  0  3.862184  0  0  0.586171  0  4.179166  0  0  0.622205  0  4.166872  0  0  0.22426  0.561888  0  4.186317  0
C  C25  1  0.37530672  0.88556429  0.23259943  1  0  0.646568  0  3.862281  0  0  0.586092  0  4.179453  0  0  0.622124  0  4.167158  0  0  0.224174  0.561809  0  4.186606  0
C  C26  1  0.43677511  0.03056312  0.72857814  1  0  -0.012151  0  3.790016  0  0  -0.025851  0  4.061909  0  0  -0.02744  0  4.081021  0  0  0.076703  -0.024573  0  4.048239  0
C  C27  1  0.56322475  0.96943632  0.22857784  1  0  -0.012121  0  3.789966  0  0  -0.025788  0  4.061897  0  0  -0.027379  0  4.081012  0  0  0.076724  -0.024512  0  4.04823  0
C  C28  1  0.02944028  0.92197711  0.84480093  1  0  0.048077  0  3.792802  0  0  0.069828  0  4.03212  0  0  0.06878  0  4.054131  0  0  0.004044  0.070424  0  4.017151  0
C  C29  1  0.97056031  0.07802237  0.34480071  1  0  0.04812  0  3.792743  0  0  0.06987  0  4.032044  0  0  0.068824  0  4.054052  0  0  0.004049  0.070468  0  4.017079  0
C  C30  1  0.04740990  0.91133751  0.94328734  1  0  -0.194903  0  3.696174  0  0  -0.238924  0  3.96081  0  0  -0.24274  0  3.979037  0  0  -0.092006  -0.236111  0  3.948519  0
C  C31  1  0.95259257  0.08866420  0.44328715  1  0  -0.194994  0  3.696167  0  0  -0.238991  0  3.960802  0  0  -0.242809  0  3.979035  0  0  -0.092026  -0.236177  0  3.94851  0
C  C32  1  0.17644302  0.95263317  0.78287281  1  0  0.369057  0  3.687738  0  0  0.332879  0  3.953364  0  0  0.34896  0  3.965818  0  0  0.240637  0.322394  0  3.944563  0
C  C33  1  0.82355888  0.04736849  0.28287348  1  0  0.369025  0  3.687808  0  0  0.332806  0  3.953421  0  0  0.348888  0  3.965873  0  0  0.240588  0.32232  0  3.944622  0
C  C34  1  0.73268046  0.86239241  0.86618695  1  0  0.355476  0  3.767813  0  0  0.343349  0  4.05142  0  0  0.356348  0  4.05995  0  0  0.102362  0.33566  0  4.044138  0
C  C35  1  0.26731896  0.13760489  0.36618494  1  0  0.355566  0  3.767677  0  0  0.343406  0  4.051358  0  0  0.356392  0  4.059899  0  0  0.102414  0.335719  0  4.044077  0
C  C36  1  0.74337912  0.84949240  0.96409216  1  0  -0.288758  0  3.704965  0  0  -0.331318  0  3.973362  0  0  -0.33675  0  3.987237  0  0  -0.107647  -0.32717  0  3.963542  0
C  C37  1  0.25662111  0.15050493  0.46409017  1  0  -0.288647  0  3.70497  0  0  -0.331237  0  3.973372  0  0  -0.336672  0  3.987255  0  0  -0.10765  -0.327091  0  3.963552  0
C  C38  1  0.90433231  0.87735922  0.99995898  1  0  0.34823  0  3.772245  0  0  0.333298  0  4.06311  0  0  0.344211  0  4.073996  0  0  0.102907  0.325615  0  4.056087  0
C  C39  1  0.09567058  0.12264141  0.49995862  1  0  0.348259  0  3.77245  0  0  0.333305  0  4.063343  0  0  0.344214  0  4.07424  0  0  0.102917  0.325624  0  4.05632  0
C  C40  1  0.87095017  0.89977835  0.80541058  1  0  -0.208228  0  3.693383  0  0  -0.254321  0  3.958058  0  0  -0.256868  0  3.972373  0  0  -0.098264  -0.251942  0  3.947165  0
C  C41  1  0.12904893  0.10021783  0.30540874  1  0  -0.208282  0  3.693456  0  0  -0.254355  0  3.958142  0  0  -0.256903  0  3.972463  0  0  -0.098285  -0.251981  0  3.947254  0
C  C42  1  0.06769387  0.47321802  0.42307092  1  0  -0.197686  0  3.679161  0  0  -0.23889  0  3.933966  0  0  -0.243073  0  3.951124  0  0  -0.094346  -0.236055  0  3.922842  0
C  C43  1  0.93230521  0.52678369  0.92307022  1  0  -0.197691  0  3.679133  0  0  -0.238923  0  3.933891  0  0  -0.243107  0  3.951053  0  0  -0.094368  -0.236085  0  3.922766  0
C  C44  1  0.90761187  0.43506316  0.38385344  1  0  0.353169  0  3.768961  0  0  0.346589  0  4.044053  0  0  0.357894  0  4.054256  0  0  0.104555  0.337888  0  4.038465  0
C  C45  1  0.09238905  0.56493963  0.88385113  1  0  0.353018  0  3.769074  0  0  0.346557  0  4.044021  0  0  0.357862  0  4.054225  0  0  0.104567  0.337855  0  4.038432  0
C  C46  1  0.75792344  0.38516596  0.43690339  1  0  -0.286574  0  3.711008  0  0  -0.330691  0  3.975728  0  0  -0.335413  0  3.988342  0  0  -0.106381  -0.327239  0  3.966884  0
C  C47  1  0.24207504  0.61483466  0.93690233  1  0  -0.286474  0  3.710975  0  0  -0.330653  0  3.975685  0  0  -0.335371  0  3.988294  0  0  -0.106395  -0.3272  0  3.966836  0
C  C48  1  0.07954754  0.46031210  0.52190520  1  0  0.042863  0  3.803535  0  0  0.061153  0  4.051615  0  0  0.059797  0  4.074212  0  0  0.002083  0.062097  0  4.036235  0
C  C49  1  0.92045129  0.53968836  0.02190615  1  0  0.042845  0  3.803485  0  0  0.06118  0  4.051517  0  0  0.059823  0  4.074115  0  0  0.002084  0.06212  0  4.036135  0
C  C50  1  0.36111358  0.89028327  0.56457514  1  0  0.601635  0  3.989638  0  0  0.551968  0  4.290742  0  0  0.584698  0  4.284986  0  0  0.195211  0.529633  0  4.294264  0
C  C51  1  0.63888625  0.10971721  0.06457542  1  0  0.601641  0  3.989563  0  0  0.551984  0  4.29066  0  0  0.584711  0  4.284904  0  0  0.195223  0.529647  0  4.294183  0
C  C52  1  0.24789350  0.49867870  0.56366732  1  0  0.370149  0  3.680025  0  0  0.334193  0  3.946398  0  0  0.349999  0  3.959844  0  0  0.240322  0.323636  0  3.93754  0
C  C53  1  0.75210572  0.50132287  0.06366777  1  0  0.370119  0  3.680007  0  0  0.334114  0  3.946426  0  0  0.34992  0  3.959875  0  0  0.240294  0.32356  0  3.937564  0
C  C54  1  0.77597011  0.37280626  0.53415482  1  0  0.343957  0  3.777531  0  0  0.33101  0  4.066104  0  0  0.341564  0  4.077738  0  0  0.098791  0.323703  0  4.058237  0
C  C55  1  0.22402759  0.62719201  0.03415471  1  0  0.343924  0  3.777482  0  0  0.331003  0  4.066039  0  0  0.341557  0  4.077671  0  0  0.098839  0.323695  0  4.058172  0
C  C56  1  0.93182302  0.40908002  0.57901719  1  0  -0.201719  0  3.670201  0  0  -0.253157  0  3.948401  0  0  -0.255521  0  3.963105  0  0  -0.097791  -0.251311  0  3.938461  0
C  C57  1  0.06817622  0.59091937  0.07901727  1  0  -0.201703  0  3.670232  0  0  -0.25316  0  3.948414  0  0  -0.255524  0  3.963119  0  0  -0.09781  -0.251321  0  3.938489  0
C  C58  1  0.70648895  0.69238318  0.57036695  1  0  0.648416  0  3.852084  0  0  0.593126  0  4.156701  0  0  0.627411  0  4.147326  0  0  0.227138  0.569818  0  4.162593  0
C  C59  1  0.29351079  0.30761949  0.07036647  1  0  0.648425  0  3.852102  0  0  0.593145  0  4.156739  0  0  0.627422  0  4.147364  0  0  0.22712  0.569829  0  4.162632  0
C  C60  1  0.52417063  0.59579291  0.58989046  1  0  -0.011358  0  3.77015  0  0  -0.020619  0  4.033546  0  0  -0.0225  0  4.054102  0  0  0.078078  -0.019571  0  4.019905  0
C  C61  1  0.47583020  0.40420978  0.08989265  1  0  -0.011475  0  3.770106  0  0  -0.020786  0  4.033585  0  0  -0.022645  0  4.054111  0  0  0.077999  -0.019716  0  4.019914  0
C  C62  1  0.51646396  0.46008833  0.75125884  1  0  0.631481  0  3.957448  0  0  0.576636  0  4.268983  0  0  0.611768  0  4.259255  0  0  0.210197  0.552764  0  4.274922  0
C  C63  1  0.48353132  0.53990673  0.25126184  1  0  0.631367  0  3.95747  0  0  0.576493  0  4.269059  0  0  0.611629  0  4.259324  0  0  0.210207  0.552623  0  4.274998  0
C  C64  1  0.44709859  0.50393043  0.66671077  1  0  0.032542  0  3.691011  0  0  0.00989  0  3.965223  0  0  0.010503  0  3.980099  0  0  0.093038  0.009461  0  3.955496  0
C  C65  1  0.55290265  0.49606899  0.16671222  1  0  0.032691  0  3.691042  0  0  0.010046  0  3.965313  0  0  0.01065  0  3.980186  0  0  0.093075  0.009605  0  3.955586  0
N  N66  1  0.34028112  0.03623260  0.80473691  1  0  -0.425482  0  3.15058  0  0  -0.366287  0  3.424969  0  0  -0.386418  0  3.439941  0  0  -0.336033  -0.352125  0  3.413845  0
N  N67  1  0.65972016  0.96376796  0.30473718  1  0  -0.425449  0  3.150547  0  0  -0.366249  0  3.424932  0  0  -0.38638  0  3.439906  0  0  -0.336009  -0.352085  0  3.41381  0
N  N68  1  0.16644695  0.89443104  0.69418009  1  0  -0.312646  0  3.364474  0  0  -0.257663  0  3.601738  0  0  -0.272291  0  3.611605  0  0  -0.351991  -0.248001  0  3.595405  0
N  N69  1  0.83355411  0.10557058  0.19418009  1  0  -0.312724  0  3.36456  0  0  -0.257626  0  3.601697  0  0  -0.272255  0  3.611564  0  0  -0.351949  -0.247962  0  3.595363  0
N  N70  1  0.39942952  0.59032520  0.52704483  1  0  -0.428699  0  3.156866  0  0  -0.36284  0  3.420861  0  0  -0.384489  0  3.438639  0  0  -0.332509  -0.347835  0  3.40875  0
N  N71  1  0.60057038  0.40967746  0.02704542  1  0  -0.428677  0  3.156725  0  0  -0.362777  0  3.420729  0  0  -0.384433  0  3.438499  0  0  -0.332478  -0.34778  0  3.408609  0
N  N72  1  0.27518345  0.44513827  0.64800484  1  0  -0.313986  0  3.397712  0  0  -0.264609  0  3.642853  0  0  -0.278271  0  3.652387  0  0  -0.357351  -0.255726  0  3.637149  0
N  N73  1  0.72481723  0.55486224  0.14800537  1  0  -0.313892  0  3.39767  0  0  -0.264571  0  3.642808  0  0  -0.278234  0  3.652345  0  0  -0.35732  -0.25569  0  3.637107  0
O  O74  1  0.71736281  0.09019411  0.66668337  1  0  -0.533648  0  2.10348  0  0  -0.491213  0  2.340494  0  0  -0.513211  0  2.324041  0  0  -0.322477  -0.475814  0  2.350342  0
O  O75  1  0.28263904  0.90980422  0.16668413  1  0  -0.533666  0  2.103484  0  0  -0.491167  0  2.340532  0  0  -0.513173  0  2.324095  0  0  -0.322437  -0.475768  0  2.350382  0
O  O76  1  0.69246562  0.20437148  0.79783694  1  0  -0.5492  0  1.974227  0  0  -0.494402  0  2.217682  0  0  -0.51867  0  2.204558  0  0  -0.287951  -0.477408  0  2.226078  0
O  O77  1  0.30753630  0.79562799  0.29783828  1  0  -0.549233  0  1.974292  0  0  -0.494402  0  2.217823  0  0  -0.518669  0  2.204699  0  0  -0.287918  -0.477405  0  2.226218  0
O  O78  1  0.52214402  0.93568529  0.54056914  1  0  -0.653967  0  2.065604  0  0  -0.585435  0  2.306181  0  0  -0.615447  0  2.295424  0  0  -0.330603  -0.564099  0  2.312497  0
O  O79  1  0.47785706  0.06431518  0.04057033  1  0  -0.653969  0  2.065574  0  0  -0.585448  0  2.306155  0  0  -0.61546  0  2.2954  0  0  -0.3306  -0.564105  0  2.312452  0
O  O80  1  0.23915573  0.80706718  0.51520464  1  0  -0.548215  0  1.914462  0  0  -0.506541  0  2.130355  0  0  -0.528783  0  2.124589  0  0  -0.301493  -0.490803  0  2.134148  0
O  O81  1  0.76084537  0.19293548  0.01520481  1  0  -0.548227  0  1.914406  0  0  -0.506557  0  2.130299  0  0  -0.528799  0  2.124534  0  0  -0.301511  -0.490819  0  2.134091  0
O  O82  1  0.82036155  0.68862707  0.63155363  1  0  -0.56168  0  2.111489  0  0  -0.504648  0  2.33513  0  0  -0.528654  0  2.321168  0  0  -0.3137  -0.487908  0  2.343757  0
O  O83  1  0.17963634  0.31137234  0.13155260  1  0  -0.561657  0  2.111532  0  0  -0.504636  0  2.33522  0  0  -0.528626  0  2.321232  0  0  -0.313682  -0.487895  0  2.34385  0
O  O84  1  0.74738802  0.77374217  0.49963973  1  0  -0.537714  0  1.969462  0  0  -0.484016  0  2.200499  0  0  -0.507625  0  2.190776  0  0  -0.283357  -0.467572  0  2.206689  0
O  O85  1  0.25261528  0.22626395  0.99963833  1  0  -0.53769  0  1.969528  0  0  -0.483978  0  2.200562  0  0  -0.507589  0  2.190842  0  0  -0.283309  -0.467534  0  2.206755  0
O  O86  1  0.41053086  0.36245426  0.80417215  1  0  -0.599869  0  1.973414  0  0  -0.546552  0  2.2174  0  0  -0.572809  0  2.205825  0  0  -0.318174  -0.528122  0  2.22493  0
O  O87  1  0.58946122  0.63754412  0.30417580  1  0  -0.599883  0  1.97342  0  0  -0.54656  0  2.217442  0  0  -0.572818  0  2.205864  0  0  -0.318214  -0.528129  0  2.224972  0
O  O88  1  0.67894008  0.52322580  0.76364123  1  0  -0.57942  0  2.053531  0  0  -0.527923  0  2.282769  0  0  -0.553601  0  2.273241  0  0  -0.306417  -0.510101  0  2.288639  0
O  O89  1  0.32105420  0.47676269  0.26364512  1  0  -0.579343  0  2.053535  0  0  -0.527808  0  2.282775  0  0  -0.553497  0  2.273263  0  0  -0.306417  -0.509984  0  2.288646  0
F  F90  1  0.92074346  0.86919700  0.09625877  1  0  -0.218201  0  1.19896  0  0  -0.152241  0  1.346093  0  0  -0.162287  0  1.337545  0  0  -0.096581  -0.144836  0  1.35193  0
F  F91  1  0.07926205  0.13080349  0.59625825  1  0  -0.218246  0  1.199069  0  0  -0.152266  0  1.346197  0  0  -0.162309  0  1.337652  0  0  -0.096608  -0.14486  0  1.352033  0
F  F92  1  0.57666086  0.83636670  0.82777904  1  0  -0.223236  0  1.208316  0  0  -0.157353  0  1.357008  0  0  -0.175584  0  1.356672  0  0  -0.093225  -0.149291  0  1.362544  0
F  F93  1  0.42333979  0.16363278  0.32777541  1  0  -0.223273  0  1.208178  0  0  -0.157402  0  1.356904  0  0  -0.175607  0  1.356553  0  0  -0.093272  -0.149338  0  1.362439  0
F  F94  1  0.89414209  0.44362233  0.28723229  1  0  -0.219706  0  1.190202  0  0  -0.164067  0  1.342885  0  0  -0.174803  0  1.33431  0  0  -0.097394  -0.155684  0  1.348791  0
F  F95  1  0.10585796  0.55638261  0.78723067  1  0  -0.21964  0  1.190243  0  0  -0.164038  0  1.342885  0  0  -0.174773  0  1.33431  0  0  -0.097395  -0.155658  0  1.348792  0
F  F96  1  0.62991691  0.32293296  0.58804350  1  0  -0.22745  0  1.237758  0  0  -0.158378  0  1.392434  0  0  -0.170562  0  1.385961  0  0  -0.091553  -0.149535  0  1.396884  0
F  F97  1  0.37008066  0.67706314  0.08804322  1  0  -0.227456  0  1.237803  0  0  -0.15838  0  1.392454  0  0  -0.170563  0  1.385981  0  0  -0.091548  -0.149538  0  1.396904  0
