# generated using pymatgen
data_AlH4C7NO5
_symmetry_space_group_name_H-M   'P 1'
_cell_length_a   10.44973548
_cell_length_b   16.06874744
_cell_length_c   16.22115445
_cell_angle_alpha   83.99676118
_cell_angle_beta   71.20988508
_cell_angle_gamma   71.05304255
_symmetry_Int_Tables_number   1
_chemical_formula_structural   AlH4C7NO5
_chemical_formula_sum   'Al8 H32 C56 N8 O40'
_cell_volume   2438.88867899
_cell_formula_units_Z   8
loop_
 _symmetry_equiv_pos_site_id
 _symmetry_equiv_pos_as_xyz
  1  'x, y, z'
loop_
 _atom_site_type_symbol
 _atom_site_label
 _atom_site_symmetry_multiplicity
 _atom_site_fract_x
 _atom_site_fract_y
 _atom_site_fract_z
 _atom_site_occupancy
 _atom_site_hle17_bader_spin_density
 _atom_site_hle17_ddec_charge
 _atom_site_hle17_ddec_spin_density
 _atom_site_hle17_ddec_sum_bond_order
 _atom_site_hle17_magmom
 _atom_site_hse06_10hf_bader_spin_density
 _atom_site_hse06_10hf_ddec_charge
 _atom_site_hse06_10hf_ddec_spin_density
 _atom_site_hse06_10hf_ddec_sum_bond_order
 _atom_site_hse06_10hf_magmom
 _atom_site_hse06_bader_spin_density
 _atom_site_hse06_ddec_charge
 _atom_site_hse06_ddec_spin_density
 _atom_site_hse06_ddec_sum_bond_order
 _atom_site_hse06_magmom
 _atom_site_pbe_bader_charge
 _atom_site_pbe_bader_spin_density
 _atom_site_pbe_cm5_charge
 _atom_site_pbe_ddec_charge
 _atom_site_pbe_ddec_spin_density
 _atom_site_pbe_ddec_sum_bond_order
 _atom_site_pbe_magmom
Al  Al0  1  0.50014500  0.18111663  0.31846864  1  0  1.824165  0  2.202478  0  0  1.683809  0  2.543303  0  0  1.719508  0  2.494008  0  2.499089  0  0.39838  1.658043  0  2.57816  0
Al  Al1  1  0.99970661  0.31890941  0.18151099  1  0  1.825441  0  2.199255  0  0  1.68457  0  2.539385  0  0  1.720335  0  2.490081  0  2.503438  0  0.399325  1.658747  0  2.574323  0
Al  Al2  1  0.68137353  0.31885526  0.31847255  1  0  1.824668  0  2.201946  0  0  1.684898  0  2.538709  0  0  1.72066  0  2.489388  0  2.502486  0  0.398689  1.65909  0  2.573611  0
Al  Al3  1  0.31879412  0.18114046  0.18152272  1  0  1.824501  0  2.201986  0  0  1.685079  0  2.538743  0  0  1.720892  0  2.48934  0  2.501544  0  0.39891  1.65925  0  2.573681  0
Al  Al4  1  0.49985298  0.81888413  0.68153230  1  0  1.824168  0  2.202467  0  0  1.683815  0  2.543241  0  0  1.719513  0  2.493948  0  2.499107  0  0.398398  1.658047  0  2.578099  0
Al  Al5  1  0.00029438  0.68109137  0.81848995  1  0  1.825436  0  2.199286  0  0  1.684601  0  2.539315  0  0  1.720368  0  2.490005  0  2.503465  0  0.399319  1.658783  0  2.574248  0
Al  Al6  1  0.31862429  0.68114529  0.68152709  1  0  1.82458  0  2.202059  0  0  1.684846  0  2.538834  0  0  1.720611  0  2.489509  0  2.502484  0  0.398667  1.659037  0  2.573737  0
Al  Al7  1  0.68120826  0.81885825  0.81847758  1  0  1.824391  0  2.20214  0  0  1.684946  0  2.539052  0  0  1.720747  0  2.48968  0  2.501551  0  0.398818  1.659117  0  2.573992  0
H  H8  1  0.87140046  0.01076444  0.18003346  1  0  0.087582  0  0.909585  0  0  0.094245  0  0.969794  0  0  0.098169  0  0.965806  0  0.092206  0  0.119329  0.091351  0  0.972694  0
H  H9  1  0.06202608  0.48924739  0.32006339  1  0  0.087245  0  0.911131  0  0  0.094134  0  0.971035  0  0  0.09803  0  0.967069  0  0.093737  0  0.119256  0.091262  0  0.973907  0
H  H10  1  0.12975834  0.31906828  0.48826874  1  0  0.086795  0  0.911387  0  0  0.092877  0  0.972232  0  0  0.096764  0  0.968248  0  0.122646  0  0.118754  0.09001  0  0.975101  0
H  H11  1  0.44829847  0.48922212  0.18003216  1  0  0.086399  0  0.911479  0  0  0.093211  0  0.971499  0  0  0.097113  0  0.967528  0  0.095008  0  0.119138  0.090328  0  0.974373  0
H  H12  1  0.88204742  0.18077103  0.48826353  1  0  0.087029  0  0.911738  0  0  0.093865  0  0.971653  0  0  0.097744  0  0.96771  0  0.12253  0  0.119369  0.090969  0  0.974558  0
H  H13  1  0.55130053  0.31915727  0.01169396  1  0  0.08679  0  0.911335  0  0  0.092985  0  0.972003  0  0  0.096877  0  0.968018  0  0.080195  0  0.118926  0.090103  0  0.974887  0
H  H14  1  0.11783524  0.01087470  0.32006599  1  0  0.087505  0  0.911884  0  0  0.094405  0  0.971801  0  0  0.098309  0  0.967827  0  0.09163  0  0.119298  0.091535  0  0.974674  0
H  H15  1  0.93720916  0.18085956  0.01169201  1  0  0.086106  0  0.911503  0  0  0.092983  0  0.971589  0  0  0.096864  0  0.967616  0  0.076722  0  0.119124  0.090108  0  0.974486  0
H  H16  1  0.12860239  0.98923554  0.81996944  1  0  0.08759  0  0.909626  0  0  0.094264  0  0.969812  0  0  0.098188  0  0.965825  0  0.092251  0  0.119319  0.09137  0  0.972713  0
H  H17  1  0.93797266  0.51075192  0.67993690  1  0  0.087274  0  0.911128  0  0  0.094174  0  0.971019  0  0  0.098072  0  0.96705  0  0.093727  0  0.119263  0.091302  0  0.973891  0
H  H18  1  0.87023807  0.68093268  0.51173090  1  0  0.086817  0  0.911425  0  0  0.092858  0  0.972298  0  0  0.096743  0  0.96832  0  0.122705  0  0.118768  0.089998  0  0.975168  0
H  H19  1  0.55170042  0.51077635  0.81996748  1  0  0.086389  0  0.911478  0  0  0.093194  0  0.971516  0  0  0.097102  0  0.967538  0  0.094761  0  0.119123  0.090311  0  0.974391  0
H  H20  1  0.11795526  0.81922705  0.51173741  1  0  0.087023  0  0.91167  0  0  0.093866  0  0.971578  0  0  0.097744  0  0.967639  0  0.122506  0  0.119366  0.090971  0  0.974481  0
H  H21  1  0.44870250  0.68084249  0.98830698  1  0  0.086748  0  0.911387  0  0  0.092977  0  0.972017  0  0  0.096871  0  0.968032  0  0.080137  0  0.118959  0.090094  0  0.9749  0
H  H22  1  0.88216128  0.98912480  0.67993430  1  0  0.08746  0  0.91191  0  0  0.094361  0  0.971828  0  0  0.098263  0  0.967856  0  0.09177  0  0.119291  0.091491  0  0.974701  0
H  H23  1  0.06278834  0.81914099  0.98830829  1  0  0.086084  0  0.911545  0  0  0.092958  0  0.971625  0  0  0.096831  0  0.967659  0  0.076629  0  0.119104  0.090082  0  0.974525  0
H  H24  1  0.63440591  0.98542892  0.01531519  1  0  0.12782  0  0.909157  0  0  0.136072  0  0.969191  0  0  0.140332  0  0.964586  0  0.13756  0  0.124561  0.132933  0  0.972526  0
H  H25  1  0.63503445  0.51456195  0.48469765  1  0  0.128118  0  0.910058  0  0  0.136429  0  0.969987  0  0  0.140647  0  0.965396  0  0.156448  0  0.124443  0.133321  0  0.973308  0
H  H26  1  0.36496089  0.48544109  0.51530199  1  0  0.128065  0  0.910068  0  0  0.136414  0  0.969987  0  0  0.140633  0  0.965394  0  0.156422  0  0.12443  0.133306  0  0.973307  0
H  H27  1  0.85002552  0.51462765  0.01541092  1  0  0.128636  0  0.911155  0  0  0.136768  0  0.971115  0  0  0.140982  0  0.966552  0  0.11192  0  0.125081  0.133667  0  0.974411  0
H  H28  1  0.61953143  0.01454879  0.51544460  1  0  0.128408  0  0.911849  0  0  0.137394  0  0.970783  0  0  0.141655  0  0.966185  0  0.136642  0  0.12535  0.134263  0  0.974101  0
H  H29  1  0.14997379  0.48536874  0.98459003  1  0  0.128638  0  0.911127  0  0  0.136776  0  0.971094  0  0  0.140989  0  0.966531  0  0.11188  0  0.125114  0.133673  0  0.974391  0
H  H30  1  0.38047006  0.98545073  0.48455179  1  0  0.12841  0  0.911861  0  0  0.137371  0  0.970827  0  0  0.141632  0  0.966231  0  0.136746  0  0.125358  0.134241  0  0.97414  0
H  H31  1  0.36559508  0.01457292  0.98468770  1  0  0.127818  0  0.909195  0  0  0.136052  0  0.969242  0  0  0.140311  0  0.964638  0  0.137523  0  0.124565  0.13292  0  0.972567  0
H  H32  1  0.35095888  0.29805209  0.25001228  1  0  0.454423  0  0.798826  0  0  0.437981  0  0.843387  0  0  0.44558  0  0.833305  0  0.603903  0  0.354673  0.432512  0  0.849537  0
H  H33  1  0.89901534  0.20198797  0.25003117  1  0  0.454712  0  0.799016  0  0  0.438109  0  0.843794  0  0  0.445745  0  0.833176  0  0.604755  0  0.354625  0.432616  0  0.849987  0
H  H34  1  0.64846505  0.24998903  0.20302871  1  0  0.45312  0  0.801288  0  0  0.43598  0  0.846634  0  0  0.443549  0  0.836381  0  0.595878  0  0.35445  0.430536  0  0.852676  0
H  H35  1  0.10152618  0.24997266  0.29694115  1  0  0.452535  0  0.801936  0  0  0.435381  0  0.847356  0  0  0.442952  0  0.837161  0  0.59614  0  0.354245  0.429933  0  0.853405  0
H  H36  1  0.64903877  0.70194867  0.74998931  1  0  0.454409  0  0.798933  0  0  0.437953  0  0.843502  0  0  0.445556  0  0.833354  0  0.603931  0  0.35464  0.432477  0  0.849667  0
H  H37  1  0.10098217  0.79801153  0.74996717  1  0  0.454699  0  0.799043  0  0  0.438081  0  0.843843  0  0  0.445725  0  0.833204  0  0.604759  0  0.354621  0.432587  0  0.850036  0
H  H38  1  0.35152898  0.75001296  0.79697158  1  0  0.453149  0  0.80125  0  0  0.436012  0  0.846589  0  0  0.443582  0  0.836335  0  0.595891  0  0.354473  0.430569  0  0.852629  0
H  H39  1  0.89847283  0.75002436  0.70305914  1  0  0.452567  0  0.801845  0  0  0.43541  0  0.847281  0  0  0.442983  0  0.837111  0  0.596139  0  0.354243  0.42996  0  0.853335  0
C  C40  1  0.73741429  0.00627911  0.10437175  1  0  -0.132178  0  3.747836  0  0  -0.107231  0  3.989886  0  0  -0.122358  0  4.014992  0  0.052149  0  -0.010967  -0.097684  0  3.973025  0
C  C41  1  0.84792403  0.49373428  0.39566388  1  0  -0.133641  0  3.749207  0  0  -0.109116  0  3.991612  0  0  -0.124238  0  4.016695  0  0.050328  0  -0.012617  -0.099584  0  3.974787  0
C  C42  1  0.26293081  0.39588639  0.49300350  1  0  -0.13467  0  3.745911  0  0  -0.110038  0  3.988396  0  0  -0.125093  0  4.013362  0  0.033172  0  -0.0125  -0.100547  0  3.971647  0
C  C43  1  0.65801216  0.49366222  0.10436589  1  0  -0.136415  0  3.751684  0  0  -0.111613  0  3.993827  0  0  -0.126756  0  4.018889  0  0.083069  0  -0.012604  -0.102057  0  3.976999  0
C  C44  1  0.74411317  0.10399468  0.49299308  1  0  -0.131748  0  3.745195  0  0  -0.107844  0  3.98797  0  0  -0.122831  0  4.012925  0  -0.027771  0  -0.011882  -0.098394  0  3.971223  0
C  C45  1  0.34142543  0.39594164  0.00698851  1  0  -0.131636  0  3.746117  0  0  -0.106983  0  3.987966  0  0  -0.12203  0  4.012987  0  -0.012081  0  -0.011737  -0.097499  0  3.971166  0
C  C46  1  0.25633794  0.00637874  0.39568407  1  0  -0.135214  0  3.750943  0  0  -0.110397  0  3.993239  0  0  -0.125503  0  4.018309  0  0.021819  0  -0.01265  -0.100872  0  3.976413  0
C  C47  1  0.15181827  0.10411604  0.00694097  1  0  -0.132775  0  3.746819  0  0  -0.107836  0  3.988584  0  0  -0.122874  0  4.013591  0  0.017638  0  -0.011813  -0.098352  0  3.971794  0
C  C48  1  0.26259187  0.99372026  0.89563180  1  0  -0.132242  0  3.747917  0  0  -0.107314  0  3.98998  0  0  -0.122438  0  4.015081  0  0.052721  0  -0.010992  -0.097769  0  3.973122  0
C  C49  1  0.15207160  0.50626814  0.60433641  1  0  -0.133735  0  3.749223  0  0  -0.109184  0  3.991697  0  0  -0.124302  0  4.016778  0  0.050148  0  -0.012603  -0.099654  0  3.974875  0
C  C50  1  0.73706707  0.60411646  0.50699549  1  0  -0.134585  0  3.745943  0  0  -0.109951  0  3.988369  0  0  -0.125008  0  4.013335  0  0.033204  0  -0.012457  -0.100459  0  3.971619  0
C  C51  1  0.34198641  0.50633520  0.89563245  1  0  -0.136459  0  3.751593  0  0  -0.11164  0  3.993725  0  0  -0.126784  0  4.018785  0  0.082956  0  -0.012617  -0.102086  0  3.976898  0
C  C52  1  0.25588880  0.89600611  0.50700591  1  0  -0.13168  0  3.745147  0  0  -0.107836  0  3.98793  0  0  -0.122825  0  4.012887  0  -0.027916  0  -0.011865  -0.098393  0  3.971175  0
C  C53  1  0.65857583  0.60405685  0.99301244  1  0  -0.131686  0  3.746216  0  0  -0.107052  0  3.988088  0  0  -0.12209  0  4.01311  0  -0.012015  0  -0.011775  -0.097562  0  3.971288  0
C  C54  1  0.74366522  0.99361746  0.60431362  1  0  -0.13522  0  3.750937  0  0  -0.110408  0  3.993198  0  0  -0.125522  0  4.018265  0  0.021336  0  -0.012607  -0.100882  0  3.976372  0
C  C55  1  0.84818053  0.89588661  0.99306063  1  0  -0.132707  0  3.746575  0  0  -0.107883  0  3.988516  0  0  -0.122921  0  4.013523  0  0.017878  0  -0.011859  -0.098397  0  3.971722  0
C  C56  1  0.86480497  0.97922000  0.12573189  1  0  0.139385  0  3.687696  0  0  0.099406  0  3.953892  0  0  0.108694  0  3.969083  0  0.503343  0  0.061087  0.093701  0  3.943353  0
C  C57  1  0.96962828  0.52081013  0.37436887  1  0  0.140708  0  3.691705  0  0  0.100851  0  3.957776  0  0  0.11017  0  3.972985  0  0.498957  0  0.06289  0.095134  0  3.947219  0
C  C58  1  0.13613743  0.37373107  0.51982772  1  0  0.142805  0  3.685275  0  0  0.103555  0  3.950987  0  0  0.112913  0  3.966099  0  0.500767  0  0.063391  0.097819  0  3.940489  0
C  C59  1  0.50924553  0.52072714  0.12571756  1  0  0.143302  0  3.689934  0  0  0.103636  0  3.955668  0  0  0.112974  0  3.970864  0  0.456404  0  0.06329  0.097912  0  3.94512  0
C  C60  1  0.84413115  0.12610162  0.51980623  1  0  0.14157  0  3.686013  0  0  0.10205  0  3.951821  0  0  0.11137  0  3.966967  0  0.513707  0  0.062624  0.096359  0  3.941302  0
C  C61  1  0.49035886  0.37382379  0.98012811  1  0  0.141535  0  3.687897  0  0  0.102344  0  3.95349  0  0  0.111691  0  3.968641  0  0.558713  0  0.06296  0.096627  0  3.94295  0
C  C62  1  0.15591716  0.97933925  0.37438189  1  0  0.140823  0  3.693387  0  0  0.100639  0  3.959519  0  0  0.109964  0  3.974706  0  0.520199  0  0.062533  0.09491  0  3.948987  0
C  C63  1  0.02973851  0.12621104  0.98010467  1  0  0.143142  0  3.687709  0  0  0.103264  0  3.953448  0  0  0.112612  0  3.968561  0  0.539968  0  0.062796  0.097538  0  3.942938  0
C  C64  1  0.13519930  0.02077852  0.87426906  1  0  0.139344  0  3.687662  0  0  0.099366  0  3.953842  0  0  0.108652  0  3.969035  0  0.502712  0  0.061114  0.093662  0  3.943303  0
C  C65  1  0.03037132  0.47919169  0.62563077  1  0  0.140647  0  3.691708  0  0  0.100785  0  3.957765  0  0  0.110101  0  3.972977  0  0.499112  0  0.062834  0.095068  0  3.94721  0
C  C66  1  0.86385947  0.62627073  0.48017127  1  0  0.142735  0  3.685398  0  0  0.103518  0  3.951108  0  0  0.112875  0  3.96622  0  0.500647  0  0.063383  0.097774  0  3.940618  0
C  C67  1  0.49075857  0.47926948  0.87428143  1  0  0.143356  0  3.690021  0  0  0.103668  0  3.955777  0  0  0.113  0  3.970972  0  0.456686  0  0.063307  0.097946  0  3.945226  0
C  C68  1  0.15586399  0.87389891  0.48019276  1  0  0.141564  0  3.686012  0  0  0.102056  0  3.951841  0  0  0.111376  0  3.966988  0  0.514235  0  0.062638  0.096363  0  3.941323  0
C  C69  1  0.50964240  0.62617470  0.01987283  1  0  0.141704  0  3.687872  0  0  0.102498  0  3.953464  0  0  0.111836  0  3.968621  0  0.558727  0  0.063032  0.096784  0  3.942923  0
C  C70  1  0.84408191  0.02066006  0.62561775  1  0  0.140926  0  3.693535  0  0  0.100724  0  3.959682  0  0  0.110057  0  3.974864  0  0.520315  0  0.062527  0.094995  0  3.949152  0
C  C71  1  0.97026136  0.87378953  0.01989692  1  0  0.143145  0  3.687754  0  0  0.103333  0  3.953476  0  0  0.11269  0  3.968592  0  0.539957  0  0.062842  0.097606  0  3.942965  0
C  C72  1  0.61051909  0.07418874  0.15776362  1  0  0.718647  0  3.810573  0  0  0.660389  0  4.106671  0  0  0.696101  0  4.097057  0  1.560726  0  0.26819  0.636232  0  4.112642  0
C  C73  1  0.84241867  0.42583642  0.34217043  1  0  0.720733  0  3.807032  0  0  0.662319  0  4.103089  0  0  0.69803  0  4.093441  0  1.566753  0  0.26886  0.638133  0  4.109108  0
C  C74  1  0.38956572  0.34282517  0.42487990  1  0  0.721536  0  3.806039  0  0  0.663671  0  4.101672  0  0  0.69936  0  4.092087  0  1.559499  0  0.268929  0.639502  0  4.107641  0
C  C75  1  0.73150533  0.42580214  0.15781246  1  0  0.72283  0  3.805865  0  0  0.66454  0  4.101915  0  0  0.700282  0  4.092216  0  1.562789  0  0.269122  0.640354  0  4.107956  0
C  C76  1  0.68557695  0.15709072  0.42489032  1  0  0.720231  0  3.80759  0  0  0.662826  0  4.102384  0  0  0.698384  0  4.09288  0  1.585853  0  0.268644  0.638729  0  4.108351  0
C  C77  1  0.26780749  0.34286768  0.07513815  1  0  0.719948  0  3.806613  0  0  0.661867  0  4.102341  0  0  0.69754  0  4.092809  0  1.584684  0  0.268613  0.637733  0  4.108263  0
C  C78  1  0.31538602  0.07422541  0.34219257  1  0  0.720873  0  3.804261  0  0  0.662355  0  4.100494  0  0  0.698042  0  4.090895  0  1.562317  0  0.268415  0.638203  0  4.10647  0
C  C79  1  0.15720770  0.15720656  0.07510169  1  0  0.719701  0  3.804743  0  0  0.661538  0  4.100825  0  0  0.697201  0  4.091245  0  1.594247  0  0.268306  0.637403  0  4.106793  0
C  C80  1  0.38948036  0.92581181  0.84223276  1  0  0.718691  0  3.810662  0  0  0.660464  0  4.106734  0  0  0.69618  0  4.097116  0  1.560602  0  0.268041  0.636307  0  4.112703  0
C  C81  1  0.15758587  0.57416479  0.65782661  1  0  0.720904  0  3.806807  0  0  0.662426  0  4.102972  0  0  0.698134  0  4.093325  0  1.566422  0  0.268897  0.63824  0  4.108994  0
C  C82  1  0.61043340  0.65717748  0.57512104  1  0  0.721487  0  3.806086  0  0  0.663668  0  4.101696  0  0  0.699358  0  4.092109  0  1.559542  0  0.268898  0.639499  0  4.107666  0
C  C83  1  0.26850567  0.57419493  0.84218197  1  0  0.722571  0  3.805957  0  0  0.664321  0  4.101993  0  0  0.700064  0  4.092296  0  1.562775  0  0.26899  0.640132  0  4.108036  0
C  C84  1  0.31442539  0.84291446  0.57511128  1  0  0.72024  0  3.807537  0  0  0.662932  0  4.102182  0  0  0.698495  0  4.092662  0  1.585752  0  0.268672  0.638863  0  4.108117  0
C  C85  1  0.73218971  0.65713454  0.92486344  1  0  0.719844  0  3.806617  0  0  0.66176  0  4.102367  0  0  0.697426  0  4.09284  0  1.58477  0  0.268616  0.637619  0  4.108302  0
C  C86  1  0.68460410  0.92577255  0.65779730  1  0  0.720861  0  3.804316  0  0  0.662376  0  4.100438  0  0  0.698069  0  4.090834  0  1.562297  0  0.26846  0.638225  0  4.106412  0
C  C87  1  0.84279581  0.84279341  0.92489991  1  0  0.719699  0  3.804408  0  0  0.661514  0  4.100575  0  0  0.697176  0  4.090995  0  1.59433  0  0.268259  0.637378  0  4.106542  0
C  C88  1  0.73065735  0.96542755  0.03473610  1  0  0.014729  0  3.635777  0  0  -0.029431  0  3.883812  0  0  -0.021044  0  3.899863  0  -0.040852  0  -0.042344  -0.034374  0  3.872757  0
C  C89  1  0.73072284  0.53457523  0.46528391  1  0  0.014894  0  3.636396  0  0  -0.029201  0  3.884735  0  0  -0.02075  0  3.900751  0  -0.044834  0  -0.041723  -0.034196  0  3.873692  0
C  C90  1  0.26927552  0.46542678  0.53471378  1  0  0.015002  0  3.636243  0  0  -0.029158  0  3.884649  0  0  -0.020711  0  3.900666  0  -0.044779  0  -0.041732  -0.034151  0  3.873609  0
C  C91  1  0.73436268  0.53458502  0.03477322  1  0  0.013235  0  3.639805  0  0  -0.030913  0  3.888259  0  0  -0.022483  0  3.904275  0  0.010071  0  -0.043009  -0.03589  0  3.877212  0
C  C92  1  0.69597455  0.03450246  0.53474178  1  0  0.014961  0  3.639076  0  0  -0.029503  0  3.886833  0  0  -0.021133  0  3.902862  0  0.002598  0  -0.042102  -0.034427  0  3.875772  0
C  C93  1  0.26563920  0.46541180  0.96522577  1  0  0.013327  0  3.639722  0  0  -0.030844  0  3.888192  0  0  -0.022406  0  3.904203  0  0.010313  0  -0.043004  -0.03582  0  3.877146  0
C  C94  1  0.30402579  0.96549623  0.46525656  1  0  0.015055  0  3.639131  0  0  -0.029374  0  3.886918  0  0  -0.021012  0  3.902953  0  0.002505  0  -0.042019  -0.034298  0  3.875855  0
C  C95  1  0.26934255  0.03457365  0.96526419  1  0  0.014781  0  3.63608  0  0  -0.029391  0  3.884068  0  0  -0.021004  0  3.900116  0  -0.040858  0  -0.042375  -0.03434  0  3.873014  0
N  N96  1  0.98090791  0.91551007  0.08351108  1  0  -0.309656  0  3.031972  0  0  -0.281201  0  3.306472  0  0  -0.292787  0  3.319067  0  -1.193839  0  -0.326448  -0.273628  0  3.297676  0
N  N97  1  0.97981830  0.58454943  0.41657796  1  0  -0.308683  0  3.031669  0  0  -0.280334  0  3.305868  0  0  -0.291926  0  3.3185  0  -1.196039  0  -0.326509  -0.272762  0  3.297068  0
N  N98  1  0.02017988  0.41545175  0.58341973  1  0  -0.308656  0  3.031522  0  0  -0.280299  0  3.305729  0  0  -0.291893  0  3.318364  0  -1.196083  0  -0.326442  -0.272727  0  3.296926  0
N  N99  1  0.43539776  0.58448981  0.08351498  1  0  -0.309555  0  3.03325  0  0  -0.281405  0  3.307642  0  0  -0.293005  0  3.320272  0  -1.200478  0  -0.32726  -0.273827  0  3.298832  0
N  N100  1  0.89648291  0.08439648  0.58340671  1  0  -0.309553  0  3.033757  0  0  -0.281215  0  3.308369  0  0  -0.292803  0  3.320985  0  -1.187694  0  -0.327018  -0.273642  0  3.299559  0
N  N101  1  0.56460276  0.41550971  0.91648335  1  0  -0.309499  0  3.033397  0  0  -0.281324  0  3.307772  0  0  -0.292925  0  3.320402  0  -1.20059  0  -0.327166  -0.273745  0  3.298962  0
N  N102  1  0.10351481  0.91560053  0.41659619  1  0  -0.309551  0  3.033767  0  0  -0.281216  0  3.308382  0  0  -0.292802  0  3.321  0  -1.187987  0  -0.327046  -0.273643  0  3.299573  0
N  N103  1  0.01909604  0.08448844  0.91649052  1  0  -0.309603  0  3.0319  0  0  -0.281137  0  3.306418  0  0  -0.292722  0  3.319016  0  -1.193622  0  -0.326425  -0.273564  0  3.297623  0
O  O104  1  0.50661293  0.10696158  0.12712347  1  0  -0.651488  0  2.081376  0  0  -0.593189  0  2.316824  0  0  -0.616173  0  2.302608  0  -1.256522  0  -0.229805  -0.577344  0  2.326293  0
O  O105  1  0.74063659  0.39302202  0.37279235  1  0  -0.653064  0  2.081514  0  0  -0.594334  0  2.316807  0  0  -0.617317  0  2.3026  0  -1.242799  0  -0.230027  -0.578433  0  2.326233  0
O  O106  1  0.49294470  0.37396089  0.39221521  1  0  -0.651846  0  2.073782  0  0  -0.593714  0  2.308697  0  0  -0.616661  0  2.294533  0  -1.257112  0  -0.230264  -0.577861  0  2.318111  0
O  O107  1  0.86607947  0.39305634  0.12720031  1  0  -0.653318  0  2.077783  0  0  -0.59472  0  2.313237  0  0  -0.617706  0  2.299005  0  -1.24351  0  -0.230156  -0.578864  0  2.322727  0
O  O108  1  0.61482552  0.12597523  0.39222107  1  0  -0.652036  0  2.07207  0  0  -0.594134  0  2.306868  0  0  -0.616885  0  2.292628  0  -1.251848  0  -0.230614  -0.578397  0  2.316339  0
O  O109  1  0.13329367  0.37395652  0.10777158  1  0  -0.652378  0  2.072443  0  0  -0.593937  0  2.307229  0  0  -0.616872  0  2.293057  0  -1.250352  0  -0.230752  -0.578106  0  2.31666  0
O  O110  1  0.38652491  0.10703469  0.37283077  1  0  -0.65175  0  2.081954  0  0  -0.592971  0  2.317423  0  0  -0.615913  0  2.303228  0  -1.250311  0  -0.228783  -0.577128  0  2.326864  0
O  O111  1  0.25907285  0.12609966  0.10774293  1  0  -0.651607  0  2.071494  0  0  -0.593905  0  2.306914  0  0  -0.616815  0  2.292696  0  -1.245992  0  -0.230065  -0.578073  0  2.316357  0
O  O112  1  0.49340240  0.89303639  0.87288073  1  0  -0.651484  0  2.080721  0  0  -0.593287  0  2.316218  0  0  -0.616288  0  2.302021  0  -1.256212  0  -0.229748  -0.577436  0  2.325683  0
O  O113  1  0.25935730  0.60697976  0.62720664  1  0  -0.653009  0  2.081642  0  0  -0.594302  0  2.317003  0  0  -0.617285  0  2.302796  0  -1.242843  0  -0.229999  -0.578394  0  2.326421  0
O  O114  1  0.50705425  0.62603988  0.60778378  1  0  -0.651766  0  2.073692  0  0  -0.593754  0  2.308679  0  0  -0.616703  0  2.294513  0  -1.257092  0  -0.230285  -0.577901  0  2.318093  0
O  O115  1  0.13391930  0.60694359  0.87279868  1  0  -0.653268  0  2.077473  0  0  -0.5947  0  2.312923  0  0  -0.617688  0  2.298693  0  -1.243439  0  -0.230111  -0.578835  0  2.322403  0
O  O116  1  0.38516647  0.87402779  0.60777922  1  0  -0.651968  0  2.072295  0  0  -0.594115  0  2.307054  0  0  -0.61687  0  2.292813  0  -1.251842  0  -0.230574  -0.578389  0  2.316513  0
O  O117  1  0.86670802  0.62604761  0.89222936  1  0  -0.652347  0  2.072393  0  0  -0.593885  0  2.307165  0  0  -0.616821  0  2.292999  0  -1.250436  0  -0.230707  -0.578068  0  2.316615  0
O  O118  1  0.61347836  0.89296610  0.62716561  1  0  -0.651628  0  2.082441  0  0  -0.592871  0  2.317891  0  0  -0.615816  0  2.303697  0  -1.250393  0  -0.228762  -0.577032  0  2.327333  0
O  O119  1  0.74092918  0.87390342  0.89225541  1  0  -0.651692  0  2.071191  0  0  -0.593964  0  2.306618  0  0  -0.61687  0  2.292398  0  -1.246082  0  -0.230114  -0.578133  0  2.316061  0
O  O120  1  0.61585432  0.09290292  0.23086813  1  0  -0.672134  0  2.102296  0  0  -0.613194  0  2.340263  0  0  -0.636731  0  2.326829  0  -1.257729  0  -0.234405  -0.596881  0  2.349095  0
O  O121  1  0.93960055  0.40720195  0.26906267  1  0  -0.67228  0  2.100253  0  0  -0.613244  0  2.338262  0  0  -0.636759  0  2.324759  0  -1.26788  0  -0.234323  -0.59692  0  2.347143  0
O  O122  1  0.38433087  0.26911978  0.40599752  1  0  -0.674086  0  2.104103  0  0  -0.61516  0  2.342185  0  0  -0.638813  0  2.328848  0  -1.258279  0  -0.23494  -0.598733  0  2.350929  0
O  O123  1  0.65302679  0.40710809  0.23091566  1  0  -0.672752  0  2.099847  0  0  -0.614042  0  2.338063  0  0  -0.637587  0  2.32455  0  -1.260545  0  -0.23466  -0.597728  0  2.346958  0
O  O124  1  0.70972650  0.23078403  0.40600599  1  0  -0.673538  0  2.105283  0  0  -0.614825  0  2.343195  0  0  -0.63845  0  2.329856  0  -1.25835  0  -0.234799  -0.598463  0  2.352006  0
O  O125  1  0.34668606  0.26921534  0.09407263  1  0  -0.67298  0  2.103947  0  0  -0.613936  0  2.341977  0  0  -0.637571  0  2.328615  0  -1.262327  0  -0.234145  -0.597556  0  2.350761  0
O  O126  1  0.29137223  0.09285344  0.26907439  1  0  -0.673258  0  2.09829  0  0  -0.61434  0  2.336187  0  0  -0.637929  0  2.322748  0  -1.262758  0  -0.235046  -0.598001  0  2.345041  0
O  O127  1  0.05938826  0.23086587  0.09401272  1  0  -0.672635  0  2.104312  0  0  -0.61364  0  2.342729  0  0  -0.637262  0  2.329362  0  -1.266153  0  -0.23425  -0.597279  0  2.351539  0
O  O128  1  0.38415268  0.90709439  0.76914193  1  0  -0.672104  0  2.103002  0  0  -0.613124  0  2.340925  0  0  -0.636648  0  2.327479  0  -1.258005  0  -0.23426  -0.596815  0  2.349761  0
O  O129  1  0.06039642  0.59279715  0.73093958  1  0  -0.672452  0  2.099931  0  0  -0.613385  0  2.337968  0  0  -0.636902  0  2.324464  0  -1.267557  0  -0.234374  -0.597062  0  2.34685  0
O  O130  1  0.61566850  0.73087891  0.59400277  1  0  -0.674105  0  2.104225  0  0  -0.615158  0  2.342258  0  0  -0.638807  0  2.328919  0  -1.25836  0  -0.23492  -0.598731  0  2.351005  0
O  O131  1  0.34697397  0.59288746  0.76908202  1  0  -0.672525  0  2.100121  0  0  -0.613844  0  2.338313  0  0  -0.637393  0  2.324802  0  -1.260661  0  -0.234575  -0.597533  0  2.347212  0
O  O132  1  0.29027254  0.76921571  0.59399691  1  0  -0.673703  0  2.10503  0  0  -0.614975  0  2.342861  0  0  -0.638596  0  2.329509  0  -1.258249  0  -0.234833  -0.598625  0  2.351665  0
O  O133  1  0.65330890  0.73078646  0.90593027  1  0  -0.672846  0  2.103965  0  0  -0.613817  0  2.342011  0  0  -0.637437  0  2.328643  0  -1.262387  0  -0.234165  -0.597431  0  2.350797  0
O  O134  1  0.70862297  0.90714439  0.73092786  1  0  -0.673375  0  2.097888  0  0  -0.614388  0  2.335689  0  0  -0.637977  0  2.322247  0  -1.262461  0  -0.23506  -0.598047  0  2.344543  0
O  O135  1  0.94061329  0.76913805  0.90598692  1  0  -0.672609  0  2.104379  0  0  -0.613595  0  2.34281  0  0  -0.637216  0  2.329442  0  -1.266071  0  -0.234217  -0.59723  0  2.351615  0
O  O136  1  0.38286325  0.23442429  0.24997907  1  0  -1.092841  0  1.995913  0  0  -1.030626  0  2.219192  0  0  -1.04962  0  2.189719  0  -1.41849  0  -0.45678  -1.016767  0  2.238319  0
O  O137  1  0.86716598  0.26561583  0.25003117  1  0  -1.094249  0  1.996325  0  0  -1.031551  0  2.219622  0  0  -1.050579  0  2.189636  0  -1.424064  0  -0.457041  -1.01765  0  2.238828  0
O  O138  1  0.61701916  0.24998918  0.26597475  1  0  -1.092208  0  2.004013  0  0  -1.028832  0  2.22855  0  0  -1.047864  0  2.198648  0  -1.410099  0  -0.456343  -1.014959  0  2.247757  0
O  O139  1  0.13299496  0.24997391  0.23399511  1  0  -1.09163  0  2.00215  0  0  -1.02805  0  2.226548  0  0  -1.047088  0  2.196711  0  -1.415652  0  -0.456354  -1.014168  0  2.245766  0
O  O140  1  0.61713549  0.76557607  0.75002317  1  0  -1.0928  0  1.996042  0  0  -1.030567  0  2.219296  0  0  -1.049564  0  2.189764  0  -1.418474  0  -0.456752  -1.0167  0  2.238437  0
O  O141  1  0.13283626  0.73438371  0.74996978  1  0  -1.094206  0  1.996336  0  0  -1.031487  0  2.219628  0  0  -1.050525  0  2.189622  0  -1.424078  0  -0.457045  -1.017587  0  2.238833  0
O  O142  1  0.38298287  0.75000785  0.73402554  1  0  -1.09223  0  2.003993  0  0  -1.02886  0  2.228517  0  0  -1.047894  0  2.198616  0  -1.410115  0  -0.456341  -1.014988  0  2.247726  0
O  O143  1  0.86700479  0.75002812  0.76600583  1  0  -1.091641  0  2.002125  0  0  -1.028073  0  2.22652  0  0  -1.047112  0  2.196715  0  -1.415598  0  -0.456359  -1.014189  0  2.245733  0
