# generated using pymatgen
data_Mg2H13C24O6F
_symmetry_space_group_name_H-M   'P 1'
_cell_length_a   6.84014698
_cell_length_b   37.58275214
_cell_length_c   37.57833938
_cell_angle_alpha   119.63373926
_cell_angle_beta   93.47519920
_cell_angle_gamma   93.46277226
_symmetry_Int_Tables_number   1
_chemical_formula_structural   Mg2H13C24O6F
_chemical_formula_sum   'Mg6 H39 C72 O18 F3'
_cell_volume   8335.75683560
_cell_formula_units_Z   3
loop_
 _symmetry_equiv_pos_site_id
 _symmetry_equiv_pos_as_xyz
  1  'x, y, z'
loop_
 _atom_site_type_symbol
 _atom_site_label
 _atom_site_symmetry_multiplicity
 _atom_site_fract_x
 _atom_site_fract_y
 _atom_site_fract_z
 _atom_site_occupancy
 _atom_site_pbe_bader_charge
 _atom_site_pbe_bader_spin_density
 _atom_site_pbe_cm5_charge
 _atom_site_pbe_ddec_charge
 _atom_site_pbe_ddec_spin_density
 _atom_site_pbe_ddec_sum_bond_order
 _atom_site_pbe_magmom
Mg  Mg0  1  0.15003782  0.69250853  0.32942575  1  1.68326  0  0.909862  1.41007  0  1.328285  0
Mg  Mg1  1  0.25422404  0.30548826  0.66704794  1  1.683279  0  0.909436  1.40913  0  1.328649  0
Mg  Mg2  1  0.45757153  0.63693063  0.30751766  1  1.682321  0  0.909706  1.41015  0  1.328582  0
Mg  Mg3  1  0.94877673  0.36151348  0.69449266  1  1.681611  0  0.909252  1.409639  0  1.328249  0
Mg  Mg4  1  0.82044341  0.67059321  0.36308889  1  1.683919  0  0.90996  1.409523  0  1.329405  0
Mg  Mg5  1  0.58715996  0.33297781  0.63847272  1  1.683547  0  0.909485  1.409566  0  1.328236  0
H  H6  1  0.35298286  0.49750342  0.98737787  1  0.043369  0  0.100501  0.100087  0  1.009774  0
H  H7  1  0.51608392  0.53447531  0.05817811  1  0.061888  0  0.097341  0.097857  0  1.013518  0
H  H8  1  0.05336932  0.48154391  0.01186997  1  0.093447  0  0.106654  0.127684  0  1.004394  0
H  H9  1  0.06494515  0.53053940  0.08245010  1  0.011795  0  0.096325  0.093735  0  1.012724  0
H  H10  1  0.66876589  0.55232674  0.11855362  1  0.025084  0  0.097704  0.095659  0  1.008764  0
H  H11  1  0.68435406  0.58140499  0.19131147  1  0.057703  0  0.103668  0.107215  0  1.017199  0
H  H12  1  0.40353999  0.61947687  0.20775177  1  0.073838  0  0.105242  0.121337  0  1.01033  0
H  H13  1  0.22851445  0.57764571  0.13798597  1  0.059884  0  0.101752  0.097038  0  1.003503  0
H  H14  1  0.33901098  0.44966904  0.91811893  1  0.06347  0  0.09744  0.095851  0  1.018484  0
H  H15  1  0.73232843  0.43069787  0.88022221  1  0.04246  0  0.094537  0.098536  0  1.029876  0
H  H16  1  0.71730063  0.40650250  0.80943799  1  0.082761  0  0.104605  0.108585  0  1.015468  0
H  H17  1  0.99733368  0.36860420  0.79003002  1  0.091151  0  0.105831  0.122214  0  1.010759  0
H  H18  1  0.16957773  0.40609824  0.86033749  1  0.071775  0  0.104605  0.104361  0  0.997383  0
H  H19  1  0.85533168  0.48992653  0.50245635  1  0.055748  0  0.1005  0.100351  0  1.010019  0
H  H20  1  0.98188645  0.52374768  0.46550557  1  0.045005  0  0.097163  0.09762  0  1.01392  0
H  H21  1  0.57174482  0.53026510  0.51845850  1  0.062119  0  0.106584  0.127772  0  1.004464  0
H  H22  1  0.53430341  0.55190358  0.46939103  1  0.026581  0  0.096262  0.093701  0  1.012349  0
H  H23  1  0.11607606  0.56620066  0.44772580  1  0.048379  0  0.097967  0.095659  0  1.008442  0
H  H24  1  0.10230664  0.60983772  0.41855360  1  0.078243  0  0.10359  0.106994  0  1.016694  0
H  H25  1  0.78361931  0.58822876  0.38049649  1  0.098547  0  0.105302  0.121553  0  1.00976  0
H  H26  1  0.65030293  0.56029392  0.42231824  1  0.059509  0  0.101826  0.096488  0  1.003978  0
H  H27  1  0.88917064  0.46842698  0.55032079  1  0.022866  0  0.097378  0.09581  0  1.01846  0
H  H28  1  0.30135973  0.44951952  0.56937020  1  0.069019  0  0.094541  0.098384  0  1.03017  0
H  H29  1  0.31059761  0.40300434  0.59355345  1  0.073966  0  0.104485  0.108081  0  1.015191  0
H  H30  1  0.62830052  0.42137570  0.63143939  1  0.085737  0  0.105601  0.12221  0  1.010319  0
H  H31  1  0.76292475  0.45421499  0.59394585  1  0.06194  0  0.104332  0.103557  0  0.997522  0
H  H32  1  0.36539243  0.01258083  0.51006646  1  0.046962  0  0.100452  0.100309  0  1.009742  0
H  H33  1  0.45821100  0.94183395  0.47626242  1  0.047113  0  0.09723  0.098057  0  1.013501  0
H  H34  1  0.04158341  0.98821956  0.46972381  1  0.062656  0  0.10631  0.127605  0  1.004859  0
H  H35  1  0.98232330  0.91745363  0.44807324  1  0.008879  0  0.096421  0.093663  0  1.012506  0
H  H36  1  0.54983424  0.88154745  0.43388295  1  0.037785  0  0.097853  0.095786  0  1.008326  0
H  H37  1  0.49247907  0.80871657  0.39018872  1  0.072236  0  0.10351  0.107078  0  1.017046  0
H  H38  1  0.19542942  0.79224313  0.41169343  1  0.090576  0  0.105412  0.121191  0  1.010387  0
H  H39  1  0.09004655  0.86197826  0.43964370  1  0.051089  0  0.10175  0.096334  0  1.003477  0
H  H40  1  0.42041065  0.08190251  0.53154366  1  0.047124  0  0.09721  0.09571  0  1.018075  0
H  H41  1  0.85154748  0.11978026  0.55045508  1  0.040093  0  0.094561  0.098363  0  1.030135  0
H  H42  1  0.90749285  0.19050684  0.59701378  1  0.097854  0  0.104496  0.108097  0  1.015474  0
H  H43  1  0.20707347  0.21011938  0.57859186  1  0.065991  0  0.105681  0.121828  0  1.011003  0
H  H44  1  0.30874858  0.13977578  0.54575980  1  0.083234  0  0.104625  0.104228  0  0.996628  0
C  C45  1  0.80511596  0.46628573  0.96782622  1  0.393491  0  0.095696  0.247488  0  4.021493  0
C  C46  1  0.60598145  0.46901523  0.95846986  1  0.037989  0  -0.021467  0.005453  0  4.058277  0
C  C47  1  0.50716980  0.49403278  0.99313222  1  -0.044711  0  -0.090484  -0.114838  0  4.004156  0
C  C48  1  0.59883308  0.51461964  0.03301301  1  -0.010664  0  -0.100332  -0.149701  0  4.002504  0
C  C49  1  0.79859976  0.51099534  0.04124176  1  0.032334  0  -0.014259  0.135397  0  4.068657  0
C  C50  1  0.89966363  0.48599342  0.00732313  1  -0.030962  0  -0.105537  -0.26992  0  3.991298  0
C  C51  1  0.90563225  0.53210023  0.08205325  1  -0.070486  0  -0.099575  -0.143449  0  4.018373  0
C  C52  1  0.82880644  0.55268476  0.11842849  1  -0.002856  0  -0.094813  -0.129587  0  4.016639  0
C  C53  1  0.94014257  0.57608102  0.15880963  1  0.003892  0  -0.025595  0.079399  0  4.085095  0
C  C54  1  0.84240633  0.58973688  0.19418807  1  -0.008872  0  -0.081656  -0.115945  0  3.951511  0
C  C55  1  0.93889818  0.61388563  0.23419331  1  -0.05197  0  -0.042765  -0.207339  0  3.975947  0
C  C56  1  0.14629129  0.62566363  0.23951260  1  0.594441  0  0.09707  0.370876  0  4.068333  0
C  C57  1  0.24533272  0.61080238  0.20360155  1  0.011519  0  -0.106287  -0.21559  0  3.985452  0
C  C58  1  0.14615318  0.58710468  0.16469594  1  -0.067534  0  -0.078321  -0.081859  0  3.969248  0
C  C59  1  0.81981717  0.62551203  0.26902745  1  1.513523  0  0.237817  0.678926  0  4.12024  0
C  C60  1  0.49850700  0.44867923  0.91780323  1  0.033814  0  -0.101654  -0.132077  0  4.030192  0
C  C61  1  0.57304856  0.43011084  0.88092564  1  -0.091064  0  -0.094575  -0.128345  0  4.010074  0
C  C62  1  0.45981795  0.40918101  0.84068292  1  0.039406  0  -0.025433  0.080719  0  4.078585  0
C  C63  1  0.55894130  0.39811120  0.80582129  1  -0.043778  0  -0.080381  -0.113215  0  3.949856  0
C  C64  1  0.46369545  0.37682984  0.76556454  1  -0.063247  0  -0.04316  -0.207747  0  3.979544  0
C  C65  1  0.25588583  0.36511455  0.75931560  1  0.57296  0  0.096855  0.3697  0  4.069583  0
C  C66  1  0.15573000  0.37720013  0.79482721  1  0.101935  0  -0.106109  -0.216355  0  3.983344  0
C  C67  1  0.25346067  0.39839551  0.83409473  1  -0.150446  0  -0.076382  -0.079746  0  3.956467  0
C  C68  1  0.58463904  0.36846632  0.73164011  1  1.504876  0  0.239419  0.680532  0  4.117762  0
C  C69  1  0.33861954  0.50145401  0.53363989  1  0.335176  0  0.096117  0.24767  0  4.021263  0
C  C70  1  0.13676155  0.48939138  0.53092125  1  0.104725  0  -0.021322  0.006097  0  4.055402  0
C  C71  1  0.01303002  0.49908603  0.50592622  1  -0.084454  0  -0.090698  -0.11541  0  4.002491  0
C  C72  1  0.08427452  0.51839293  0.48536023  1  -0.009624  0  -0.100717  -0.150248  0  4.00157  0
C  C73  1  0.28768145  0.53023083  0.48899293  1  0.021008  0  -0.014376  0.135532  0  4.067434  0
C  C74  1  0.41361563  0.52127419  0.51397519  1  0.037381  0  -0.105769  -0.270566  0  3.99173  0
C  C75  1  0.37345528  0.54995210  0.46788424  1  -0.005594  0  -0.09932  -0.142983  0  4.017714  0
C  C76  1  0.27575588  0.56571901  0.44731453  1  -0.071474  0  -0.09472  -0.129082  0  4.018152  0
C  C77  1  0.36347770  0.58265339  0.42386049  1  0.029001  0  -0.025914  0.078571  0  4.086188  0
C  C78  1  0.25202816  0.60435738  0.41019152  1  -0.023143  0  -0.081798  -0.115907  0  3.949746  0
C  C79  1  0.32445451  0.62020885  0.38603794  1  -0.050209  0  -0.042326  -0.206286  0  3.975528  0
C  C80  1  0.52017578  0.61378000  0.37428691  1  0.57803  0  0.097053  0.370059  0  4.069426  0
C  C81  1  0.63400790  0.59271985  0.38913968  1  -0.023039  0  -0.106429  -0.215935  0  3.984961  0
C  C82  1  0.55847367  0.57751516  0.41283515  1  -0.083753  0  -0.077927  -0.080416  0  3.969014  0
C  C83  1  0.19397031  0.64348333  0.37446540  1  1.516234  0  0.238326  0.678829  0  4.12117  0
C  C84  1  0.04963292  0.46908810  0.55129339  1  -0.041078  0  -0.101566  -0.132036  0  4.027469  0
C  C85  1  0.14265144  0.45082295  0.56991757  1  -0.010387  0  -0.094727  -0.128321  0  4.008324  0
C  C86  1  0.05030045  0.43153929  0.59087576  1  -0.010632  0  -0.025388  0.07982  0  4.077738  0
C  C87  1  0.16060053  0.40776937  0.60196008  1  0.016314  0  -0.080695  -0.11234  0  3.949447  0
C  C88  1  0.08675492  0.38877807  0.62323291  1  -0.042922  0  -0.042593  -0.208062  0  3.980962  0
C  C89  1  0.89060506  0.39420699  0.63493145  1  0.600229  0  0.097092  0.370405  0  4.069368  0
C  C90  1  0.77821777  0.41762269  0.62285799  1  0.025951  0  -0.106002  -0.216599  0  3.981697  0
C  C91  1  0.85469362  0.43570806  0.60166102  1  -0.112444  0  -0.076043  -0.078359  0  3.954932  0
C  C92  1  0.21615171  0.36320557  0.63155747  1  1.4801  0  0.2383  0.679591  0  4.120435  0
C  C93  1  0.83702542  0.03219503  0.49845836  1  0.403858  0  0.096074  0.247471  0  4.021938  0
C  C94  1  0.64720015  0.04154774  0.51053546  1  0.05572  0  -0.021738  0.005562  0  4.057076  0
C  C95  1  0.51387876  0.00687182  0.50087244  1  -0.064887  0  -0.090277  -0.114274  0  4.004087  0
C  C96  1  0.56591081  0.96701306  0.48159345  1  0.023574  0  -0.10098  -0.151623  0  4.004452  0
C  C97  1  0.75749035  0.95878836  0.46976144  1  -0.022371  0  -0.014181  0.136099  0  4.067307  0
C  C98  1  0.89235143  0.99271288  0.47868517  1  0.019481  0  -0.105162  -0.270001  0  3.991291  0
C  C99  1  0.82346433  0.91794051  0.45006437  1  -0.049997  0  -0.099412  -0.142442  0  4.017544  0
C  C100  1  0.71000683  0.88161429  0.43433060  1  -0.011915  0  -0.095127  -0.130005  0  4.017887  0
C  C101  1  0.78079833  0.84120738  0.41735634  1  0.050155  0  -0.025604  0.07789  0  4.086358  0
C  C102  1  0.64769051  0.80584147  0.39565600  1  0.027056  0  -0.081321  -0.115651  0  3.951  0
C  C103  1  0.70428442  0.76583770  0.37977684  1  -0.097869  0  -0.042536  -0.205789  0  3.975937  0
C  C104  1  0.90640928  0.76049762  0.38619496  1  0.564588  0  0.096413  0.368659  0  4.069653  0
C  C105  1  0.04130330  0.79639248  0.40721553  1  0.053062  0  -0.106663  -0.215603  0  3.983761  0
C  C106  1  0.98092931  0.83529455  0.42244198  1  -0.140497  0  -0.077933  -0.07978  0  3.967578  0
C  C107  1  0.55053109  0.73100806  0.35652674  1  1.517169  0  0.239152  0.679234  0  4.119534  0
C  C108  1  0.58025259  0.08221927  0.53086717  1  -0.065056  0  -0.101377  -0.13228  0  4.028751  0
C  C109  1  0.69158844  0.11908949  0.54916559  1  -0.002875  0  -0.09492  -0.128022  0  4.009966  0
C  C110  1  0.61869393  0.15934446  0.56846091  1  0.07096  0  -0.025505  0.079989  0  4.079232  0
C  C111  1  0.75278900  0.19417359  0.59224215  1  -0.064102  0  -0.080065  -0.111788  0  3.950298  0
C  C112  1  0.69799285  0.23444421  0.61122380  1  -0.055303  0  -0.043305  -0.209117  0  3.981229  0
C  C113  1  0.49644643  0.24073599  0.60577871  1  0.604839  0  0.097241  0.369969  0  4.070195  0
C  C114  1  0.36068278  0.20526826  0.58234606  1  -0.068991  0  -0.106119  -0.215563  0  3.983816  0
C  C115  1  0.41900221  0.16598308  0.56426885  1  -0.03541  0  -0.076243  -0.079443  0  3.956115  0
C  C116  1  0.85293584  0.26833968  0.63679484  1  1.503055  0  0.238563  0.679177  0  4.11925  0
O  O117  1  0.63994465  0.61126597  0.26324502  1  -1.242235  0  -0.355435  -0.643555  0  2.151669  0
O  O118  1  0.90251539  0.65090532  0.30582992  1  -1.303808  0  -0.402988  -0.76929  0  2.416271  0
O  O119  1  0.25030365  0.65000810  0.27620974  1  -1.311626  0  -0.445586  -0.774704  0  2.306573  0
O  O120  1  0.76495269  0.38282474  0.73878452  1  -1.241366  0  -0.356055  -0.644532  0  2.154877  0
O  O121  1  0.50326966  0.34595271  0.69417028  1  -1.296895  0  -0.405278  -0.771374  0  2.416128  0
O  O122  1  0.15273644  0.34348295  0.72211787  1  -1.308797  0  -0.442979  -0.772137  0  2.300755  0
O  O123  1  0.02833611  0.65196352  0.38872662  1  -1.241391  0  -0.355369  -0.642959  0  2.152161  0
O  O124  1  0.25155613  0.65493815  0.34911929  1  -1.298858  0  -0.403597  -0.769971  0  2.417113  0
O  O125  1  0.60006222  0.62619774  0.35000055  1  -1.303373  0  -0.446105  -0.774781  0  2.30658  0
O  O126  1  0.38211996  0.35602057  0.61718917  1  -1.237824  0  -0.355325  -0.643515  0  2.155549  0
O  O127  1  0.15739534  0.34820309  0.65404160  1  -1.294141  0  -0.405008  -0.77114  0  2.416905  0
O  O128  1  0.80911464  0.37859095  0.65652273  1  -1.30814  0  -0.443231  -0.772734  0  2.301468  0
O  O129  1  0.37648316  0.73679554  0.34802333  1  -1.243433  0  -0.356245  -0.643984  0  2.150785  0
O  O130  1  0.59652939  0.69420337  0.34509973  1  -1.299019  0  -0.403746  -0.769512  0  2.41547  0
O  O131  1  0.97382579  0.72379371  0.37379256  1  -1.307734  0  -0.445651  -0.773821  0  2.306772  0
O  O132  1  0.02612359  0.26116952  0.64398692  1  -1.240932  0  -0.355524  -0.643718  0  2.15417  0
O  O133  1  0.80909820  0.30581905  0.65178469  1  -1.292976  0  -0.404341  -0.769915  0  2.415886  0
O  O134  1  0.43058222  0.27794561  0.62140193  1  -1.307952  0  -0.443618  -0.772319  0  2.301472  0
F  F135  1  0.91483662  0.44251966  0.93664126  1  -0.644612  0  -0.105013  -0.156902  0  1.340218  0
F  F136  1  0.47192042  0.49398466  0.55738107  1  -0.641871  0  -0.104662  -0.156499  0  1.340463  0
F  F137  1  0.97773563  0.06339778  0.50589025  1  -0.642068  0  -0.1048  -0.156774  0  1.340311  0
