# generated using pymatgen
data_ErAgH6C12(NO2)4
_symmetry_space_group_name_H-M   'P 1'
_cell_length_a   8.03235170
_cell_length_b   10.03343473
_cell_length_c   18.39680000
_cell_angle_alpha   90.00000000
_cell_angle_beta   90.00000000
_cell_angle_gamma   95.40176106
_symmetry_Int_Tables_number   1
_chemical_formula_structural   ErAgH6C12(NO2)4
_chemical_formula_sum   'Er4 Ag4 H24 C48 N16 O32'
_cell_volume   1476.05203128
_cell_formula_units_Z   4
loop_
 _symmetry_equiv_pos_site_id
 _symmetry_equiv_pos_as_xyz
  1  'x, y, z'
loop_
 _atom_site_type_symbol
 _atom_site_label
 _atom_site_symmetry_multiplicity
 _atom_site_fract_x
 _atom_site_fract_y
 _atom_site_fract_z
 _atom_site_occupancy
 _atom_site_hle17_bader_spin_density
 _atom_site_hle17_ddec_charge
 _atom_site_hle17_ddec_spin_density
 _atom_site_hle17_ddec_sum_bond_order
 _atom_site_hle17_magmom
 _atom_site_hse06_10hf_bader_spin_density
 _atom_site_hse06_10hf_ddec_charge
 _atom_site_hse06_10hf_ddec_spin_density
 _atom_site_hse06_10hf_ddec_sum_bond_order
 _atom_site_hse06_10hf_magmom
 _atom_site_hse06_bader_spin_density
 _atom_site_hse06_ddec_charge
 _atom_site_hse06_ddec_spin_density
 _atom_site_hse06_ddec_sum_bond_order
 _atom_site_hse06_magmom
 _atom_site_pbe_bader_charge
 _atom_site_pbe_bader_spin_density
 _atom_site_pbe_cm5_charge
 _atom_site_pbe_ddec_charge
 _atom_site_pbe_ddec_spin_density
 _atom_site_pbe_ddec_sum_bond_order
 _atom_site_pbe_magmom
Er  Er0  1  0.24279226  0.36130188  0.10645221  1  0  2.162086  0  1.642765  0  0  1.985611  0  2.151685  0  0  2.040504  0  2.109425  0  2.168857  0  1.452423  1.944575  0  2.183728  0
Er  Er1  1  0.25720573  0.63870143  0.60645167  1  0  2.162128  0  1.642699  0  0  1.985661  0  2.151614  0  0  2.040542  0  2.109365  0  2.16884  0  1.452383  1.944616  0  2.183662  0
Er  Er2  1  0.75720601  0.63869943  0.89355051  1  0  2.162097  0  1.642825  0  0  1.985707  0  2.151629  0  0  2.040596  0  2.109373  0  2.16885  0  1.45241  1.944661  0  2.183683  0
Er  Er3  1  0.74279403  0.36130188  0.39354833  1  0  2.162088  0  1.642793  0  0  1.985629  0  2.151688  0  0  2.040507  0  2.109439  0  2.16885  0  1.452414  1.94459  0  2.183733  0
Ag  Ag4  1  0.89580724  0.85213083  0.07301976  1  0  0.615698  0  1.290121  0  0  0.480123  0  1.720168  0  0  0.510141  0  1.670741  0  0.658061  0  0.482969  0.460754  0  1.753819  0
Ag  Ag5  1  0.60420063  0.14787348  0.57301705  1  0  0.615768  0  1.290025  0  0  0.480163  0  1.720059  0  0  0.510186  0  1.670632  0  0.658053  0  0.48301  0.460796  0  1.753709  0
Ag  Ag6  1  0.10419851  0.14787048  0.92698404  1  0  0.615756  0  1.29003  0  0  0.480148  0  1.720079  0  0  0.510176  0  1.670647  0  0.65805  0  0.483008  0.46078  0  1.753731  0
Ag  Ag7  1  0.39579967  0.85212382  0.42698241  1  0  0.615755  0  1.290039  0  0  0.480173  0  1.72005  0  0  0.510196  0  1.670623  0  0.657992  0  0.482979  0.460802  0  1.753707  0
H  H8  1  0.38133479  0.55544182  0.38184739  1  0  0.090465  0  0.965962  0  0  0.096696  0  1.03402  0  0  0.09918  0  1.031451  0  0.137596  0  0.123891  0.094616  0  1.036443  0
H  H9  1  0.11866269  0.44454647  0.88184956  1  0  0.090453  0  0.966008  0  0  0.096762  0  1.033945  0  0  0.099246  0  1.031378  0  0.137623  0  0.123929  0.094683  0  1.036366  0
H  H10  1  0.61866344  0.44454847  0.61815098  1  0  0.090452  0  0.966026  0  0  0.096771  0  1.03396  0  0  0.099253  0  1.031396  0  0.137602  0  0.123911  0.094691  0  1.036382  0
H  H11  1  0.88133601  0.55544783  0.11815207  1  0  0.090437  0  0.966009  0  0  0.096751  0  1.03396  0  0  0.099234  0  1.031392  0  0.137623  0  0.123929  0.094671  0  1.036381  0
H  H12  1  0.23088787  0.86609937  0.25629729  1  0  0.09547  0  0.913725  0  0  0.104747  0  0.969921  0  0  0.107787  0  0.968342  0  0.089905  0  0.125103  0.102535  0  0.971204  0
H  H13  1  0.26912098  0.13390094  0.75629349  1  0  0.095386  0  0.913677  0  0  0.104652  0  0.969902  0  0  0.107692  0  0.968326  0  0.089834  0  0.125073  0.102441  0  0.971184  0
H  H14  1  0.76911320  0.13389393  0.74370434  1  0  0.095432  0  0.913696  0  0  0.104736  0  0.969869  0  0  0.107772  0  0.968294  0  0.089822  0  0.125105  0.102523  0  0.971152  0
H  H15  1  0.73089407  0.86610537  0.24370597  1  0  0.095318  0  0.913579  0  0  0.104629  0  0.969764  0  0  0.10767  0  0.968184  0  0.089849  0  0.125025  0.102418  0  0.971045  0
H  H16  1  0.19512426  0.70941308  0.14832634  1  0  0.114652  0  0.970673  0  0  0.115429  0  1.043256  0  0  0.12023  0  1.038492  0  0.180153  0  0.12262  0.111647  0  1.047142  0
H  H17  1  0.30487896  0.29059223  0.64832580  1  0  0.1147  0  0.970607  0  0  0.115447  0  1.04322  0  0  0.120258  0  1.038442  0  0.180125  0  0.122611  0.111666  0  1.047106  0
H  H18  1  0.80487729  0.29058422  0.85167420  1  0  0.11467  0  0.970582  0  0  0.115471  0  1.043158  0  0  0.120253  0  1.038426  0  0.180152  0  0.122633  0.111686  0  1.047053  0
H  H19  1  0.69511991  0.70941408  0.35167583  1  0  0.114769  0  0.970457  0  0  0.115525  0  1.043082  0  0  0.120325  0  1.038327  0  0.180206  0  0.122634  0.111741  0  1.046971  0
H  H20  1  0.48273356  0.85987745  0.08460819  1  0  0.113986  0  0.911268  0  0  0.121696  0  0.972533  0  0  0.124919  0  0.970417  0  0.177379  0  0.128524  0.11936  0  0.974083  0
H  H21  1  0.01727132  0.14012086  0.58460221  1  0  0.113976  0  0.911304  0  0  0.1217  0  0.972577  0  0  0.124925  0  0.970458  0  0.177514  0  0.12856  0.119364  0  0.974125  0
H  H22  1  0.51726685  0.14012086  0.91539833  1  0  0.113989  0  0.911361  0  0  0.121689  0  0.972642  0  0  0.124913  0  0.970524  0  0.177518  0  0.128562  0.119354  0  0.974189  0
H  H23  1  0.98272774  0.85987644  0.41538963  1  0  0.114033  0  0.911221  0  0  0.121716  0  0.972503  0  0  0.124942  0  0.970383  0  0.177356  0  0.128511  0.11938  0  0.974051  0
H  H24  1  0.88654268  0.15247960  0.08486639  1  0  0.116275  0  0.986642  0  0  0.117324  0  1.057392  0  0  0.121985  0  1.051991  0  0.217579  0  0.124574  0.113836  0  1.061492  0
H  H25  1  0.61345873  0.84752270  0.58486639  1  0  0.11631  0  0.986615  0  0  0.117348  0  1.057361  0  0  0.122009  0  1.051961  0  0.217595  0  0.124566  0.113862  0  1.061457  0
H  H26  1  0.11345797  0.84752070  0.91513687  1  0  0.116348  0  0.986545  0  0  0.117401  0  1.057295  0  0  0.122064  0  1.051894  0  0.21761  0  0.124574  0.113913  0  1.061396  0
H  H27  1  0.38654009  0.15247260  0.41512926  1  0  0.116263  0  0.98666  0  0  0.117303  0  1.057428  0  0  0.121965  0  1.052019  0  0.217563  0  0.124563  0.113816  0  1.061526  0
H  H28  1  0.68660765  0.33163788  0.09346897  1  0  0.095706  0  0.938613  0  0  0.103113  0  1.000649  0  0  0.104853  0  1.000708  0  0.123302  0  0.125889  0.101702  0  1.000926  0
H  H29  1  0.81339453  0.66836042  0.59346680  1  0  0.095708  0  0.938592  0  0  0.103116  0  1.000634  0  0  0.104853  0  1.000693  0  0.123316  0  0.12589  0.101705  0  1.00091  0
H  H30  1  0.31339389  0.66835942  0.90653374  1  0  0.09569  0  0.938553  0  0  0.103105  0  1.000587  0  0  0.104845  0  1.000643  0  0.123372  0  0.125887  0.101695  0  1.000862  0
H  H31  1  0.18660690  0.33163588  0.40652613  1  0  0.09575  0  0.938636  0  0  0.103137  0  1.000681  0  0  0.104875  0  1.000742  0  0.123337  0  0.12591  0.101726  0  1.000957  0
C  C32  1  0.40211061  0.37259944  0.27073730  1  0  0.689335  0  3.882868  0  0  0.640278  0  4.179998  0  0  0.676017  0  4.168411  0  1.633768  0  0.230688  0.616161  0  4.186781  0
C  C33  1  0.09788532  0.62739686  0.77074002  1  0  0.689469  0  3.882309  0  0  0.64044  0  4.179536  0  0  0.676178  0  4.167948  0  1.634  0  0.23073  0.616321  0  4.186323  0
C  C34  1  0.59788880  0.62740086  0.72926107  1  0  0.689194  0  3.883118  0  0  0.640159  0  4.180278  0  0  0.675893  0  4.168701  0  1.633671  0  0.230612  0.616038  0  4.187058  0
C  C35  1  0.90210490  0.37259944  0.22925998  1  0  0.689368  0  3.882641  0  0  0.640196  0  4.180002  0  0  0.675938  0  4.168417  0  1.633615  0  0.230637  0.616079  0  4.186783  0
C  C36  1  0.33682845  0.50871985  0.26891633  1  0  0.051784  0  3.720936  0  0  0.059514  0  3.961182  0  0  0.056498  0  3.978925  0  0.49411  0  0.123755  0.061158  0  3.94963  0
C  C37  1  0.16316885  0.49127745  0.76891959  1  0  0.051901  0  3.720809  0  0  0.059312  0  3.961531  0  0  0.056295  0  3.979273  0  0.494102  0  0.123634  0.060956  0  3.94998  0
C  C38  1  0.66317298  0.49127645  0.73108258  1  0  0.051884  0  3.720708  0  0  0.059499  0  3.961141  0  0  0.056485  0  3.978887  0  0.494313  0  0.12371  0.061143  0  3.94959  0
C  C39  1  0.83682523  0.50871985  0.23108149  1  0  0.051784  0  3.720868  0  0  0.059438  0  3.961299  0  0  0.056416  0  3.979045  0  0.494198  0  0.123682  0.061081  0  3.94975  0
C  C40  1  0.34343763  0.59193241  0.32952144  1  0  0.100022  0  3.661688  0  0  0.062959  0  3.917498  0  0  0.067855  0  3.932938  0  0.552625  0  0.062493  0.059556  0  3.907839  0
C  C41  1  0.15656215  0.40806489  0.82951981  1  0  0.099945  0  3.66187  0  0  0.062965  0  3.917717  0  0  0.067861  0  3.933158  0  0.552394  0  0.062502  0.059563  0  3.908058  0
C  C42  1  0.65656231  0.40806189  0.67047802  1  0  0.099925  0  3.661669  0  0  0.06285  0  3.917492  0  0  0.067745  0  3.932933  0  0.552456  0  0.062485  0.059447  0  3.907834  0
C  C43  1  0.84343737  0.59193641  0.17047965  1  0  0.1  0  3.661694  0  0  0.062917  0  3.917518  0  0  0.067817  0  3.932957  0  0.552427  0  0.062471  0.059516  0  3.907862  0
C  C44  1  0.25695141  0.76158411  0.26062794  1  0  0.079842  0  3.662862  0  0  0.050281  0  3.919527  0  0  0.053444  0  3.936318  0  0.495732  0  0.057338  0.047932  0  3.908743  0
C  C45  1  0.24305020  0.23841819  0.76062685  1  0  0.079826  0  3.663072  0  0  0.050303  0  3.919719  0  0  0.053446  0  3.936546  0  0.495706  0  0.057355  0.047953  0  3.908937  0
C  C46  1  0.74305025  0.23841419  0.73937370  1  0  0.079751  0  3.663015  0  0  0.050192  0  3.91968  0  0  0.05335  0  3.936478  0  0.495675  0  0.057289  0.047845  0  3.908898  0
C  C47  1  0.75695383  0.76157911  0.23937424  1  0  0.079893  0  3.662977  0  0  0.050325  0  3.919609  0  0  0.053462  0  3.936444  0  0.495491  0  0.057426  0.04798  0  3.90882  0
C  C48  1  0.23811098  0.67569758  0.20076209  1  0  0.090065  0  3.651768  0  0  0.063839  0  3.909227  0  0  0.065321  0  3.925486  0  0.509549  0  0.057702  0.062617  0  3.898952  0
C  C49  1  0.26189117  0.32429872  0.70076426  1  0  0.090031  0  3.651837  0  0  0.063834  0  3.909277  0  0  0.065313  0  3.925526  0  0.509541  0  0.057718  0.062607  0  3.899005  0
C  C50  1  0.76188796  0.32429872  0.79923682  1  0  0.090146  0  3.651728  0  0  0.063869  0  3.909237  0  0  0.065361  0  3.925497  0  0.509497  0  0.05775  0.062651  0  3.898946  0
C  C51  1  0.73810936  0.67570058  0.29923465  1  0  0.08997  0  3.651746  0  0  0.063745  0  3.909199  0  0  0.065226  0  3.925453  0  0.509562  0  0.05769  0.062519  0  3.898928  0
C  C52  1  0.23340459  0.03437423  0.09342712  1  0  0.632382  0  3.956587  0  0  0.577087  0  4.257781  0  0  0.612449  0  4.248973  0  1.582919  0  0.212307  0.553283  0  4.262795  0
C  C53  1  0.26659975  0.96563007  0.59342549  1  0  0.632413  0  3.956731  0  0  0.577189  0  4.257899  0  0  0.61255  0  4.249092  0  1.582944  0  0.212323  0.553385  0  4.262913  0
C  C54  1  0.76659665  0.96563108  0.90657669  1  0  0.632478  0  3.956518  0  0  0.577233  0  4.25767  0  0  0.612598  0  4.248858  0  1.582915  0  0.212349  0.553429  0  4.262686  0
C  C55  1  0.73340285  0.03437624  0.40656799  1  0  0.632362  0  3.956729  0  0  0.577114  0  4.257912  0  0  0.612483  0  4.249096  0  1.58333  0  0.212333  0.55331  0  4.262925  0
C  C56  1  0.42023947  0.06501732  0.09247369  1  0  0.052525  0  3.746525  0  0  0.064443  0  3.985109  0  0  0.059477  0  4.005462  0  0.545164  0  0.118806  0.06727  0  3.971685  0
C  C57  1  0.07976529  0.93497998  0.59246934  1  0  0.052573  0  3.746437  0  0  0.064359  0  3.985224  0  0  0.059392  0  4.00558  0  0.545081  0  0.118823  0.067188  0  3.971797  0
C  C58  1  0.57976332  0.93497998  0.90753392  1  0  0.052545  0  3.746472  0  0  0.064406  0  3.985124  0  0  0.059439  0  4.005478  0  0.54515  0  0.118802  0.067235  0  3.971699  0
C  C59  1  0.92023785  0.06502032  0.40752087  1  0  0.052648  0  3.746493  0  0  0.064435  0  3.985261  0  0  0.059465  0  4.005614  0  0.545081  0  0.11879  0.067264  0  3.971834  0
C  C60  1  0.52972378  0.96535977  0.08725648  1  0  0.07638  0  3.646908  0  0  0.036811  0  3.900764  0  0  0.041284  0  3.91919  0  0.46048  0  0.058407  0.034064  0  3.888293  0
C  C61  1  0.97027716  0.03463853  0.58725159  1  0  0.076378  0  3.64698  0  0  0.036764  0  3.900946  0  0  0.041242  0  3.919367  0  0.46025  0  0.058402  0.034016  0  3.888475  0
C  C62  1  0.47027539  0.03463853  0.91274950  1  0  0.07627  0  3.646985  0  0  0.036685  0  3.900874  0  0  0.041159  0  3.919298  0  0.460249  0  0.058343  0.033937  0  3.888405  0
C  C63  1  0.02972101  0.96536178  0.41273863  1  0  0.076236  0  3.646948  0  0  0.036735  0  3.900859  0  0  0.041209  0  3.919286  0  0.460497  0  0.058417  0.033989  0  3.888384  0
C  C64  1  0.75197693  0.12740972  0.08665040  1  0  0.106623  0  3.598525  0  0  0.077091  0  3.84757  0  0  0.083026  0  3.860793  0  0.459036  0  0.065373  0.072896  0  3.839225  0
C  C65  1  0.74802845  0.87259459  0.58664931  1  0  0.106452  0  3.598669  0  0  0.07695  0  3.847649  0  0  0.082885  0  3.860871  0  0.458612  0  0.065345  0.072757  0  3.8393  0
C  C66  1  0.24802781  0.87259359  0.91335232  1  0  0.106427  0  3.598554  0  0  0.076862  0  3.847619  0  0  0.082794  0  3.860843  0  0.458932  0  0.065307  0.072669  0  3.839273  0
C  C67  1  0.25197220  0.12740571  0.41334689  1  0  0.106612  0  3.598603  0  0  0.077078  0  3.847607  0  0  0.083015  0  3.860832  0  0.45855  0  0.065347  0.072884  0  3.83926  0
C  C68  1  0.64137974  0.22612952  0.09151320  1  0  0.126801  0  3.618798  0  0  0.101299  0  3.870143  0  0  0.103025  0  3.88637  0  0.537045  0  0.070873  0.099862  0  3.859401  0
C  C69  1  0.85862131  0.77386978  0.59150994  1  0  0.126785  0  3.61894  0  0  0.101275  0  3.870238  0  0  0.103001  0  3.886477  0  0.53695  0  0.070862  0.099836  0  3.859496  0
C  C70  1  0.35862080  0.77386978  0.90849169  1  0  0.126924  0  3.618841  0  0  0.101412  0  3.870215  0  0  0.103142  0  3.886438  0  0.536881  0  0.070919  0.099974  0  3.859473  0
C  C71  1  0.14138147  0.22612752  0.40848137  1  0  0.126718  0  3.619146  0  0  0.101291  0  3.87037  0  0  0.103018  0  3.886594  0  0.536978  0  0.070888  0.099848  0  3.859637  0
C  C72  1  0.95661087  0.43152899  0.98804575  1  0  0.542858  0  3.944193  0  0  0.498187  0  4.243273  0  0  0.528795  0  4.232771  0  1.558936  0  0.204052  0.477376  0  4.249663  0
C  C73  1  0.54339847  0.56847732  0.48804303  1  0  0.542914  0  3.944056  0  0  0.498283  0  4.24306  0  0  0.528888  0  4.232559  0  1.579318  0  0.20412  0.477466  0  4.249462  0
C  C74  1  0.04339298  0.56847732  0.01195915  1  0  0.542963  0  3.944008  0  0  0.498327  0  4.243047  0  0  0.528928  0  4.232548  0  1.579511  0  0.204158  0.477517  0  4.249436  0
C  C75  1  0.45661071  0.43153199  0.51195480  1  0  0.542753  0  3.944237  0  0  0.498112  0  4.243283  0  0  0.528719  0  4.232782  0  1.559103  0  0.204012  0.477302  0  4.249672  0
C  C76  1  0.54306407  0.53926082  0.03220288  1  0  0.564508  0  3.91861  0  0  0.524345  0  4.211857  0  0  0.55504  0  4.201319  0  1.573544  0  0.206788  0.503742  0  4.217831  0
C  C77  1  0.95693028  0.46073448  0.53219799  1  0  0.564741  0  3.918302  0  0  0.524471  0  4.211688  0  0  0.555182  0  4.201118  0  1.597042  0  0.206903  0.503871  0  4.217658  0
C  C78  1  0.45692864  0.46073548  0.96780201  1  0  0.564758  0  3.91816  0  0  0.52442  0  4.211632  0  0  0.555137  0  4.201061  0  1.597831  0  0.206892  0.503818  0  4.217604  0
C  C79  1  0.04306539  0.53926583  0.46779983  1  0  0.56467  0  3.918369  0  0  0.524408  0  4.211758  0  0  0.555116  0  4.201187  0  1.572104  0  0.206841  0.503806  0  4.217728  0
N  N80  1  0.27653999  0.54872034  0.20527918  1  0  -0.32676  0  3.231511  0  0  -0.278448  0  3.483089  0  0  -0.287324  0  3.501854  0  -1.202451  0  -0.330715  -0.27227  0  3.470632  0
N  N81  1  0.22345754  0.45127896  0.70528081  1  0  -0.326756  0  3.231281  0  0  -0.278345  0  3.482939  0  0  -0.287211  0  3.501696  0  -1.202337  0  -0.330638  -0.272161  0  3.470478  0
N  N82  1  0.72346268  0.45127596  0.79472082  1  0  -0.326775  0  3.231345  0  0  -0.27845  0  3.482995  0  0  -0.287314  0  3.501748  0  -1.202353  0  -0.330726  -0.272266  0  3.470536  0
N  N83  1  0.77653553  0.54872034  0.29471865  1  0  -0.326711  0  3.231332  0  0  -0.278354  0  3.482906  0  0  -0.287217  0  3.501662  0  -1.202323  0  -0.330666  -0.272172  0  3.470448  0
N  N84  1  0.30534733  0.71860331  0.32561532  1  0  -0.252973  0  3.235034  0  0  -0.193501  0  3.527253  0  0  -0.204821  0  3.538056  0  -1.20338  0  -0.309605  -0.186161  0  3.520444  0
N  N85  1  0.19465470  0.28139199  0.82561369  1  0  -0.252859  0  3.235069  0  0  -0.193423  0  3.527299  0  0  -0.204738  0  3.538099  0  -1.203173  0  -0.309599  -0.186086  0  3.520492  0
N  N86  1  0.69465226  0.28138799  0.67438631  1  0  -0.252877  0  3.235021  0  0  -0.193401  0  3.52725  0  0  -0.204717  0  3.538049  0  -1.203212  0  -0.309592  -0.186064  0  3.520441  0
N  N87  1  0.80534606  0.71860931  0.17438685  1  0  -0.252871  0  3.235029  0  0  -0.193414  0  3.527278  0  0  -0.204724  0  3.538072  0  -1.203137  0  -0.309617  -0.186077  0  3.520471  0
N  N88  1  0.47612776  0.19567865  0.09351083  1  0  -0.328695  0  3.239307  0  0  -0.28136  0  3.491511  0  0  -0.289777  0  3.510552  0  -1.22186  0  -0.326499  -0.2752  0  3.478479  0
N  N89  1  0.02387077  0.80431865  0.59350757  1  0  -0.328733  0  3.239509  0  0  -0.281352  0  3.491765  0  0  -0.289775  0  3.510814  0  -1.22176  0  -0.326552  -0.275194  0  3.478737  0
N  N90  1  0.52387129  0.80431865  0.90649515  1  0  -0.328787  0  3.239468  0  0  -0.281451  0  3.491714  0  0  -0.289869  0  3.510759  0  -1.221747  0  -0.326571  -0.275291  0  3.478686  0
N  N91  1  0.97612976  0.19568066  0.40648428  1  0  -0.328715  0  3.239646  0  0  -0.281374  0  3.491873  0  0  -0.289791  0  3.510919  0  -1.221772  0  -0.326501  -0.275217  0  3.478843  0
N  N92  1  0.69587316  0.99711109  0.08338461  1  0  -0.2711  0  3.27791  0  0  -0.200437  0  3.569762  0  0  -0.215934  0  3.584052  0  -1.178156  0  -0.316943  -0.190286  0  3.560168  0
N  N93  1  0.80413061  0.00289021  0.58338081  1  0  -0.270963  0  3.277955  0  0  -0.200232  0  3.569731  0  0  -0.215733  0  3.584031  0  -1.177649  0  -0.316926  -0.190082  0  3.560134  0
N  N94  1  0.30412625  0.00288921  0.91661974  1  0  -0.270931  0  3.277836  0  0  -0.200177  0  3.569613  0  0  -0.215678  0  3.583911  0  -1.178014  0  -0.316854  -0.190027  0  3.56002  0
N  N95  1  0.19586856  0.99710809  0.41661322  1  0  -0.271016  0  3.277972  0  0  -0.200364  0  3.569807  0  0  -0.215866  0  3.58411  0  -1.177533  0  -0.316927  -0.190212  0  3.560213  0
O  O96  1  0.35846260  0.29552872  0.21822002  1  0  -0.676404  0  1.999009  0  0  -0.630709  0  2.23932  0  0  -0.655365  0  2.22917  0  -1.16927  0  -0.367427  -0.613304  0  2.245478  0
O  O97  1  0.14152947  0.70446658  0.71822165  1  0  -0.676481  0  1.998731  0  0  -0.630751  0  2.239025  0  0  -0.655406  0  2.228875  0  -1.169442  0  -0.367414  -0.613342  0  2.245183  0
O  O98  1  0.64153361  0.70446558  0.78178270  1  0  -0.676295  0  1.999082  0  0  -0.630597  0  2.23935  0  0  -0.655252  0  2.229208  0  -1.169204  0  -0.367339  -0.613187  0  2.245508  0
O  O99  1  0.85846211  0.29553072  0.28178053  1  0  -0.676368  0  1.998949  0  0  -0.630623  0  2.239308  0  0  -0.655276  0  2.229158  0  -1.169207  0  -0.367374  -0.613214  0  2.245462  0
O  O100  1  0.49630835  0.34791999  0.32343995  1  0  -0.71833  0  2.048353  0  0  -0.667887  0  2.31256  0  0  -0.695814  0  2.303564  0  -1.197939  0  -0.375901  -0.647838  0  2.317806  0
O  O101  1  0.00368634  0.65207631  0.82344212  1  0  -0.718395  0  2.048125  0  0  -0.66796  0  2.312378  0  0  -0.69587  0  2.303351  0  -1.197979  0  -0.375923  -0.647909  0  2.317627  0
O  O102  1  0.50368993  0.65208131  0.67656060  1  0  -0.718328  0  2.048514  0  0  -0.667889  0  2.312737  0  0  -0.695809  0  2.303741  0  -1.197984  0  -0.375904  -0.647837  0  2.31798  0
O  O103  1  0.99630139  0.34791999  0.17655625  1  0  -0.718364  0  2.048181  0  0  -0.667891  0  2.31251  0  0  -0.695807  0  2.303487  0  -1.197973  0  -0.375898  -0.647836  0  2.31774  0
O  O104  1  0.17676804  0.91291644  0.09141318  1  0  -0.592091  0  2.055139  0  0  -0.530668  0  2.327914  0  0  -0.559017  0  2.315162  0  -1.137455  0  -0.310562  -0.510766  0  2.335921  0
O  O105  1  0.32323132  0.08708787  0.59141209  1  0  -0.592149  0  2.055351  0  0  -0.530727  0  2.32809  0  0  -0.559073  0  2.315337  0  -1.137429  0  -0.310594  -0.510823  0  2.336095  0
O  O106  1  0.82323262  0.08708386  0.90859117  1  0  -0.592144  0  2.05536  0  0  -0.530728  0  2.32811  0  0  -0.559071  0  2.315349  0  -1.137574  0  -0.310571  -0.510825  0  2.336117  0
O  O107  1  0.67676641  0.91291944  0.40858030  1  0  -0.592117  0  2.05524  0  0  -0.530676  0  2.327996  0  0  -0.559022  0  2.315236  0  -1.137819  0  -0.310542  -0.510771  0  2.335998  0
O  O108  1  0.14874923  0.13574499  0.09423161  1  0  -0.708977  0  2.103117  0  0  -0.653849  0  2.373656  0  0  -0.67919  0  2.358358  0  -1.179748  0  -0.380954  -0.635853  0  2.383335  0
O  O109  1  0.35125624  0.86425832  0.59423541  1  0  -0.708982  0  2.103045  0  0  -0.653883  0  2.37357  0  0  -0.679218  0  2.35827  0  -1.17981  0  -0.380939  -0.635885  0  2.38325  0
O  O110  1  0.85125130  0.86425431  0.90576785  1  0  -0.709043  0  2.102904  0  0  -0.653935  0  2.373422  0  0  -0.679277  0  2.358126  0  -1.179694  0  -0.380995  -0.635935  0  2.383102  0
O  O111  1  0.64874613  0.13574599  0.40576622  1  0  -0.709017  0  2.103253  0  0  -0.653912  0  2.373784  0  0  -0.67925  0  2.358482  0  -1.179802  0  -0.380996  -0.635913  0  2.383461  0
O  O112  1  0.01278866  0.32898994  0.01560815  1  0  -0.640725  0  2.14526  0  0  -0.577579  0  2.409147  0  0  -0.602981  0  2.399155  0  -1.160704  0  -0.338796  -0.559963  0  2.415412  0
O  O113  1  0.48721875  0.67101938  0.51560597  1  0  -0.640751  0  2.14503  0  0  -0.577628  0  2.408912  0  0  -0.603027  0  2.398924  0  -1.160705  0  -0.338801  -0.560009  0  2.415182  0
O  O114  1  0.98721091  0.67102238  0.98439566  1  0  -0.64078  0  2.144957  0  0  -0.577735  0  2.408982  0  0  -0.603142  0  2.398994  0  -1.16071  0  -0.338881  -0.560117  0  2.415246  0
O  O115  1  0.51278805  0.32899094  0.48439348  1  0  -0.640672  0  2.145261  0  0  -0.577568  0  2.409144  0  0  -0.602965  0  2.399151  0  -1.160644  0  -0.338798  -0.559949  0  2.415406  0
O  O116  1  0.49717743  0.50192229  0.09550955  1  0  -0.660127  0  2.072488  0  0  -0.618098  0  2.321198  0  0  -0.642814  0  2.315799  0  -1.177821  0  -0.370443  -0.600588  0  2.324311  0
O  O117  1  0.00281838  0.49807301  0.59550791  1  0  -0.660208  0  2.072124  0  0  -0.618168  0  2.320918  0  0  -0.642882  0  2.315497  0  -1.177606  0  -0.370502  -0.600652  0  2.324027  0
O  O118  1  0.50282061  0.49807701  0.90449154  1  0  -0.660222  0  2.072082  0  0  -0.618146  0  2.320847  0  0  -0.642871  0  2.315443  0  -1.177651  0  -0.370513  -0.60063  0  2.323957  0
O  O119  1  0.99717309  0.50192329  0.40449045  1  0  -0.660231  0  2.072217  0  0  -0.618187  0  2.320999  0  0  -0.642896  0  2.315561  0  -1.177649  0  -0.370469  -0.60067  0  2.324107  0
O  O120  1  0.83873777  0.43392366  0.94252261  1  0  -0.661656  0  2.11262  0  0  -0.615583  0  2.370213  0  0  -0.640254  0  2.36278  0  -1.174746  0  -0.361189  -0.598086  0  2.374703  0
O  O121  1  0.66127239  0.56608966  0.44251989  1  0  -0.661611  0  2.11255  0  0  -0.615544  0  2.370123  0  0  -0.640215  0  2.36269  0  -1.174867  0  -0.361204  -0.598049  0  2.37462  0
O  O122  1  0.16126666  0.56608766  0.05748011  1  0  -0.661579  0  2.112549  0  0  -0.615507  0  2.37014  0  0  -0.640171  0  2.362704  0  -1.174812  0  -0.361169  -0.598014  0  2.374631  0
O  O123  1  0.33874076  0.43392165  0.55747956  1  0  -0.661588  0  2.112534  0  0  -0.615506  0  2.370098  0  0  -0.640183  0  2.362672  0  -1.174751  0  -0.361154  -0.59801  0  2.374586  0
O  O124  1  0.65344387  0.63297806  0.01580601  1  0  -0.679748  0  2.122466  0  0  -0.632816  0  2.384922  0  0  -0.658619  0  2.377518  0  -1.174885  0  -0.365539  -0.614698  0  2.389063  0
O  O125  1  0.84655831  0.36702024  0.51580166  1  0  -0.679855  0  2.122488  0  0  -0.63289  0  2.385007  0  0  -0.658694  0  2.377584  0  -1.173652  0  -0.365602  -0.614777  0  2.38915  0
O  O126  1  0.34655476  0.36702624  0.98419780  1  0  -0.679852  0  2.122544  0  0  -0.632871  0  2.3851  0  0  -0.658679  0  2.377683  0  -1.174401  0  -0.365611  -0.614757  0  2.389243  0
O  O127  1  0.15343950  0.63297706  0.48419888  1  0  -0.679831  0  2.122565  0  0  -0.632868  0  2.385085  0  0  -0.658671  0  2.377668  0  -1.173563  0  -0.365589  -0.61475  0  2.389225  0
