# generated using pymatgen
data_Hg3H14C14I6(N2O)2
_symmetry_space_group_name_H-M   'P 1'
_cell_length_a   5.00973050
_cell_length_b   13.66798005
_cell_length_c   19.94146393
_cell_angle_alpha   90.00010353
_cell_angle_beta   93.23092448
_cell_angle_gamma   90.00004270
_symmetry_Int_Tables_number   1
_chemical_formula_structural   Hg3H14C14I6(N2O)2
_chemical_formula_sum   'Hg6 H28 C28 I12 N8 O4'
_cell_volume   1363.27939946
_cell_formula_units_Z   2
loop_
 _symmetry_equiv_pos_site_id
 _symmetry_equiv_pos_as_xyz
  1  'x, y, z'
loop_
 _atom_site_type_symbol
 _atom_site_label
 _atom_site_symmetry_multiplicity
 _atom_site_fract_x
 _atom_site_fract_y
 _atom_site_fract_z
 _atom_site_occupancy
 _atom_site_hle17_bader_spin_density
 _atom_site_hle17_ddec_charge
 _atom_site_hle17_ddec_spin_density
 _atom_site_hle17_ddec_sum_bond_order
 _atom_site_hle17_magmom
 _atom_site_hse06_10hf_bader_spin_density
 _atom_site_hse06_10hf_ddec_charge
 _atom_site_hse06_10hf_ddec_spin_density
 _atom_site_hse06_10hf_ddec_sum_bond_order
 _atom_site_hse06_10hf_magmom
 _atom_site_hse06_bader_spin_density
 _atom_site_hse06_ddec_charge
 _atom_site_hse06_ddec_spin_density
 _atom_site_hse06_ddec_sum_bond_order
 _atom_site_hse06_magmom
 _atom_site_pbe_bader_spin_density
 _atom_site_pbe_cm5_charge
 _atom_site_pbe_ddec_charge
 _atom_site_pbe_ddec_spin_density
 _atom_site_pbe_ddec_sum_bond_order
 _atom_site_pbe_magmom
Hg  Hg0  1  0.52093491  0.33462716  0.35013629  1  0  0.513473  0  2.182245  0  0  0.395859  0  2.670885  0  0  0.438013  0  2.648882  0  0  0.35603  0.36793  0  2.685335  0
Hg  Hg1  1  0.47906606  0.83462323  0.14986387  1  0  0.513489  0  2.182244  0  0  0.395875  0  2.670891  0  0  0.438029  0  2.648884  0  0  0.356023  0.367941  0  2.685355  0
Hg  Hg2  1  0.47906552  0.66537576  0.64986408  1  0  0.513512  0  2.182217  0  0  0.395907  0  2.670853  0  0  0.438063  0  2.648846  0  0  0.356028  0.367976  0  2.685312  0
Hg  Hg3  1  0.52093437  0.16537238  0.85013650  1  0  0.513455  0  2.182246  0  0  0.395843  0  2.670891  0  0  0.437997  0  2.648885  0  0  0.356031  0.367911  0  2.685347  0
Hg  Hg4  1  0.00000019  0.50000139  0.49999963  1  0  0.422917  0  2.209757  0  0  0.331926  0  2.684373  0  0  0.371616  0  2.662201  0  0  0.284981  0.30506  0  2.699841  0
Hg  Hg5  1  0.99999840  0.99999853  0.99999935  1  0  0.422937  0  2.209792  0  0  0.331944  0  2.684415  0  0  0.371635  0  2.66224  0  0  0.284997  0.305075  0  2.699891  0
H  H6  1  0.14278535  0.44107183  0.03965069  1  0  0.313765  0  0.923921  0  0  0.291063  0  0.995873  0  0  0.299943  0  0.988238  0  0  0.305287  0.284777  0  1.001267  0
H  H7  1  0.85721585  0.94107248  0.46034911  1  0  0.313801  0  0.923945  0  0  0.291088  0  0.9959  0  0  0.299968  0  0.988265  0  0  0.305302  0.284803  0  1.001292  0
H  H8  1  0.85721706  0.55892743  0.96034921  1  0  0.313818  0  0.923973  0  0  0.291109  0  0.995921  0  0  0.29999  0  0.988286  0  0  0.305303  0.284824  0  1.001314  0
H  H9  1  0.14278656  0.05892751  0.53965079  1  0  0.313809  0  0.923931  0  0  0.291114  0  0.995864  0  0  0.299994  0  0.988228  0  0  0.305328  0.284829  0  1.001257  0
H  H10  1  0.78021975  0.19076015  0.24408748  1  0  0.064308  0  0.979097  0  0  0.068871  0  1.054334  0  0  0.071892  0  1.050999  0  0  0.090724  0.066621  0  1.056808  0
H  H11  1  0.21977286  0.69075862  0.25591141  1  0  0.064345  0  0.979052  0  0  0.068884  0  1.054315  0  0  0.071904  0  1.050982  0  0  0.090727  0.066633  0  1.056792  0
H  H12  1  0.21977465  0.80924058  0.75591182  1  0  0.064328  0  0.979107  0  0  0.068877  0  1.054361  0  0  0.071902  0  1.051024  0  0  0.090733  0.066627  0  1.056834  0
H  H13  1  0.78022152  0.30923991  0.74408739  1  0  0.064301  0  0.979081  0  0  0.06885  0  1.054342  0  0  0.071872  0  1.051008  0  0  0.090723  0.066601  0  1.056816  0
H  H14  1  0.09780119  0.18427031  0.15186251  1  0  0.099241  0  0.982613  0  0  0.105804  0  1.054102  0  0  0.109185  0  1.052688  0  0  0.085585  0.103337  0  1.055355  0
H  H15  1  0.90219140  0.68426922  0.34813636  1  0  0.099223  0  0.982631  0  0  0.105757  0  1.054157  0  0  0.109139  0  1.052738  0  0  0.08556  0.103289  0  1.055411  0
H  H16  1  0.90219320  0.81573041  0.84813679  1  0  0.099233  0  0.982616  0  0  0.105764  0  1.054144  0  0  0.109144  0  1.052732  0  0  0.085567  0.103296  0  1.055397  0
H  H17  1  0.09780300  0.31573078  0.65186294  1  0  0.099209  0  0.982629  0  0  0.105775  0  1.054111  0  0  0.109156  0  1.052698  0  0  0.085568  0.103307  0  1.055366  0
H  H18  1  0.19423378  0.49719808  0.17297768  1  0  0.106816  0  0.975885  0  0  0.113363  0  1.045311  0  0  0.117365  0  1.043395  0  0  0.091599  0.110397  0  1.046984  0
H  H19  1  0.80576959  0.99719764  0.32702322  1  0  0.106789  0  0.975796  0  0  0.113307  0  1.045266  0  0  0.117319  0  1.043341  0  0  0.091586  0.11034  0  1.04694  0
H  H20  1  0.80576867  0.50280191  0.82702322  1  0  0.106831  0  0.975848  0  0  0.113355  0  1.045295  0  0  0.117367  0  1.04337  0  0  0.091606  0.110389  0  1.046969  0
H  H21  1  0.19423281  0.00280235  0.67297618  1  0  0.106767  0  0.975795  0  0  0.113289  0  1.045265  0  0  0.117301  0  1.043339  0  0  0.091577  0.110323  0  1.046937  0
H  H22  1  0.87332732  0.49074087  0.26445167  1  0  0.066881  0  0.972418  0  0  0.07237  0  1.046005  0  0  0.075187  0  1.043054  0  0  0.091257  0.07026  0  1.04828  0
H  H23  1  0.12667808  0.99073926  0.23555074  1  0  0.066792  0  0.972486  0  0  0.072296  0  1.046083  0  0  0.075113  0  1.043131  0  0  0.091197  0.070185  0  1.04836  0
H  H24  1  0.12667718  0.50925985  0.73555075  1  0  0.066798  0  0.972461  0  0  0.072303  0  1.046059  0  0  0.075119  0  1.043107  0  0  0.091217  0.070193  0  1.048335  0
H  H25  1  0.87332837  0.00926000  0.76445021  1  0  0.066827  0  0.972406  0  0  0.072312  0  1.046012  0  0  0.075129  0  1.04306  0  0  0.091229  0.070201  0  1.048286  0
H  H26  1  0.57712952  0.34362015  0.12324302  1  0  0.086759  0  0.940046  0  0  0.101445  0  1.003826  0  0  0.101605  0  1.005227  0  0  0.110651  0.1013  0  1.002863  0
H  H27  1  0.42287146  0.84362119  0.37675665  1  0  0.086775  0  0.940019  0  0  0.101451  0  1.003811  0  0  0.101609  0  1.005208  0  0  0.110653  0.101315  0  1.002866  0
H  H28  1  0.42287287  0.65637838  0.87675637  1  0  0.086757  0  0.94004  0  0  0.10143  0  1.003823  0  0  0.101586  0  1.005221  0  0  0.110652  0.10129  0  1.002868  0
H  H29  1  0.57712698  0.15638026  0.62324370  1  0  0.086793  0  0.94004  0  0  0.101479  0  1.003813  0  0  0.101637  0  1.005211  0  0  0.110662  0.101345  0  1.002847  0
H  H30  1  0.35850179  0.26739079  0.07444907  1  0  0.066056  0  0.949934  0  0  0.079107  0  1.021433  0  0  0.07996  0  1.019962  0  0  0.087936  0.078434  0  1.022599  0
H  H31  1  0.64149301  0.76739129  0.42555043  1  0  0.066027  0  0.950017  0  0  0.079097  0  1.021482  0  0  0.079948  0  1.020011  0  0  0.087945  0.078435  0  1.022654  0
H  H32  1  0.64149462  0.73260920  0.92555075  1  0  0.066073  0  0.949928  0  0  0.079106  0  1.021425  0  0  0.079956  0  1.019958  0  0  0.087935  0.078438  0  1.022595  0
H  H33  1  0.35850538  0.23261016  0.57444892  1  0  0.066122  0  0.949909  0  0  0.079177  0  1.021381  0  0  0.080028  0  1.019914  0  0  0.087973  0.07851  0  1.022552  0
C  C34  1  0.87878399  0.25678965  0.22705736  1  0  0.117836  0  3.756263  0  0  0.089545  0  4.004113  0  0  0.097411  0  4.0226  0  0  0.029348  0.084532  0  3.991487  0
C  C35  1  0.12121278  0.75678814  0.27294215  1  0  0.117871  0  3.756193  0  0  0.089605  0  4.004011  0  0  0.097473  0  4.022498  0  0  0.029406  0.084595  0  3.99139  0
C  C36  1  0.12121440  0.74321181  0.77294198  1  0  0.117888  0  3.756166  0  0  0.089614  0  4.003985  0  0  0.097478  0  4.022468  0  0  0.029394  0.084602  0  3.991361  0
C  C37  1  0.87878361  0.24321112  0.72705717  1  0  0.117892  0  3.756142  0  0  0.089602  0  4.004005  0  0  0.097468  0  4.022492  0  0  0.029378  0.084589  0  3.991382  0
C  C38  1  0.05516777  0.25388779  0.17569030  1  0  -0.16901  0  3.722937  0  0  -0.185295  0  3.96631  0  0  -0.193479  0  3.987088  0  0  -0.094061  -0.180065  0  3.952392  0
C  C39  1  0.94483104  0.75388665  0.32431024  1  0  -0.168994  0  3.722942  0  0  -0.185253  0  3.966322  0  0  -0.193435  0  3.987102  0  0  -0.094059  -0.18002  0  3.952399  0
C  C40  1  0.94483066  0.74611293  0.82431005  1  0  -0.168972  0  3.722916  0  0  -0.185226  0  3.966292  0  0  -0.193409  0  3.987071  0  0  -0.094038  -0.179995  0  3.952369  0
C  C41  1  0.05516738  0.24611335  0.67568961  1  0  -0.168953  0  3.72288  0  0  -0.185221  0  3.966263  0  0  -0.193404  0  3.98704  0  0  -0.094016  -0.17999  0  3.952343  0
C  C42  1  0.17515683  0.34036728  0.15516159  1  0  0.139829  0  3.683871  0  0  0.155628  0  3.920222  0  0  0.161083  0  3.940185  0  0  0.013868  0.152159  0  3.90658  0
C  C43  1  0.82484216  0.84036688  0.34483855  1  0  0.139822  0  3.68388  0  0  0.15557  0  3.920277  0  0  0.161024  0  3.940242  0  0  0.013855  0.152117  0  3.906647  0
C  C44  1  0.82484360  0.65963345  0.84483878  1  0  0.139808  0  3.683916  0  0  0.155555  0  3.920293  0  0  0.16101  0  3.940257  0  0  0.013815  0.152094  0  3.906654  0
C  C45  1  0.17515623  0.15963384  0.65516079  1  0  0.139788  0  3.68388  0  0  0.155533  0  3.920282  0  0  0.160988  0  3.940245  0  0  0.013813  0.152074  0  3.906647  0
C  C46  1  0.10905177  0.42739846  0.18744908  1  0  -0.151157  0  3.685306  0  0  -0.169165  0  3.930147  0  0  -0.17666  0  3.949879  0  0  -0.090888  -0.164368  0  3.917098  0
C  C47  1  0.89095144  0.92739727  0.31255172  1  0  -0.151144  0  3.685235  0  0  -0.169095  0  3.930084  0  0  -0.176597  0  3.949813  0  0  -0.090858  -0.164296  0  3.917033  0
C  C48  1  0.89095268  0.57260227  0.81255184  1  0  -0.151207  0  3.68531  0  0  -0.169165  0  3.930169  0  0  -0.176669  0  3.949895  0  0  -0.090874  -0.164368  0  3.917118  0
C  C49  1  0.10904894  0.07260273  0.68744714  1  0  -0.151073  0  3.685236  0  0  -0.169028  0  3.930061  0  0  -0.176529  0  3.949788  0  0  -0.090843  -0.164231  0  3.917008  0
C  C50  1  0.93062920  0.42445599  0.23831610  1  0  0.111347  0  3.740445  0  0  0.084417  0  3.990292  0  0  0.091506  0  4.009335  0  0  0.026075  0.079828  0  3.977376  0
C  C51  1  0.06937202  0.92445444  0.26168518  1  0  0.111449  0  3.740585  0  0  0.084472  0  3.990429  0  0  0.091562  0  4.009474  0  0  0.02609  0.079885  0  3.977519  0
C  C52  1  0.06937327  0.57554473  0.76168530  1  0  0.111502  0  3.740514  0  0  0.084532  0  3.990358  0  0  0.091622  0  4.009402  0  0  0.026113  0.079943  0  3.977447  0
C  C53  1  0.93062837  0.07554555  0.73831419  1  0  0.111373  0  3.74056  0  0  0.084437  0  3.990398  0  0  0.091527  0  4.009442  0  0  0.026081  0.07985  0  3.977483  0
C  C54  1  0.37163176  0.33821549  0.10087049  1  0  0.015278  0  3.659548  0  0  -0.043673  0  3.900753  0  0  -0.038848  0  3.91039  0  0  -0.056426  -0.046812  0  3.893944  0
C  C55  1  0.62836723  0.83821665  0.39912965  1  0  0.015219  0  3.659587  0  0  -0.043709  0  3.900777  0  0  -0.038878  0  3.910406  0  0  -0.05647  -0.046907  0  3.894049  0
C  C56  1  0.62836868  0.66178377  0.89912988  1  0  0.015205  0  3.65955  0  0  -0.043678  0  3.900712  0  0  -0.038847  0  3.910342  0  0  -0.056459  -0.046847  0  3.893944  0
C  C57  1  0.37163319  0.16178481  0.60087022  1  0  0.015047  0  3.659564  0  0  -0.043878  0  3.900761  0  0  -0.039049  0  3.910393  0  0  -0.056521  -0.047052  0  3.894006  0
C  C58  1  0.54032593  0.45798000  0.02401971  1  0  0.439708  0  3.894391  0  0  0.393488  0  4.187795  0  0  0.419166  0  4.186035  0  0  0.230664  0.376176  0  4.188441  0
C  C59  1  0.45967731  0.95798058  0.47598014  1  0  0.439688  0  3.894566  0  0  0.393536  0  4.187869  0  0  0.419201  0  4.186124  0  0  0.230653  0.376215  0  4.188524  0
C  C60  1  0.45967646  0.54201853  0.97597969  1  0  0.439913  0  3.894449  0  0  0.393733  0  4.187788  0  0  0.419406  0  4.186032  0  0  0.230708  0.376411  0  4.188447  0
C  C61  1  0.54032512  0.04202014  0.52402026  1  0  0.439913  0  3.894394  0  0  0.393698  0  4.187778  0  0  0.419378  0  4.186013  0  0  0.230767  0.376388  0  4.188423  0
I  I62  1  0.45207100  0.52864195  0.37422094  1  0  -0.314431  0  1.300455  0  0  -0.265495  0  1.676742  0  0  -0.286085  0  1.658031  0  0  -0.152189  -0.251278  0  1.689792  0
I  I63  1  0.54794134  0.02863651  0.12578099  1  0  -0.314438  0  1.300425  0  0  -0.265493  0  1.676696  0  0  -0.286083  0  1.657984  0  0  -0.152187  -0.251271  0  1.689752  0
I  I64  1  0.54793745  0.47136170  0.62578003  1  0  -0.314435  0  1.300428  0  0  -0.265497  0  1.676709  0  0  -0.286088  0  1.657999  0  0  -0.152189  -0.251278  0  1.689765  0
I  I65  1  0.45207114  0.97135836  0.87422104  1  0  -0.314412  0  1.300464  0  0  -0.265469  0  1.676746  0  0  -0.286059  0  1.658035  0  0  -0.152179  -0.25125  0  1.689799  0
I  I66  1  0.36532272  0.14701053  0.34808708  1  0  -0.29067  0  1.189913  0  0  -0.25223  0  1.535096  0  0  -0.270378  0  1.519131  0  0  -0.14563  -0.240192  0  1.546416  0
I  I67  1  0.63467783  0.64700884  0.15191284  1  0  -0.290654  0  1.189924  0  0  -0.252224  0  1.535134  0  0  -0.270373  0  1.519167  0  0  -0.145615  -0.240182  0  1.546458  0
I  I68  1  0.63467772  0.85299166  0.65191329  1  0  -0.290673  0  1.189919  0  0  -0.252223  0  1.535099  0  0  -0.270373  0  1.519132  0  0  -0.14562  -0.240183  0  1.546421  0
I  I69  1  0.36532259  0.35298896  0.84808703  1  0  -0.290664  0  1.189911  0  0  -0.25222  0  1.53509  0  0  -0.270368  0  1.519126  0  0  -0.145628  -0.24018  0  1.546411  0
I  I70  1  0.92598951  0.30915105  0.47981646  1  0  -0.197098  0  1.451356  0  0  -0.153258  0  1.841989  0  0  -0.172167  0  1.824269  0  0  -0.085032  -0.141008  0  1.854676  0
I  I71  1  0.07401142  0.80914959  0.02018417  1  0  -0.197106  0  1.4514  0  0  -0.153266  0  1.842038  0  0  -0.172176  0  1.824317  0  0  -0.085024  -0.141014  0  1.85473  0
I  I72  1  0.07401092  0.69085187  0.52018391  1  0  -0.19709  0  1.451355  0  0  -0.153271  0  1.842011  0  0  -0.172182  0  1.824289  0  0  -0.085019  -0.141021  0  1.854701  0
I  I73  1  0.92598901  0.19084820  0.97981620  1  0  -0.197092  0  1.451371  0  0  -0.153262  0  1.842028  0  0  -0.172171  0  1.824305  0  0  -0.085032  -0.141009  0  1.854718  0
N  N74  1  0.81756427  0.34058919  0.25776028  1  0  -0.298551  0  3.292147  0  0  -0.219961  0  3.553373  0  0  -0.241737  0  3.577062  0  0  -0.323913  -0.20523  0  3.536806  0
N  N75  1  0.18243272  0.84058834  0.24223984  1  0  -0.298624  0  3.292254  0  0  -0.220021  0  3.553465  0  0  -0.241798  0  3.577154  0  0  -0.323924  -0.205283  0  3.536882  0
N  N76  1  0.18243414  0.65941081  0.74223956  1  0  -0.298678  0  3.292254  0  0  -0.220092  0  3.553508  0  0  -0.24187  0  3.577196  0  0  -0.323946  -0.205355  0  3.536927  0
N  N77  1  0.81756368  0.15941165  0.75775949  1  0  -0.29856  0  3.292196  0  0  -0.219978  0  3.553433  0  0  -0.241755  0  3.577122  0  0  -0.323918  -0.205245  0  3.536864  0
N  N78  1  0.33360666  0.41830406  0.05378257  1  0  -0.396217  0  3.35711  0  0  -0.33529  0  3.598567  0  0  -0.35709  0  3.608509  0  0  -0.411689  -0.32026  0  3.591373  0
N  N79  1  0.66639449  0.91830536  0.44621720  1  0  -0.3962  0  3.357108  0  0  -0.335263  0  3.598499  0  0  -0.357059  0  3.608447  0  0  -0.411684  -0.320214  0  3.591326  0
N  N80  1  0.66639376  0.58169447  0.94621731  1  0  -0.396343  0  3.357228  0  0  -0.335414  0  3.598632  0  0  -0.357212  0  3.608573  0  0  -0.411738  -0.320374  0  3.591452  0
N  N81  1  0.33360790  0.08169537  0.55378219  1  0  -0.396274  0  3.357168  0  0  -0.335358  0  3.598625  0  0  -0.357156  0  3.60856  0  0  -0.411806  -0.320321  0  3.591443  0
O  O82  1  0.77702078  0.43121530  0.03365648  1  0  -0.535644  0  2.018195  0  0  -0.492573  0  2.250978  0  0  -0.511698  0  2.244607  0  0  -0.301687  -0.479088  0  2.255041  0
O  O83  1  0.22298043  0.93121652  0.46634431  1  0  -0.535638  0  2.018268  0  0  -0.492601  0  2.251029  0  0  -0.511723  0  2.244663  0  0  -0.301659  -0.479112  0  2.255097  0
O  O84  1  0.22297967  0.56878323  0.96634440  1  0  -0.535704  0  2.018197  0  0  -0.492662  0  2.250978  0  0  -0.511787  0  2.244608  0  0  -0.301683  -0.479174  0  2.255046  0
O  O85  1  0.77702200  0.06878420  0.53365609  1  0  -0.535695  0  2.018126  0  0  -0.492658  0  2.250941  0  0  -0.511782  0  2.244566  0  0  -0.301695  -0.479173  0  2.255003  0
