# generated using pymatgen
data_Al2H11C24Cl(O5F)2
_symmetry_space_group_name_H-M   'P 1'
_cell_length_a   6.67739226
_cell_length_b   11.13621939
_cell_length_c   17.79491597
_cell_angle_alpha   84.61139297
_cell_angle_beta   79.01708533
_cell_angle_gamma   72.61003732
_symmetry_Int_Tables_number   1
_chemical_formula_structural   Al2H11C24Cl(O5F)2
_chemical_formula_sum   'Al2 H11 C24 Cl1 O10 F2'
_cell_volume   1238.66965204
_cell_formula_units_Z   1
loop_
 _symmetry_equiv_pos_site_id
 _symmetry_equiv_pos_as_xyz
  1  'x, y, z'
loop_
 _atom_site_type_symbol
 _atom_site_label
 _atom_site_symmetry_multiplicity
 _atom_site_fract_x
 _atom_site_fract_y
 _atom_site_fract_z
 _atom_site_occupancy
 _atom_site_pbe_bader_charge
 _atom_site_pbe_bader_spin_density
 _atom_site_pbe_cm5_charge
 _atom_site_pbe_ddec_charge
 _atom_site_pbe_ddec_spin_density
 _atom_site_pbe_ddec_sum_bond_order
 _atom_site_pbe_magmom
Al  Al0  1  0.50410644  0.49257663  0.49800094  1  2.503004  0  0.398843  1.641773  0  2.579146  0
Al  Al1  1  0.00645863  0.48823342  0.49729228  1  2.505276  0  0.397066  1.645707  0  2.575386  0
H  H2  1  0.19627717  0.63963007  0.45585021  1  0.621572  0  0.345984  0.422454  0  0.871105  0
H  H3  1  0.75177884  0.40518431  0.58614061  1  0.601748  0  0.35313  0.430955  0  0.85185  0
H  H4  1  0.16908535  0.11035048  0.45588873  1  0.107742  0  0.114839  0.123603  0  0.981715  0
H  H5  1  0.73008057  0.11122521  0.54066977  1  0.120515  0  0.114238  0.131622  0  0.991895  0
H  H6  1  0.29215923  0.87422126  0.45901528  1  0.099191  0  0.10397  0.105371  0  1.019611  0
H  H7  1  0.54165734  0.52013386  0.26930884  1  0.112743  0  0.112183  0.121628  0  0.997473  0
H  H8  1  0.60121818  0.53450053  0.12554050  1  0.099216  0  0.107312  0.117328  0  1.006056  0
H  H9  1  0.21591613  0.43817112  0.26474143  1  0.147702  0  0.120885  0.149757  0  0.984658  0
H  H10  1  0.78581322  0.55650308  0.73015455  1  0.105339  0  0.115981  0.142685  0  0.993889  0
H  H11  1  0.45518617  0.48939312  0.72973671  1  0.082733  0  0.106932  0.111744  0  1.008703  0
H  H12  1  0.38525282  0.49505896  0.87284186  1  0.127445  0  0.107354  0.118449  0  1.011579  0
C  C13  1  0.83551282  0.47905196  0.36057073  1  1.540134  0  0.269632  0.638237  0  4.096024  0
C  C14  1  0.63844195  0.71908586  0.50036223  1  1.550524  0  0.267521  0.658085  0  4.08409  0
C  C15  1  0.17260783  0.50559854  0.63672150  1  1.571308  0  0.26432  0.63737  0  4.10094  0
C  C16  1  0.37575933  0.26463222  0.49533549  1  1.578451  0  0.274031  0.644931  0  4.094527  0
C  C17  1  0.57559152  0.85948982  0.50293969  1  0.034127  0  -0.013087  -0.095395  0  3.923456  0
C  C18  1  0.44504940  0.12414449  0.49670097  1  0.018767  0  -0.00416  -0.009664  0  3.973465  0
C  C19  1  0.69711614  0.92752603  0.52758615  1  0.024726  0  0.0238  0.135804  0  4.015984  0
C  C20  1  0.31828519  0.05826787  0.47472017  1  -0.100541  0  -0.080658  -0.100225  0  3.970042  0
C  C21  1  0.63447489  0.05883629  0.52268647  1  0.013956  0  -0.085394  -0.168295  0  3.954594  0
C  C22  1  0.38607327  0.92759214  0.47696960  1  0.064095  0  -0.080794  -0.079578  0  3.995045  0
C  C23  1  0.87379615  0.47947555  0.27529988  1  0.051249  0  -0.00979  -0.01578  0  3.985409  0
C  C24  1  0.70123263  0.50523385  0.23601663  1  0.016752  0  -0.084841  -0.109051  0  3.988696  0
C  C25  1  0.73408416  0.51378092  0.15656951  1  -0.029775  0  -0.073991  -0.097415  0  3.939084  0
C  C26  1  0.94148819  0.49624176  0.11387222  1  0.099322  0  -0.002115  0.03581  0  4.11989  0
C  C27  1  0.11143854  0.46696861  0.15527842  1  0.352651  0  0.106938  0.248317  0  4.023375  0
C  C28  1  0.08173266  0.45890309  0.23438208  1  0.080141  0  -0.088727  -0.221096  0  3.978836  0
C  C29  1  0.97771309  0.50871796  0.03323867  1  -0.188899  0  -0.033944  -0.073028  0  4.112424  0
C  C30  1  0.00669872  0.52058191  0.96347579  1  -0.155711  0  -0.035472  -0.078346  0  4.11312  0
C  C31  1  0.04694229  0.52653561  0.88273429  1  0.113519  0  -0.00049  0.039868  0  4.118181  0
C  C32  1  0.88143848  0.54675888  0.84006221  1  0.452547  0  0.107412  0.247944  0  4.020859  0
C  C33  1  0.91724168  0.54258003  0.76111878  1  0.02786  0  -0.090364  -0.220418  0  3.98519  0
C  C34  1  0.12686587  0.51933950  0.72135218  1  -0.00343  0  -0.012771  -0.018099  0  3.981349  0
C  C35  1  0.29422278  0.50498345  0.76180713  1  -0.037545  0  -0.08638  -0.104976  0  3.993219  0
C  C36  1  0.25571446  0.50795035  0.84109018  1  0.043233  0  -0.075373  -0.098495  0  3.936487  0
Cl  Cl37  1  0.92074313  0.85514604  0.56864168  1  -0.190871  0  0.017279  -0.055078  0  1.549914  0
O  O38  1  0.64356599  0.49646902  0.39448503  1  -1.261334  0  -0.232505  -0.587077  0  2.355774  0
O  O39  1  0.83649471  0.66148528  0.48931601  1  -1.261883  0  -0.237861  -0.609331  0  2.402154  0
O  O40  1  0.01721160  0.50778538  0.60397763  1  -1.263933  0  -0.242182  -0.606285  0  2.349055  0
O  O41  1  0.51951918  0.31983082  0.48984459  1  -1.246967  0  -0.230358  -0.577323  0  2.336521  0
O  O42  1  0.36564777  0.48965384  0.60386132  1  -1.265909  0  -0.241293  -0.6066  0  2.352438  0
O  O43  1  0.17661367  0.31784868  0.50126692  1  -1.25605  0  -0.230356  -0.585201  0  2.349677  0
O  O44  1  0.99544250  0.46480527  0.39323148  1  -1.256231  0  -0.232968  -0.577504  0  2.330508  0
O  O45  1  0.48803202  0.66830225  0.50652813  1  -1.25018  0  -0.237549  -0.594929  0  2.33282  0
O  O46  1  0.24189461  0.54896614  0.46494430  1  -1.42742  0  -0.448378  -0.985968  0  2.181419  0
O  O47  1  0.76273671  0.43788038  0.53360772  1  -1.407428  0  -0.448036  -0.988264  0  2.196802  0
F  F48  1  0.31274478  0.44740899  0.11499872  1  -0.632616  0  -0.095795  -0.144331  0  1.349604  0
F  F49  1  0.67836024  0.56891473  0.87904434  1  -0.630866  0  -0.094018  -0.141691  0  1.354983  0
