# generated using pymatgen
data_Zn4C38N8O29F8
_symmetry_space_group_name_H-M   'P 1'
_cell_length_a   18.45269300
_cell_length_b   18.45246357
_cell_length_c   19.01328720
_cell_angle_alpha   119.03390016
_cell_angle_beta   119.03605261
_cell_angle_gamma   90.00850111
_symmetry_Int_Tables_number   1
_chemical_formula_structural   Zn4C38N8O29F8
_chemical_formula_sum   'Zn8 C76 N16 O58 F16'
_cell_volume   4707.84995175
_cell_formula_units_Z   2
loop_
 _symmetry_equiv_pos_site_id
 _symmetry_equiv_pos_as_xyz
  1  'x, y, z'
loop_
 _atom_site_type_symbol
 _atom_site_label
 _atom_site_symmetry_multiplicity
 _atom_site_fract_x
 _atom_site_fract_y
 _atom_site_fract_z
 _atom_site_occupancy
 _atom_site_pbe_bader_charge
 _atom_site_pbe_bader_spin_density
 _atom_site_pbe_cm5_charge
 _atom_site_pbe_ddec_charge
 _atom_site_pbe_ddec_spin_density
 _atom_site_pbe_ddec_sum_bond_order
 _atom_site_pbe_magmom
Zn  Zn0  1  0.87770080  0.28430992  0.58328917  1  1.321897  0  0.685127  0.980724  0  2.306956  0
Zn  Zn1  1  0.12227479  0.70101135  0.41666547  1  1.322838  0  0.685287  0.981075  0  2.306589  0
Zn  Zn2  1  0.29897403  0.87774650  0.58331404  1  1.323024  0  0.685257  0.981016  0  2.306367  0
Zn  Zn3  1  0.71569232  0.12231562  0.41669102  1  1.322126  0  0.685123  0.980722  0  2.306806  0
Zn  Zn4  1  0.70565589  0.29905840  0.58335258  1  1.32129  0  0.685326  0.981434  0  2.305126  0
Zn  Zn5  1  0.29432870  0.71568067  0.41663394  1  1.320205  0  0.685334  0.981355  0  2.306248  0
Zn  Zn6  1  0.28433176  0.70569877  0.58335113  1  1.320422  0  0.685301  0.981232  0  2.306503  0
Zn  Zn7  1  0.70096488  0.29437839  0.41664738  1  1.320624  0  0.685272  0.981256  0  2.304866  0
C  C8  1  0.93160430  0.43161522  0.86292103  1  -0.235932  0  0.003822  -0.119677  0  3.836931  0
C  C9  1  0.06846131  0.56837381  0.13703392  1  -0.234713  0  0.00406  -0.119329  0  3.836903  0
C  C10  1  0.43161181  0.93155305  0.86294824  1  -0.235086  0  0.00374  -0.119794  0  3.836695  0
C  C11  1  0.56833051  0.06841868  0.13706428  1  -0.235609  0  0.003783  -0.119438  0  3.83723  0
C  C12  1  0.97575204  0.47571968  0.95129744  1  0.37533  0  0.008481  0.047143  0  4.199454  0
C  C13  1  0.02431027  0.52424346  0.04863886  1  0.081909  0  0.008073  0.046074  0  4.199508  0
C  C14  1  0.47573248  0.97572739  0.95134549  1  0.082456  0  0.008307  0.046488  0  4.199267  0
C  C15  1  0.52423932  0.02429031  0.04868617  1  0.374732  0  0.008492  0.046846  0  4.199866  0
C  C16  1  0.62031698  0.12035559  0.24073537  1  1.630398  0  0.238328  0.665507  0  4.245557  0
C  C17  1  0.37968284  0.87970154  0.75929006  1  1.632667  0  0.238716  0.666956  0  4.243334  0
C  C18  1  0.12030285  0.62030228  0.24069138  1  1.632933  0  0.23868  0.666722  0  4.24306  0
C  C19  1  0.87966664  0.37967440  0.75924931  1  1.62964  0  0.238598  0.666066  0  4.244922  0
C  C20  1  0.88343894  0.38337733  0.50002834  1  1.608596  0  0.234674  0.619973  0  4.147547  0
C  C21  1  0.10727471  0.60728797  0.50001012  1  1.617686  0  0.228394  0.606021  0  4.18905  0
C  C22  1  0.11657057  0.88340603  0.50000815  1  1.618814  0  0.234876  0.618688  0  4.150181  0
C  C23  1  0.89272185  0.10725240  0.50000984  1  1.611566  0  0.228719  0.606351  0  4.184618  0
C  C24  1  0.61665181  0.11658623  0.49997926  1  1.608783  0  0.234587  0.619952  0  4.148181  0
C  C25  1  0.39274546  0.89276824  0.50001313  1  1.617761  0  0.22818  0.605904  0  4.188841  0
C  C26  1  0.38334701  0.61663791  0.49998400  1  1.619675  0  0.235024  0.62011  0  4.148454  0
C  C27  1  0.60722808  0.39275343  0.50000020  1  1.594365  0  0.227987  0.605003  0  4.190618  0
C  C28  1  0.82909913  0.91528091  0.41813855  1  0.336967  0  0.085315  -0.049668  0  3.856066  0
C  C29  1  0.18029906  0.07843414  0.65644143  1  0.309381  0  0.089497  -0.036551  0  3.865596  0
C  C30  1  0.50256394  0.82911907  0.41790163  1  0.308204  0  0.085713  -0.050573  0  3.858378  0
C  C31  1  0.57824337  0.18032554  0.65648667  1  0.333065  0  0.089948  -0.035651  0  3.867224  0
C  C32  1  0.58891760  0.50273795  0.41810541  1  0.347275  0  0.085022  -0.051418  0  3.85773  0
C  C33  1  0.47601461  0.57800564  0.65636708  1  0.309852  0  0.089636  -0.036757  0  3.866597  0
C  C34  1  0.91541539  0.58911299  0.41832321  1  0.382504  0  0.08502  -0.051093  0  3.856528  0
C  C35  1  0.07847640  0.47593844  0.65633075  1  0.349337  0  0.089157  -0.036535  0  3.866828  0
C  C36  1  0.41125693  0.08475813  0.58213492  1  0.348835  0  0.084999  -0.051386  0  3.857911  0
C  C37  1  0.52380629  0.92164796  0.34348450  1  0.341693  0  0.090152  -0.035475  0  3.865708  0
C  C38  1  0.08467329  0.17084545  0.58188208  1  0.336039  0  0.085558  -0.049155  0  3.856394  0
C  C39  1  0.92152780  0.81963494  0.34361612  1  0.310804  0  0.089783  -0.035853  0  3.865707  0
C  C40  1  0.17087331  0.49723703  0.58179913  1  0.290533  0  0.085331  -0.050472  0  3.858497  0
C  C41  1  0.81964768  0.42211453  0.34376227  1  0.365682  0  0.089699  -0.036098  0  3.866634  0
C  C42  1  0.49726596  0.41109699  0.58193501  1  0.346597  0  0.084982  -0.051389  0  3.857957  0
C  C43  1  0.42198699  0.52392167  0.34360437  1  0.308281  0  0.089656  -0.037308  0  3.867424  0
C  C44  1  0.78988512  0.82867758  0.34300679  1  0.619227  0  0.127866  0.18104  0  4.01862  0
C  C45  1  0.21636806  0.16578952  0.70066844  1  0.634409  0  0.12435  0.17104  0  4.031514  0
C  C46  1  0.51398941  0.78994010  0.34277027  1  0.647805  0  0.12806  0.181459  0  4.019599  0
C  C47  1  0.53519685  0.21641797  0.70079610  1  0.603389  0  0.123845  0.169951  0  4.031759  0
C  C48  1  0.55297447  0.51405233  0.34289715  1  0.629802  0  0.128408  0.181746  0  4.020803  0
C  C49  1  0.48425933  0.53489806  0.70062358  1  0.58821  0  0.124112  0.171778  0  4.031264  0
C  C50  1  0.82879664  0.55321045  0.34322437  1  0.606  0  0.128096  0.181687  0  4.018545  0
C  C51  1  0.16580552  0.48400439  0.70041047  1  0.614319  0  0.124264  0.171645  0  4.030452  0
C  C52  1  0.44729874  0.17134303  0.65731598  1  0.631932  0  0.128506  0.182479  0  4.020493  0
C  C53  1  0.51563548  0.83429930  0.29926688  1  0.634147  0  0.124114  0.171145  0  4.028869  0
C  C54  1  0.17125762  0.21008031  0.65705379  1  0.621542  0  0.128139  0.181  0  4.018799  0
C  C55  1  0.83417676  0.78355527  0.29941862  1  0.634438  0  0.123892  0.170091  0  4.032968  0
C  C56  1  0.21009646  0.48571584  0.65686763  1  0.677864  0  0.128297  0.181485  0  4.019479  0
C  C57  1  0.78360890  0.46533207  0.29965370  1  0.595007  0  0.123706  0.170357  0  4.032155  0
C  C58  1  0.48590645  0.44703194  0.65710819  1  0.629578  0  0.128194  0.181621  0  4.021247  0
C  C59  1  0.46508200  0.51563553  0.29933218  1  0.590538  0  0.12432  0.172275  0  4.031248  0
C  C60  1  0.96765084  0.90540128  0.43148016  1  0.089935  0  0.022527  0.053387  0  3.918341  0
C  C61  1  0.04095159  0.08494164  0.54819920  1  0.031349  0  0.019926  0.048368  0  3.925704  0
C  C62  1  0.52591631  0.96771236  0.43134651  1  0.089791  0  0.022406  0.052949  0  3.920117  0
C  C63  1  0.46335119  0.04102850  0.54829895  1  0.065526  0  0.020118  0.049833  0  3.925289  0
C  C64  1  0.46372699  0.52606640  0.43148381  1  0.088929  0  0.022468  0.054286  0  3.916586  0
C  C65  1  0.50718554  0.46328698  0.54819353  1  0.058467  0  0.020666  0.050568  0  3.922487  0
C  C66  1  0.90544982  0.46382617  0.43156445  1  0.05363  0  0.022703  0.053421  0  3.918142  0
C  C67  1  0.08497829  0.50724914  0.54819534  1  0.043575  0  0.019797  0.049438  0  3.925984  0
C  C68  1  0.53635969  0.09458202  0.56858749  1  0.061394  0  0.02309  0.053804  0  3.91884  0
C  C69  1  0.49265257  0.91505505  0.45168476  1  0.047506  0  0.019746  0.049926  0  3.925162  0
C  C70  1  0.09454696  0.03230271  0.56854753  1  0.109971  0  0.022392  0.054117  0  3.918076  0
C  C71  1  0.91500464  0.95899235  0.45184028  1  0.031229  0  0.020109  0.049163  0  3.924394  0
C  C72  1  0.03235659  0.47396298  0.56854845  1  0.092236  0  0.022531  0.053454  0  3.920054  0
C  C73  1  0.95905865  0.53684901  0.45192600  1  0.061238  0  0.020909  0.050767  0  3.924856  0
C  C74  1  0.47390978  0.53627011  0.56851334  1  0.08854  0  0.022518  0.054202  0  3.916474  0
C  C75  1  0.53670317  0.49279148  0.45181331  1  0.058385  0  0.020518  0.050517  0  3.92242  0
C  C76  1  0.05887353  0.94108078  0.50001167  1  0.016384  0  0.00865  -0.083902  0  3.826235  0
C  C77  1  0.95042939  0.04951950  0.50001798  1  0.133188  0  0.008258  -0.079337  0  3.85189  0
C  C78  1  0.55892496  0.05891181  0.49996927  1  0.006632  0  0.008275  -0.084635  0  3.826579  0
C  C79  1  0.45046259  0.95049039  0.50000954  1  0.101191  0  0.008742  -0.079197  0  3.852573  0
C  C80  1  0.44104073  0.55895243  0.49999710  1  0.031697  0  0.008152  -0.085559  0  3.825519  0
C  C81  1  0.54949681  0.45048056  0.50000389  1  0.124513  0  0.008281  -0.080042  0  3.852448  0
C  C82  1  0.94113622  0.44109633  0.50004568  1  0.005862  0  0.00833  -0.084454  0  3.826059  0
C  C83  1  0.04956101  0.54957787  0.50003092  1  0.104622  0  0.00855  -0.079781  0  3.853231  0
N  N84  1  0.79128417  0.95651755  0.47490437  1  0.382389  0  0.057748  0.533  0  4.220599  0
N  N85  1  0.22544231  0.03816116  0.70933756  1  0.43299  0  0.054921  0.521568  0  4.245349  0
N  N86  1  0.51821893  0.79131732  0.47470925  1  0.402771  0  0.058421  0.533924  0  4.22024  0
N  N87  1  0.67142495  0.22539256  0.70929236  1  0.415063  0  0.055821  0.523506  0  4.244159  0
N  N88  1  0.68352438  0.51836033  0.47500422  1  0.406636  0  0.058632  0.534722  0  4.220301  0
N  N89  1  0.48374732  0.67117760  0.70924741  1  0.414801  0  0.056601  0.524062  0  4.246783  0
N  N90  1  0.95675142  0.68370394  0.47513014  1  0.353522  0  0.057402  0.532978  0  4.221302  0
N  N91  1  0.03828297  0.48366478  0.70928929  1  0.39819  0  0.056305  0.523658  0  4.243946  0
N  N92  1  0.31664432  0.04357157  0.52542910  1  0.39574  0  0.058357  0.534447  0  4.222302  0
N  N93  1  0.51611801  0.96195345  0.29064495  1  0.398657  0  0.055604  0.523033  0  4.246217  0
N  N94  1  0.04344811  0.20858056  0.52501839  1  0.384112  0  0.057836  0.532588  0  4.220205  0
N  N95  1  0.96177684  0.77446881  0.29070612  1  0.444018  0  0.055485  0.522408  0  4.244691  0
N  N96  1  0.20855756  0.48159666  0.52488664  1  0.404132  0  0.058466  0.534067  0  4.219586  0
N  N97  1  0.77444145  0.32893342  0.29078880  1  0.398209  0  0.055705  0.523415  0  4.241956  0
N  N98  1  0.48172583  0.31650097  0.52512959  1  0.405351  0  0.057544  0.533127  0  4.222218  0
N  N99  1  0.32880416  0.51617385  0.29071843  1  0.415272  0  0.056485  0.523885  0  4.247167  0
O  O100  1  0.74998775  0.25003074  0.49999404  1  -1.223066  0  -0.571363  -1.029383  0  2.494599  0
O  O101  1  0.24999530  0.75002813  0.49998887  1  -1.222282  0  -0.571597  -1.029424  0  2.494384  0
O  O102  1  0.66111008  0.08229807  0.28166750  1  -1.134308  0  -0.300506  -0.525688  0  2.321672  0
O  O103  1  0.37938045  0.91782428  0.71836774  1  -1.132455  0  -0.300483  -0.526237  0  2.321503  0
O  O104  1  0.19933091  0.66097565  0.28155001  1  -1.142854  0  -0.300591  -0.525988  0  2.320274  0
O  O105  1  0.80064487  0.37947053  0.71842244  1  -1.136267  0  -0.300388  -0.525438  0  2.321273  0
O  O106  1  0.62055087  0.19938057  0.28157316  1  -1.136478  0  -0.300047  -0.525065  0  2.321761  0
O  O107  1  0.33902153  0.80067130  0.71843651  1  -1.142482  0  -0.300566  -0.525855  0  2.320421  0
O  O108  1  0.08218039  0.62060488  0.28160789  1  -1.131999  0  -0.300634  -0.526189  0  2.32123  0
O  O109  1  0.91771533  0.33890010  0.71830534  1  -1.134277  0  -0.300464  -0.525769  0  2.322245  0
O  O110  1  0.80280566  0.37636200  0.45609340  1  -1.147816  0  -0.296965  -0.534536  0  2.414692  0
O  O111  1  0.18758677  0.63893075  0.56794030  1  -1.163243  0  -0.297228  -0.524194  0  2.359523  0
O  O112  1  0.07963317  0.80275363  0.45601455  1  -1.152409  0  -0.297114  -0.533908  0  2.415435  0
O  O113  1  0.92906190  0.18757218  0.56787381  1  -1.164571  0  -0.297252  -0.524045  0  2.357269  0
O  O114  1  0.65328479  0.07962961  0.45598803  1  -1.15328  0  -0.29693  -0.534163  0  2.414738  0
O  O115  1  0.38040508  0.92906724  0.56795620  1  -1.160495  0  -0.296908  -0.523914  0  2.358411  0
O  O116  1  0.37631537  0.65330132  0.45601494  1  -1.152528  0  -0.297362  -0.534582  0  2.414853  0
O  O117  1  0.63890962  0.38043452  0.56797534  1  -1.156408  0  -0.296933  -0.52368  0  2.358162  0
O  O118  1  0.34667405  0.62367728  0.54394325  1  -1.153522  0  -0.297392  -0.534679  0  2.415184  0
O  O119  1  0.61955223  0.36107380  0.43204719  1  -1.156917  0  -0.296837  -0.523466  0  2.358735  0
O  O120  1  0.62373042  0.19723348  0.54398783  1  -1.148546  0  -0.297015  -0.534741  0  2.41528  0
O  O121  1  0.36108492  0.81246355  0.43206271  1  -1.162787  0  -0.297142  -0.524325  0  2.359448  0
O  O122  1  0.19721772  0.92037413  0.54400461  1  -1.152651  0  -0.297062  -0.533839  0  2.41517  0
O  O123  1  0.81239170  0.07091419  0.43212700  1  -1.165322  0  -0.297102  -0.523955  0  2.357058  0
O  O124  1  0.92037476  0.34666847  0.54393980  1  -1.153354  0  -0.296997  -0.534304  0  2.414331  0
O  O125  1  0.07095039  0.61962341  0.43206121  1  -1.160566  0  -0.297114  -0.524064  0  2.358592  0
O  O126  1  0.84225920  0.01746109  0.56052520  1  -0.430385  0  -0.11992  -0.308069  0  1.88564  0
O  O127  1  0.71249904  0.92521469  0.43549099  1  -0.432571  0  -0.12637  -0.333148  0  1.992112  0
O  O128  1  0.17840228  0.98683627  0.70585206  1  -0.443077  0  -0.124082  -0.313452  0  1.868819  0
O  O129  1  0.30568925  0.06028462  0.75538130  1  -0.415747  0  -0.107518  -0.294535  0  1.938127  0
O  O130  1  0.54303503  0.84229364  0.56036685  1  -0.434365  0  -0.120849  -0.308786  0  1.885315  0
O  O131  1  0.51008832  0.71253601  0.43528025  1  -0.447506  0  -0.126088  -0.332915  0  1.99133  0
O  O132  1  0.71916322  0.17828040  0.70560781  1  -0.423384  0  -0.124799  -0.31435  0  1.866989  0
O  O133  1  0.69548395  0.30564198  0.75545625  1  -0.419643  0  -0.107795  -0.295595  0  1.938646  0
O  O134  1  0.71809286  0.54293686  0.56057887  1  -0.4337  0  -0.120658  -0.30898  0  1.885151  0
O  O135  1  0.72300197  0.51040465  0.43574927  1  -0.436764  0  -0.12631  -0.333344  0  1.993155  0
O  O136  1  0.52732298  0.71900213  0.70576884  1  -0.440594  0  -0.124988  -0.314545  0  1.869606  0
O  O137  1  0.44953714  0.69513031  0.75526441  1  -0.410865  0  -0.108145  -0.295738  0  1.939107  0
O  O138  1  0.01782456  0.71830839  0.56069151  1  -0.409833  0  -0.120271  -0.308377  0  1.885069  0
O  O139  1  0.92541679  0.72313206  0.43581730  1  -0.430684  0  -0.12559  -0.332248  0  1.993291  0
O  O140  1  0.98697449  0.52722653  0.70588758  1  -0.419658  0  -0.124957  -0.314653  0  1.867125  0
O  O141  1  0.06042029  0.44944061  0.75529998  1  -0.413296  0  -0.107835  -0.295254  0  1.938224  0
O  O142  1  0.28188011  0.98270129  0.43976161  1  -0.446736  0  -0.120827  -0.309223  0  1.885867  0
O  O143  1  0.27737642  0.07484590  0.56495558  1  -0.434807  0  -0.125834  -0.332692  0  1.994132  0
O  O144  1  0.47265562  0.01334929  0.29421330  1  -0.426171  0  -0.124966  -0.314568  0  1.868561  0
O  O145  1  0.55028150  0.93981807  0.24457531  1  -0.408926  0  -0.107607  -0.295223  0  1.939434  0
O  O146  1  0.98246512  0.15757704  0.43942527  1  -0.43094  0  -0.119957  -0.307798  0  1.885574  0
O  O147  1  0.07480427  0.28733444  0.56432511  1  -0.432703  0  -0.126601  -0.333295  0  1.991908  0
O  O148  1  0.01304127  0.82148458  0.29409970  1  -0.450912  0  -0.124419  -0.313894  0  1.869207  0
O  O149  1  0.93969737  0.69422585  0.24473607  1  -0.418565  0  -0.107852  -0.294965  0  1.93713  0
O  O150  1  0.15752102  0.45703752  0.43932211  1  -0.439306  0  -0.120325  -0.308517  0  1.884908  0
O  O151  1  0.28728293  0.48946291  0.56411000  1  -0.44806  0  -0.126635  -0.333421  0  1.991063  0
O  O152  1  0.82142895  0.28106081  0.29422943  1  -0.418071  0  -0.124885  -0.314189  0  1.865406  0
O  O153  1  0.69419088  0.30501133  0.24472786  1  -0.425459  0  -0.107279  -0.29528  0  1.937896  0
O  O154  1  0.45699790  0.28185875  0.43950338  1  -0.430606  0  -0.119836  -0.307952  0  1.885066  0
O  O155  1  0.48990365  0.27711585  0.56452558  1  -0.436576  0  -0.126058  -0.332682  0  1.993943  0
O  O156  1  0.28100373  0.47265005  0.29427154  1  -0.442078  0  -0.124806  -0.314297  0  1.869537  0
O  O157  1  0.30481940  0.55032159  0.24463415  1  -0.40958  0  -0.108097  -0.295603  0  1.939742  0
F  F158  1  0.21866018  0.28836353  0.69294986  1  -0.595381  0  -0.059196  -0.071967  0  1.417822  0
F  F159  1  0.78649216  0.70571945  0.21634674  1  -0.596453  0  -0.058477  -0.069225  0  1.401403  0
F  F160  1  0.40499895  0.21873993  0.69332325  1  -0.595492  0  -0.059398  -0.07248  0  1.419013  0
F  F161  1  0.51041844  0.78662917  0.21621902  1  -0.591064  0  -0.059035  -0.07026  0  1.399394  0
F  F162  1  0.47443715  0.40462211  0.69299278  1  -0.597817  0  -0.05956  -0.072649  0  1.418607  0
F  F163  1  0.42965773  0.51032625  0.21622457  1  -0.591924  0  -0.058933  -0.070241  0  1.399328  0
F  F164  1  0.28837581  0.47421806  0.69270635  1  -0.59098  0  -0.059221  -0.072123  0  1.418761  0
F  F165  1  0.70573456  0.43000684  0.21663294  1  -0.595268  0  -0.058628  -0.069649  0  1.400817  0
F  F166  1  0.52546541  0.71165832  0.30684911  1  -0.594746  0  -0.059211  -0.072105  0  1.418479  0
F  F167  1  0.57070456  0.29424087  0.78390908  1  -0.596102  0  -0.058797  -0.069533  0  1.399802  0
F  F168  1  0.71159446  0.78128688  0.30710883  1  -0.594417  0  -0.059063  -0.071933  0  1.417376  0
F  F169  1  0.29417380  0.21350092  0.78378364  1  -0.596862  0  -0.058566  -0.069444  0  1.400514  0
F  F170  1  0.78145778  0.59562641  0.30736136  1  -0.597727  0  -0.059151  -0.072166  0  1.418416  0
F  F171  1  0.21352320  0.48910545  0.78338865  1  -0.592902  0  -0.058681  -0.070092  0  1.400684  0
F  F172  1  0.59538305  0.52551177  0.30701142  1  -0.598072  0  -0.059545  -0.072617  0  1.418844  0
F  F173  1  0.48949283  0.57030329  0.78368290  1  -0.591642  0  -0.058562  -0.069974  0  1.399726  0
