# generated using pymatgen
data_NiH22C14(N2O3)2
_symmetry_space_group_name_H-M   'P 1'
_cell_length_a   9.04064613
_cell_length_b   9.04067602
_cell_length_c   11.51962632
_cell_angle_alpha   69.49978439
_cell_angle_beta   69.50050501
_cell_angle_gamma   79.30702795
_symmetry_Int_Tables_number   1
_chemical_formula_structural   NiH22C14(N2O3)2
_chemical_formula_sum   'Ni2 H44 C28 N8 O12'
_cell_volume   823.94034712
_cell_formula_units_Z   2
loop_
 _symmetry_equiv_pos_site_id
 _symmetry_equiv_pos_as_xyz
  1  'x, y, z'
loop_
 _atom_site_type_symbol
 _atom_site_label
 _atom_site_symmetry_multiplicity
 _atom_site_fract_x
 _atom_site_fract_y
 _atom_site_fract_z
 _atom_site_occupancy
 _atom_site_hle17_ddec_charge
 _atom_site_hle17_ddec_spin_density
 _atom_site_hle17_ddec_sum_bond_order
 _atom_site_hle17_magmom
 _atom_site_hse06_10hf_ddec_charge
 _atom_site_hse06_10hf_ddec_spin_density
 _atom_site_hse06_10hf_ddec_sum_bond_order
 _atom_site_hse06_10hf_magmom
 _atom_site_hse06_ddec_charge
 _atom_site_hse06_ddec_spin_density
 _atom_site_hse06_ddec_sum_bond_order
 _atom_site_hse06_magmom
 _atom_site_pbe_cm5_charge
 _atom_site_pbe_ddec_charge
 _atom_site_pbe_ddec_spin_density
 _atom_site_pbe_ddec_sum_bond_order
 _atom_site_pbe_magmom
Ni  Ni0  1  0.44943741  0.55056905  0.75000258  1  0.697448  -3e-06  2.165709  0.0  0.697977  1e-06  2.592192  0.0  0.819956  0.0  2.49152  0.0  0.60069  0.61586  2e-06  2.662707  0.0
Ni  Ni1  1  0.55055826  0.44943259  0.24999934  1  0.697555  -4e-06  2.165584  0.0  0.698103  -2e-06  2.592109  0.0  0.820027  -6e-06  2.491444  0.0  0.600685  0.615953  -3e-06  2.662553  0.0
H  H2  1  0.90361788  0.39390656  0.47821868  1  0.096391  7.1e-05  0.938311  0.0  0.111188  -1e-06  1.003146  0.0  0.113037  5e-06  1.00284  0.0  0.098766  0.110042  9e-06  1.002763  0.0
H  H3  1  0.60605249  0.09636925  0.02181314  1  0.096462  -6.1e-05  0.938338  0.0  0.111337  1e-06  1.003123  0.0  0.113182  -4e-06  1.002823  0.0  0.098805  0.110189  -1e-05  1.002738  0.0
H  H4  1  0.09635885  0.60604830  0.52181323  1  0.096466  7e-05  0.938309  0.0  0.111365  -1e-06  1.003143  0.0  0.113213  5e-06  1.002843  0.0  0.09879  0.110216  -9e-06  1.00276  0.0
H  H5  1  0.39392670  0.90362966  0.97819982  1  0.096424  -5.3e-05  0.93825  0.0  0.111233  1e-06  1.003102  0.0  0.113074  -4e-06  1.002812  0.0  0.098793  0.110085  9e-06  1.002719  0.0
H  H6  1  0.89163023  0.59816350  0.41746602  1  0.111201  4e-05  0.951677  0.0  0.126765  -1.1e-05  1.011149  0.0  0.129417  -8e-06  1.009289  0.0  0.102754  0.124846  -1e-06  1.012332  0.0
H  H7  1  0.40179415  0.10836347  0.08253200  1  0.111194  -1.9e-05  0.951879  0.0  0.126807  1.2e-05  1.011305  0.0  0.129454  9e-06  1.009446  0.0  0.102807  0.124888  1e-06  1.012487  0.0
H  H8  1  0.10835534  0.40179331  0.58253966  1  0.111188  3.3e-05  0.951769  0.0  0.126818  -1.2e-05  1.011268  0.0  0.129469  -8e-06  1.009409  0.0  0.102798  0.124898  1e-06  1.012452  0.0
H  H9  1  0.59818381  0.89164052  0.91746780  1  0.11116  -3.2e-05  0.951801  0.0  0.126738  1.1e-05  1.011267  0.0  0.129391  8e-06  1.009407  0.0  0.10277  0.124818  -1e-06  1.012452  0.0
H  H10  1  0.35544430  0.70373528  0.48828975  1  0.110009  0.000137  0.94624  0.0  0.116509  0.000263  1.013353  0.0  0.118389  0.000286  1.010797  0.0  0.141648  0.114528  0.000267  1.01648  0.0
H  H11  1  0.29627046  0.64456631  0.01171573  1  0.109967  -0.000139  0.946271  0.0  0.116587  -0.000263  1.013223  0.0  0.118435  -0.000286  1.010707  0.0  0.141695  0.114605  -0.000267  1.016351  0.0
H  H12  1  0.64455437  0.29625676  0.51171908  1  0.109964  0.00013  0.946236  0.0  0.116524  0.000263  1.013275  0.0  0.118403  0.000287  1.010722  0.0  0.141647  0.114542  -0.000267  1.016404  0.0
H  H13  1  0.70373685  0.35544042  0.98827405  1  0.10991  -0.000173  0.946304  0.0  0.116493  -0.000263  1.013298  0.0  0.118385  -0.000287  1.01073  0.0  0.141665  0.114512  0.000267  1.016425  0.0
H  H14  1  0.42144397  0.90067862  0.74844049  1  0.120694  0.000217  0.95153  0.0  0.127534  0.000342  1.017542  0.0  0.129043  0.00035  1.016668  0.0  0.124109  0.126399  0.000314  1.018035  0.0
H  H15  1  0.09933975  0.57856068  0.75155823  1  0.120557  -0.000174  0.951528  0.0  0.127416  -0.000342  1.017524  0.0  0.128918  -0.00035  1.01665  0.0  0.124079  0.126282  -0.000315  1.018016  0.0
H  H16  1  0.57857183  0.09932204  0.25155735  1  0.120699  0.000185  0.951436  0.0  0.127491  0.000342  1.017512  0.0  0.128995  0.00035  1.016636  0.0  0.124103  0.126354  -0.000315  1.018007  0.0
H  H17  1  0.90065683  0.42144583  0.24843785  1  0.120644  -0.000214  0.951493  0.0  0.127505  -0.000343  1.017483  0.0  0.129005  -0.00035  1.016609  0.0  0.124105  0.126371  0.000315  1.017974  0.0
H  H18  1  0.28050415  0.13284420  0.57931124  1  0.1225  4.9e-05  0.949307  0.0  0.133304  -2e-06  1.007377  0.0  0.135727  7e-06  1.005801  0.0  0.125476  0.130388  9.8e-05  1.010192  0.0
H  H19  1  0.86716526  0.71949808  0.92068433  1  0.122522  -7.4e-05  0.949205  0.0  0.133311  2e-06  1.007306  0.0  0.135735  -7e-06  1.005728  0.0  0.125465  0.130395  -9.8e-05  1.010119  0.0
H  H20  1  0.71952225  0.86715912  0.42067711  1  0.122424  4.7e-05  0.949362  0.0  0.133263  -2e-06  1.007391  0.0  0.135686  7e-06  1.005814  0.0  0.125468  0.130341  -9.9e-05  1.01021  0.0
H  H21  1  0.13282926  0.28050229  0.07932082  1  0.122509  -6.3e-05  0.949204  0.0  0.133308  2e-06  1.007288  0.0  0.135731  -7e-06  1.00571  0.0  0.12543  0.130388  9.9e-05  1.010112  0.0
H  H22  1  0.24030386  0.93042162  0.34825971  1  0.085551  -2e-06  0.916448  0.0  0.103561  1.7e-05  0.972579  0.0  0.104525  1e-05  0.972229  0.0  0.114227  0.102518  0.0  0.972993  0.0
H  H23  1  0.06956974  0.75970696  0.15174147  1  0.085525  1.7e-05  0.916341  0.0  0.103513  -1.6e-05  0.972524  0.0  0.104495  -9e-06  0.972145  0.0  0.114206  0.102475  -0.0  0.972938  0.0
H  H24  1  0.75971302  0.06958152  0.65173375  1  0.085536  -1.1e-05  0.916462  0.0  0.103519  1.6e-05  0.972642  0.0  0.104499  1e-05  0.972266  0.0  0.114212  0.102486  -0.0  0.973053  0.0
H  H25  1  0.93041842  0.24030058  0.84825913  1  0.085517  8e-06  0.91645  0.0  0.103518  -1.7e-05  0.972621  0.0  0.104499  -9e-06  0.972245  0.0  0.114215  0.102483  0.0  0.973039  0.0
H  H26  1  0.29209096  0.11791593  0.33012242  1  0.100596  -1.7e-05  0.940267  0.0  0.116334  1e-06  0.999725  0.0  0.116744  0.0  0.999562  0.0  0.113887  0.115579  -1.8e-05  0.999927  0.0
H  H27  1  0.88208270  0.70791635  0.16986867  1  0.100545  -1.4e-05  0.940255  0.0  0.116387  -2e-06  0.999606  0.0  0.116795  0.0  0.999442  0.0  0.11392  0.115634  1.8e-05  0.999813  0.0
H  H28  1  0.70792580  0.88208708  0.66987544  1  0.100637  -3.6e-05  0.940117  0.0  0.116441  1e-06  0.999511  0.0  0.116848  -1e-06  0.999345  0.0  0.113937  0.115689  1.8e-05  0.999727  0.0
H  H29  1  0.11791205  0.29208553  0.83012474  1  0.100598  6e-06  0.94025  0.0  0.116427  -1e-06  0.999619  0.0  0.116834  0.0  0.999455  0.0  0.113918  0.115677  -1.8e-05  0.999834  0.0
H  H30  1  0.04057788  0.15693864  0.50167209  1  0.06599  -1e-06  0.939038  0.0  0.088149  5e-06  0.996292  0.0  0.08795  6e-06  0.997823  0.0  0.092318  0.088248  9e-06  0.994589  0.0
H  H31  1  0.84306090  0.95943124  0.99831759  1  0.065914  1e-06  0.93912  0.0  0.088116  -5e-06  0.996318  0.0  0.087917  -6e-06  0.997851  0.0  0.092288  0.088214  -9e-06  0.994615  0.0
H  H32  1  0.95943581  0.84305967  0.49832517  1  0.065942  2.5e-05  0.938999  0.0  0.088111  5e-06  0.996224  0.0  0.087913  6e-06  0.997754  0.0  0.092274  0.08821  -9e-06  0.994524  0.0
H  H33  1  0.15693265  0.04057060  0.00167702  1  0.065997  -2.2e-05  0.939022  0.0  0.088195  -5e-06  0.996236  0.0  0.087998  -6e-06  0.997765  0.0  0.09232  0.088295  9e-06  0.994531  0.0
H  H34  1  0.00715484  0.13004627  0.36892616  1  0.076241  1.2e-05  0.946603  0.0  0.092988  3.9e-05  1.010702  0.0  0.093073  3.5e-05  1.01269  0.0  0.094158  0.092463  3.8e-05  1.01023  0.0
H  H35  1  0.86994730  0.99285378  0.13106512  1  0.076271  -1e-05  0.946628  0.0  0.093026  -3.9e-05  1.010723  0.0  0.093112  -3.4e-05  1.012711  0.0  0.094205  0.092512  -3.8e-05  1.010238  0.0
H  H36  1  0.99286263  0.86994977  0.63106897  1  0.076254  5.1e-05  0.946626  0.0  0.092977  3.9e-05  1.010748  0.0  0.093062  3.5e-05  1.012738  0.0  0.094177  0.09247  -3.8e-05  1.010253  0.0
H  H37  1  0.13005066  0.00715166  0.86892741  1  0.076232  -5e-05  0.94662  0.0  0.093034  -3.9e-05  1.010682  0.0  0.093119  -3.4e-05  1.012671  0.0  0.094178  0.092511  3.8e-05  1.010206  0.0
H  H38  1  0.35730557  0.41539839  0.55070197  1  0.396467  -4e-05  0.916843  0.0  0.370732  -4.3e-05  0.977095  0.0  0.382071  -1.1e-05  0.960554  0.0  0.278747  0.362633  4.3e-05  0.989078  0.0
H  H39  1  0.58459820  0.64269235  0.94930124  1  0.396461  4e-05  0.916872  0.0  0.370727  4.3e-05  0.977104  0.0  0.382062  1.2e-05  0.960571  0.0  0.278752  0.362627  -4.3e-05  0.989088  0.0
H  H40  1  0.64267687  0.58459375  0.44930147  1  0.396435  -3.3e-05  0.916835  0.0  0.370719  -4.2e-05  0.977077  0.0  0.38205  -1.1e-05  0.960554  0.0  0.278755  0.362619  -4.3e-05  0.98906  0.0
H  H41  1  0.41539521  0.35732102  0.05070172  1  0.396382  5.6e-05  0.916931  0.0  0.370696  4.3e-05  0.9771  0.0  0.382028  1.2e-05  0.96057  0.0  0.27873  0.362593  4.3e-05  0.989092  0.0
H  H42  1  0.40078857  0.31293568  0.68145052  1  0.399849  1e-06  0.921449  0.0  0.365618  2.7e-05  0.993985  0.0  0.376555  2.5e-05  0.977837  0.0  0.272684  0.358046  2.6e-05  1.005237  0.0
H  H43  1  0.68706451  0.59922596  0.81854741  1  0.399933  -1.4e-05  0.921335  0.0  0.36572  -2.8e-05  0.993859  0.0  0.376655  -2.5e-05  0.977713  0.0  0.272727  0.358144  -2.6e-05  1.005116  0.0
H  H44  1  0.59920998  0.68706138  0.31854750  1  0.399847  7e-06  0.921472  0.0  0.365638  2.8e-05  0.993965  0.0  0.376575  2.5e-05  0.977818  0.0  0.272766  0.358064  -2.6e-05  1.00522  0.0
H  H45  1  0.31292521  0.40078978  0.18145414  1  0.399865  -4e-06  0.921434  0.0  0.365655  -2.8e-05  0.993933  0.0  0.376592  -2.4e-05  0.977786  0.0  0.272705  0.358084  2.6e-05  1.005185  0.0
C  C46  1  0.78803459  0.50778379  0.62451506  1  0.683544  2.3e-05  3.796945  0.001  0.6428  -0.000482  4.098697  0.0  0.679768  -0.000325  4.094129  0.0  0.213262  0.617402  -0.000186  4.099918  0.0
C  C47  1  0.49221858  0.21196338  0.87548765  1  0.683705  -2.2e-05  3.796898  -0.001  0.642906  0.000484  4.098812  0.0  0.679866  0.000331  4.094249  0.0  0.213235  0.617508  0.000186  4.100033  0.0
C  C48  1  0.21195698  0.49220944  0.37549270  1  0.683591  0.000101  3.797062  0.001  0.642876  -0.000483  4.098955  0.0  0.679847  -0.000327  4.09439  0.0  0.213213  0.617473  0.000187  4.10018  0.0
C  C49  1  0.50777806  0.78804062  0.12451429  1  0.683605  -1.4e-05  3.796987  -0.001  0.642821  0.000484  4.098853  0.0  0.679792  0.000329  4.094283  0.0  0.213244  0.61742  -0.000187  4.100076  0.0
C  C50  1  0.91687242  0.50009817  0.49858778  1  -0.249803  -0.001209  3.719611  -0.001  -0.29486  -0.000891  3.976294  -0.001  -0.301183  -0.000822  3.985478  -0.001  -0.172651  -0.28939  -0.000345  3.967033  0.0
C  C51  1  0.49987449  0.08312015  0.00142037  1  -0.249745  0.001171  3.7199  0.001  -0.29508  0.000891  3.976814  0.001  -0.301387  0.000817  3.985976  0.001  -0.172713  -0.289606  0.000345  3.967549  0.0
C  C52  1  0.08310963  0.49986899  0.50142568  1  -0.249548  -0.001221  3.719714  -0.001  -0.29511  -0.000892  3.976809  -0.001  -0.301439  -0.000822  3.985999  -0.001  -0.172718  -0.289635  0.000346  3.967548  0.0
C  C53  1  0.50010927  0.91688380  0.99858143  1  -0.249635  0.001172  3.719628  0.001  -0.294836  0.000892  3.976433  0.001  -0.301165  0.000819  3.985615  0.001  -0.172718  -0.289365  -0.000346  3.967174  0.0
C  C54  1  0.35460736  0.78652663  0.53757118  1  0.150849  -0.000224  3.612587  0.0  0.092624  0.000623  3.886417  0.0  0.108399  0.000333  3.902255  0.0  0.147568  0.080839  0.000734  3.877693  0.0
C  C55  1  0.21347863  0.64540157  0.96243182  1  0.150863  0.000232  3.612387  0.0  0.092548  -0.000624  3.88624  0.0  0.108345  -0.000332  3.902094  0.0  0.147496  0.080765  -0.000734  3.877511  0.0
C  C56  1  0.64540166  0.21347040  0.46242935  1  0.150935  -0.00016  3.612264  0.0  0.092674  0.000623  3.886124  0.0  0.108446  0.000333  3.901961  0.0  0.147514  0.080886  -0.000735  3.877404  0.0
C  C57  1  0.78652044  0.35460382  0.03756304  1  0.150948  0.000345  3.61232  0.001  0.09266  -0.000624  3.886143  0.0  0.108424  -0.000331  3.901972  0.0  0.147513  0.080875  0.000735  3.877417  0.0
C  C58  1  0.38437712  0.89380635  0.67077487  1  -0.005765  2e-06  3.719835  0.0  -0.042456  0.000528  4.001713  0.0  -0.037338  0.000415  4.023284  0.0  0.001161  -0.045832  0.000473  3.986226  0.0
C  C59  1  0.10620796  0.61563443  0.82922296  1  -0.005581  -0.000259  3.719892  0.0  -0.042298  -0.000528  4.001776  0.0  -0.037169  -0.000415  4.023331  0.0  0.001163  -0.045669  -0.000472  3.986278  0.0
C  C60  1  0.61564313  0.10619794  0.32922003  1  -0.005934  0.000142  3.719898  0.0  -0.042565  0.000528  4.001808  0.0  -0.037436  0.000416  4.023358  0.0  0.00114  -0.04594  -0.000473  3.98631  0.0
C  C61  1  0.89379079  0.38437448  0.17077195  1  -0.005678  -0.000107  3.719968  0.0  -0.04242  -0.000528  4.00186  0.0  -0.037297  -0.000414  4.023426  0.0  0.001166  -0.045792  0.000473  3.986364  0.0
C  C62  1  0.31350117  0.00880493  0.58807087  1  -0.058555  0.000695  3.660676  0.001  -0.098908  0.000782  3.920742  0.001  -0.096846  0.000753  3.938395  0.001  0.003901  -0.098968  0.000609  3.908899  0.001
C  C63  1  0.99120722  0.68650797  0.91192222  1  -0.058597  -0.000486  3.660911  0.0  -0.098928  -0.00078  3.920959  -0.001  -0.096866  -0.000752  3.938609  -0.001  0.003955  -0.09899  -0.000609  3.909118  -0.001
C  C64  1  0.68652043  0.99119826  0.41192136  1  -0.058304  0.000619  3.660775  0.001  -0.098672  0.000782  3.920783  0.001  -0.096607  0.000753  3.93843  0.001  0.003941  -0.098727  -0.00061  3.908954  -0.001
C  C65  1  0.00879069  0.31349614  0.08807588  1  -0.058548  -0.000565  3.660966  -0.001  -0.098875  -0.00078  3.920974  -0.001  -0.096812  -0.000753  3.938622  -0.001  0.003974  -0.098942  0.00061  3.909137  0.001
C  C66  1  0.22482844  0.01641826  0.40000537  1  -0.009046  0.000248  3.610565  0.0  -0.070583  0.000184  3.867848  0.0  -0.066442  0.00017  3.878975  0.0  -0.055163  -0.072567  0.000193  3.859415  0.0
C  C67  1  0.98357948  0.77518202  0.09998967  1  -0.008806  -0.000204  3.61031  0.0  -0.070433  -0.000183  3.867657  0.0  -0.066285  -0.00017  3.878747  0.0  -0.055099  -0.072439  -0.000193  3.859257  0.0
C  C68  1  0.77519097  0.98358251  0.59998891  1  -0.008883  0.000281  3.610434  0.0  -0.070474  0.000184  3.86775  0.0  -0.066328  0.000172  3.878848  0.0  -0.0551  -0.07249  -0.000194  3.859365  0.0
C  C69  1  0.01641496  0.22482213  0.90000671  1  -0.00891  -0.000239  3.61043  0.0  -0.070542  -0.000184  3.867838  0.0  -0.066406  -0.000172  3.878955  0.0  -0.055163  -0.072568  0.000193  3.859467  0.0
C  C70  1  0.05070721  0.06836319  0.45300778  1  -0.12724  9.6e-05  3.697186  0.0  -0.171221  8.5e-05  3.964292  0.0  -0.172416  8e-05  3.978598  0.0  -0.16489  -0.170777  0.000102  3.954705  0.0
C  C71  1  0.93163400  0.94930459  0.04698319  1  -0.127299  -0.000142  3.697248  0.0  -0.171283  -8.4e-05  3.964423  0.0  -0.172487  -8.3e-05  3.978731  0.0  -0.164964  -0.170841  -0.000102  3.954836  0.0
C  C72  1  0.94931368  0.93163405  0.54698703  1  -0.127284  -2.5e-05  3.69722  0.0  -0.171215  8.5e-05  3.964359  0.0  -0.17242  8e-05  3.978667  0.0  -0.164962  -0.170773  -0.000102  3.954774  0.0
C  C73  1  0.06836409  0.05069969  0.95300874  1  -0.127308  1.3e-05  3.697125  0.0  -0.171381  -8.4e-05  3.964372  0.0  -0.172585  -8.1e-05  3.97868  0.0  -0.164986  -0.170927  0.000102  3.954792  0.0
N  N74  1  0.40938677  0.75583460  0.63806386  1  -0.303116  0.014313  3.395035  0.013  -0.26581  0.013185  3.709867  0.01  -0.307849  0.013703  3.734708  0.01  -0.362202  -0.238135  0.010583  3.694175  0.008
N  N75  1  0.24417577  0.59062222  0.86194002  1  -0.303009  -0.014342  3.394704  -0.013  -0.2657  -0.013185  3.709575  -0.01  -0.307739  -0.013704  3.7344  -0.01  -0.362129  -0.238027  -0.010582  3.693886  -0.008
N  N76  1  0.59062310  0.24416597  0.36193641  1  -0.303011  0.0143  3.394872  0.013  -0.265773  0.013191  3.70978  0.01  -0.307797  0.013707  3.734608  0.01  -0.362153  -0.238083  -0.010595  3.694067  -0.008
N  N77  1  0.75582283  0.40938911  0.13805256  1  -0.303016  -0.014409  3.394511  -0.013  -0.265677  -0.013192  3.709336  -0.01  -0.307702  -0.013709  3.734158  -0.01  -0.36212  -0.237998  0.010596  3.69364  0.008
N  N78  1  0.29612194  0.93932210  0.50457749  1  -0.061136  0.00089  3.59003  0.001  0.033809  0.001087  3.805259  0.001  0.018859  0.001107  3.832783  0.001  -0.242445  0.043942  0.000931  3.785671  0.001
N  N79  1  0.06068595  0.70388751  0.99542002  1  -0.061293  -0.000828  3.590062  -0.001  0.033654  -0.001088  3.805338  -0.001  0.018698  -0.001104  3.832858  -0.001  -0.242507  0.043793  -0.000931  3.785753  -0.001
N  N80  1  0.70389522  0.06067746  0.49541769  1  -0.061377  0.000863  3.589948  0.001  0.033575  0.001088  3.805226  0.001  0.018618  0.001106  3.832749  0.001  -0.242461  0.043713  -0.000931  3.785649  -0.001
N  N81  1  0.93931442  0.29611545  0.00457774  1  -0.061332  -0.000878  3.590068  -0.001  0.033639  -0.001089  3.805316  -0.001  0.018682  -0.001105  3.832846  -0.001  -0.242479  0.043785  0.000932  3.785738  0.001
O  O82  1  0.64477272  0.52081123  0.61831124  1  -0.60082  -0.014597  2.157308  -0.015  -0.565546  -0.012095  2.441963  -0.012  -0.617304  -0.011988  2.433005  -0.012  -0.3136  -0.528466  -0.010316  2.446815  -0.011
O  O83  1  0.47918546  0.35522480  0.88169566  1  -0.600908  0.014587  2.15725  0.015  -0.565624  0.012093  2.441923  0.012  -0.617377  0.011988  2.432958  0.012  -0.31362  -0.528543  0.010315  2.446776  0.011
O  O84  1  0.35521807  0.47917725  0.38169794  1  -0.60097  -0.014659  2.157496  -0.016  -0.565615  -0.012101  2.442091  -0.012  -0.617354  -0.011992  2.433104  -0.012  -0.313575  -0.528524  0.010327  2.446917  0.011
O  O85  1  0.52079579  0.64477898  0.11831204  1  -0.600906  0.014598  2.157421  0.015  -0.565594  0.012101  2.442094  0.012  -0.617349  0.011992  2.433137  0.012  -0.313604  -0.528508  -0.010327  2.446932  -0.011
O  O86  1  0.82330070  0.50288632  0.72174595  1  -0.60035  0.000277  1.954669  0.0  -0.547791  6.5e-05  2.175147  0.0  -0.573105  5.3e-05  2.167238  0.0  -0.30702  -0.529684  7e-06  2.180005  0.0
O  O87  1  0.49714530  0.17670679  0.77824437  1  -0.600499  -0.000272  1.954743  0.0  -0.54782  -6.5e-05  2.175154  0.0  -0.573131  -5.2e-05  2.167246  0.0  -0.306986  -0.529716  -6e-06  2.180015  0.0
O  O88  1  0.17669272  0.49712833  0.27825320  1  -0.600402  0.000268  1.954636  0.0  -0.547816  6.5e-05  2.175089  0.0  -0.573129  5.4e-05  2.167174  0.0  -0.307007  -0.529713  -6e-06  2.179951  0.0
O  O89  1  0.50287564  0.82330343  0.22174882  1  -0.600402  -0.000263  1.954697  0.0  -0.547813  -6.4e-05  2.175174  0.0  -0.573125  -5.1e-05  2.16726  0.0  -0.306996  -0.529712  6e-06  2.180037  0.0
O  O90  1  0.32086381  0.38985550  0.64629467  1  -0.852885  0.000758  1.834842  0.001  -0.813804  0.00065  2.014113  0.001  -0.831125  0.000434  1.976547  0.001  -0.607043  -0.802054  0.000517  2.042609  0.001
O  O91  1  0.61014210  0.67914325  0.85370933  1  -0.852968  -0.000745  1.834852  -0.001  -0.813882  -0.000651  2.014023  -0.001  -0.831201  -0.000435  1.976459  -0.001  -0.607069  -0.802126  -0.000517  2.042529  -0.001
O  O92  1  0.67911760  0.61012127  0.35371127  1  -0.852843  0.000739  1.834886  0.001  -0.813788  0.000651  2.014214  0.001  -0.831104  0.000434  1.976641  0.001  -0.607116  -0.802033  -0.000518  2.042709  -0.001
O  O93  1  0.38986217  0.32087956  0.14629360  1  -0.8528  -0.000801  1.834927  -0.001  -0.813767  -0.000651  2.014253  -0.001  -0.831081  -0.000437  1.976688  -0.001  -0.607035  -0.802014  0.000518  2.042737  0.001
