# generated using pymatgen
data_Zn2MoH9C9N7O6
_symmetry_space_group_name_H-M   'P 1'
_cell_length_a   6.92406511
_cell_length_b   6.87655694
_cell_length_c   15.51845403
_cell_angle_alpha   84.19512765
_cell_angle_beta   80.12987518
_cell_angle_gamma   71.28996830
_symmetry_Int_Tables_number   1
_chemical_formula_structural   Zn2MoH9C9N7O6
_chemical_formula_sum   'Zn4 Mo2 H18 C18 N14 O12'
_cell_volume   688.64166555
_cell_formula_units_Z   2
loop_
 _symmetry_equiv_pos_site_id
 _symmetry_equiv_pos_as_xyz
  1  'x, y, z'
loop_
 _atom_site_type_symbol
 _atom_site_label
 _atom_site_symmetry_multiplicity
 _atom_site_fract_x
 _atom_site_fract_y
 _atom_site_fract_z
 _atom_site_occupancy
 _atom_site_hle17_bader_spin_density
 _atom_site_hle17_ddec_charge
 _atom_site_hle17_ddec_spin_density
 _atom_site_hle17_ddec_sum_bond_order
 _atom_site_hle17_magmom
 _atom_site_hse06_10hf_bader_charge
 _atom_site_hse06_10hf_bader_spin_density
 _atom_site_hse06_10hf_ddec_charge
 _atom_site_hse06_10hf_ddec_spin_density
 _atom_site_hse06_10hf_ddec_sum_bond_order
 _atom_site_hse06_10hf_magmom
 _atom_site_hse06_bader_spin_density
 _atom_site_hse06_ddec_charge
 _atom_site_hse06_ddec_spin_density
 _atom_site_hse06_ddec_sum_bond_order
 _atom_site_hse06_magmom
 _atom_site_pbe_bader_spin_density
 _atom_site_pbe_cm5_charge
 _atom_site_pbe_ddec_charge
 _atom_site_pbe_ddec_spin_density
 _atom_site_pbe_ddec_sum_bond_order
 _atom_site_pbe_magmom
Zn  Zn0  1  0.41712153  0.20047822  0.43573543  1  0  1.165991  0  1.797928  0  1.370752  0  1.021527  0  2.239558  0  0  1.067151  0  2.182207  0  0  0.658799  0.989633  0  2.278726  0
Zn  Zn1  1  0.58287788  0.79952210  0.56426553  1  0  1.16597  0  1.797935  0  1.370754  0  1.021527  0  2.239545  0  0  1.067152  0  2.182193  0  0  0.658809  0.989631  0  2.278712  0
Zn  Zn2  1  0.15917627  0.14584179  0.62520469  1  0  1.207841  0  1.80014  0  1.388978  0  1.077351  0  2.237609  0  0  1.120571  0  2.18004  0  0  0.667248  1.047122  0  2.277099  0
Zn  Zn3  1  0.84082267  0.85416007  0.37479560  1  0  1.207851  0  1.800134  0  1.38908  0  1.077364  0  2.237591  0  0  1.120588  0  2.180018  0  0  0.667246  1.047135  0  2.277081  0
Mo  Mo4  1  0.14532302  0.65699188  0.55129960  1  0  2.190735  0  4.136139  0  2.634712  0  2.155924  0  4.724411  0  0  2.259685  0  4.682816  0  0  1.498733  2.084847  0  4.753328  0
Mo  Mo5  1  0.85467640  0.34300845  0.44870071  1  0  2.190706  0  4.136159  0  2.634717  0  2.1559  0  4.724436  0  0  2.25966  0  4.682841  0  0  1.498717  2.084821  0  4.753355  0
H  H6  1  0.80610258  0.04236040  0.68072500  1  0  0.386815  0  0.939587  0  0.650659  0  0.341221  0  1.027867  0  0  0.352467  0  1.011881  0  0  0.286548  0.333295  0  1.039117  0
H  H7  1  0.19389879  0.95763840  0.31927524  1  0  0.386817  0  0.939584  0  0.650715  0  0.341214  0  1.02788  0  0  0.35246  0  1.011895  0  0  0.286538  0.333288  0  1.039129  0
H  H8  1  0.75614753  0.28755733  0.64273969  1  0  0.433524  0  0.856291  0  0.647165  0  0.404356  0  0.923299  0  0  0.414545  0  0.908124  0  0  0.2977  0.397068  0  0.934191  0
H  H9  1  0.24385335  0.71244300  0.35726052  1  0  0.433526  0  0.856286  0  0.647162  0  0.404352  0  0.923305  0  0  0.414541  0  0.90813  0  0  0.297694  0.397065  0  0.934196  0
H  H10  1  0.19211147  0.58605942  0.89860948  1  0  0.102509  0  0.958617  0  0.092781  0  0.113117  0  1.022352  0  0  0.115477  0  1.021574  0  0  0.108154  0.111418  0  1.023003  0
H  H11  1  0.80788651  0.41394090  0.10138966  1  0  0.102544  0  0.9586  0  0.09286  0  0.113135  0  1.022349  0  0  0.115495  0  1.02157  0  0  0.108176  0.111437  0  1.022998  0
H  H12  1  0.12222676  0.82378804  0.79524734  1  0  0.112641  0  0.942528  0  0.198953  0  0.116583  0  1.01511  0  0  0.120194  0  1.009935  0  0  0.14445  0.113904  0  1.018801  0
H  H13  1  0.87777218  0.17621382  0.20475231  1  0  0.112629  0  0.942502  0  0.198933  0  0.116549  0  1.015129  0  0  0.120159  0  1.009953  0  0  0.144443  0.113869  0  1.018821  0
H  H14  1  0.29481636  0.03752990  0.04454133  1  0  0.109858  0  0.972624  0  0.108296  0  0.114109  0  1.046814  0  0  0.118  0  1.043278  0  0  0.106887  0.111355  0  1.04933  0
H  H15  1  0.70518354  0.96246888  0.95545902  1  0  0.109889  0  0.972627  0  0.108278  0  0.114128  0  1.046827  0  0  0.11802  0  1.043289  0  0  0.106888  0.111374  0  1.049343  0
H  H16  1  0.30688375  0.80300231  0.17606950  1  0  0.10042  0  0.966473  0  0.117308  0  0.108728  0  1.032816  0  0  0.111366  0  1.031187  0  0  0.103127  0.106764  0  1.034118  0
H  H17  1  0.69311472  0.19699647  0.82392966  1  0  0.100384  0  0.966484  0  0.117337  0  0.108686  0  1.032843  0  0  0.111323  0  1.031214  0  0  0.103121  0.10672  0  1.034144  0
H  H18  1  0.21099121  0.35248680  0.02809786  1  0  0.093348  0  0.983127  0  0.07512  0  0.099165  0  1.055359  0  0  0.102424  0  1.05264  0  0  0.100998  0.096784  0  1.057437  0
H  H19  1  0.78900676  0.64751351  0.97190192  1  0  0.093358  0  0.983123  0  0.075132  0  0.099175  0  1.055344  0  0  0.102432  0  1.052624  0  0  0.101005  0.096796  0  1.057421  0
H  H20  1  0.31917787  0.34662486  0.77680219  1  0  0.102876  0  0.92149  0  0.158163  0  0.109654  0  0.987506  0  0  0.11245  0  0.983612  0  0  0.138157  0.107551  0  0.990378  0
H  H21  1  0.68082446  0.65337547  0.22319856  1  0  0.102882  0  0.921499  0  0.158176  0  0.109658  0  0.987508  0  0  0.112453  0  0.983616  0  0  0.138154  0.107555  0  0.990381  0
H  H22  1  0.51429353  0.21278429  0.58850201  1  0  0.404445  0  0.874001  0  0.610781  0  0.380583  0  0.94044  0  0  0.388931  0  0.931835  0  0  0.291694  0.374577  0  0.946611  0
H  H23  1  0.48570589  0.78721604  0.41149830  1  0  0.404426  0  0.874011  0  0.61078  0  0.380555  0  0.940459  0  0  0.388904  0  0.931855  0  0  0.291683  0.374552  0  0.94663  0
C  C24  1  0.24133812  0.82804689  0.96336779  1  0  0.163996  0  3.777717  0  0.249836  0  0.141708  0  4.028318  0  0  0.147  0  4.05033  0  0  0.097725  0.138616  0  4.012891  0
C  C25  1  0.75866422  0.17195345  0.03663231  1  0  0.163993  0  3.777591  0  0.24983  0  0.141736  0  4.028156  0  0  0.147025  0  4.050167  0  0  0.097705  0.138631  0  4.012744  0
C  C26  1  0.21639204  0.63551295  0.95916584  1  0  -0.140359  0  3.741727  0  -0.016732  0  -0.161118  0  3.999519  0  0  -0.165773  0  4.021526  0  0  -0.08917  -0.157909  0  3.984383  0
C  C27  1  0.78360691  0.36448429  0.04083272  1  0  -0.140395  0  3.741745  0  -0.016773  0  -0.161164  0  3.999573  0  0  -0.165815  0  4.021575  0  0  -0.089206  -0.157953  0  3.984442  0
C  C28  1  0.26059704  0.56062743  0.11201880  1  0  0.001184  0  3.789496  0  -0.000259  0  0.019821  0  4.017929  0  0  0.016721  0  4.042054  0  0  -0.00581  0.021748  0  4.001644  0
C  C29  1  0.73939996  0.43937135  0.88797983  1  0  0.001111  0  3.789442  0  -0.000232  0  0.019773  0  4.017868  0  0  0.01667  0  4.041991  0  0  -0.005827  0.021697  0  4.001581  0
C  C30  1  0.27663050  0.41815859  0.18888844  1  0  0.256378  0  3.781088  0  0.94273  0  0.237825  0  4.05632  0  0  0.246609  0  4.072063  0  0  0.208834  0.232027  0  4.045511  0
C  C31  1  0.72336893  0.58184173  0.81111123  1  0  0.256391  0  3.780988  0  0.94271  0  0.237791  0  4.056284  0  0  0.246574  0  4.072025  0  0  0.208811  0.231992  0  4.045475  0
C  C32  1  0.18521089  0.94085151  0.80904211  1  0  0.203716  0  3.591117  0  1.029203  0  0.125466  0  3.861637  0  0  0.1407  0  3.871226  0  0  0.172695  0.115984  0  3.854675  0
C  C33  1  0.81479050  0.05915190  0.19095729  1  0  0.203899  0  3.590984  0  1.029178  0  0.125631  0  3.861547  0  0  0.140866  0  3.871135  0  0  0.172747  0.116147  0  3.854589  0
C  C34  1  0.27487113  0.88826078  0.04130743  1  0  -0.133945  0  3.737989  0  0.049804  0  -0.16308  0  4.011255  0  0  -0.166261  0  4.029664  0  0  -0.088689  -0.160769  0  3.998377  0
C  C35  1  0.72512929  0.11173648  0.95869101  1  0  -0.133968  0  3.73788  0  0.049469  0  -0.163119  0  4.011153  0  0  -0.1663  0  4.029562  0  0  -0.088664  -0.160806  0  3.998278  0
C  C36  1  0.28366888  0.75495612  0.11504509  1  0  -0.066244  0  3.717662  0  -0.021874  0  -0.08974  0  3.968466  0  0  -0.09062  0  3.989304  0  0  -0.083673  -0.088984  0  3.954308  0
C  C37  1  0.71633054  0.24504420  0.88495523  1  0  -0.066126  0  3.717728  0  -0.021601  0  -0.089613  0  3.968511  0  0  -0.090491  0  3.98935  0  0  -0.083643  -0.088854  0  3.954349  0
C  C38  1  0.22644713  0.50316906  0.03303775  1  0  -0.066235  0  3.727526  0  0.012211  0  -0.08868  0  3.974486  0  0  -0.089335  0  3.995552  0  0  -0.080525  -0.088086  0  3.960256  0
C  C39  1  0.77354888  0.49683279  0.96696275  1  0  -0.066275  0  3.727374  0  0.012219  0  -0.08872  0  3.974331  0  0  -0.089367  0  3.995388  0  0  -0.080557  -0.088125  0  3.960101  0
C  C40  1  0.28043650  0.20895953  0.80269867  1  0  0.205857  0  3.682549  0  1.005886  0  0.153432  0  3.973789  0  0  0.164814  0  3.98571  0  0  0.151536  0.146115  0  3.965384  0
C  C41  1  0.71956584  0.79104081  0.19730208  1  0  0.205878  0  3.682611  0  1.005886  0  0.153456  0  3.973824  0  0  0.164839  0  3.985748  0  0  0.151553  0.146137  0  3.965424  0
N  N42  1  0.37368814  0.42549610  0.25660517  1  0  -0.276808  0  2.909913  0  -0.652966  0  -0.258026  0  3.1862  0  0  -0.265567  0  3.198909  0  0  -0.213934  -0.252802  0  3.177474  0
N  N43  1  0.62631177  0.57450269  0.74339453  1  0  -0.276752  0  2.909742  0  -0.652979  0  -0.257948  0  3.186025  0  0  -0.265488  0  3.198733  0  0  -0.213876  -0.252724  0  3.177299  0
N  N44  1  0.21328360  0.09489270  0.75435196  1  0  -0.408934  0  3.231634  0  -1.274283  0  -0.339084  0  3.528723  0  0  -0.360614  0  3.540014  0  0  -0.342801  -0.32459  0  3.520584  0
N  N45  1  0.78671680  0.90510917  0.24564822  1  0  -0.409071  0  3.231742  0  -1.274269  0  -0.3392  0  3.528823  0  0  -0.36073  0  3.540112  0  0  -0.342867  -0.324706  0  3.520688  0
N  N46  1  0.35135438  0.26798323  0.31033773  1  0  -0.141721  0  3.292311  0  -0.232505  0  -0.088204  0  3.596596  0  0  -0.098789  0  3.611705  0  0  -0.120647  -0.080755  0  3.586089  0
N  N47  1  0.64864602  0.73201864  0.68966245  1  0  -0.14177  0  3.292297  0  -0.23253  0  -0.088253  0  3.596586  0  0  -0.098839  0  3.611697  0  0  -0.120684  -0.080804  0  3.586078  0
N  N48  1  0.23655907  0.96122959  0.88708938  1  0  0.013913  0  3.577524  0  -0.892668  0  0.131383  0  3.752657  0  0  0.120375  0  3.776364  0  0  -0.11239  0.136967  0  3.739371  0
N  N49  1  0.76344281  0.03876767  0.11290961  1  0  0.013866  0  3.577517  0  -0.8929  0  0.131344  0  3.752655  0  0  0.120337  0  3.776361  0  0  -0.112363  0.136939  0  3.739356  0
N  N50  1  0.19798548  0.25889371  0.20091449  1  0  -0.284154  0  2.918358  0  -0.662221  0  -0.265886  0  3.198826  0  0  -0.27444  0  3.211601  0  0  -0.211426  -0.259873  0  3.19  0
N  N51  1  0.80201296  0.74110507  0.79908596  1  0  -0.284206  0  2.918379  0  -0.662202  0  -0.265938  0  3.198885  0  0  -0.274494  0  3.211659  0  0  -0.211459  -0.259926  0  3.190059  0
N  N52  1  0.29639155  0.13314954  0.88398436  1  0  -0.245849  0  2.850748  0  -0.684078  0  -0.240311  0  3.117729  0  0  -0.248389  0  3.133195  0  0  -0.205896  -0.234514  0  3.107277  0
N  N53  1  0.70361030  0.86684772  0.11601591  1  0  -0.245839  0  2.850784  0  -0.683817  0  -0.240311  0  3.117776  0  0  -0.248391  0  3.133243  0  0  -0.205887  -0.234514  0  3.107324  0
N  N54  1  0.24699671  0.16818930  0.27745345  1  0  -0.112654  0  3.136722  0  -0.211021  0  -0.076739  0  3.416238  0  0  -0.081038  0  3.431943  0  0  -0.096643  -0.073581  0  3.405486  0
N  N55  1  0.75300417  0.83181103  0.72254740  1  0  -0.112578  0  3.13673  0  -0.210948  0  -0.076667  0  3.416242  0  0  -0.080966  0  3.431949  0  0  -0.09661  -0.07351  0  3.40549  0
O  O56  1  0.11000916  0.46576174  0.63069478  1  0  -0.824795  0  1.611207  0  -0.983923  0  -0.799176  0  1.914541  0  0  -0.833115  0  1.90089  0  0  -0.554413  -0.77608  0  1.92381  0
O  O57  1  0.88999173  0.53423859  0.36930543  1  0  -0.824778  0  1.611184  0  -0.984  0  -0.799172  0  1.914525  0  0  -0.833109  0  1.900872  0  0  -0.554409  -0.776076  0  1.923795  0
O  O58  1  0.31604876  0.53485847  0.45935563  1  0  -0.881684  0  1.65085  0  -1.028856  0  -0.846475  0  1.951408  0  0  -0.881027  0  1.934503  0  0  -0.553042  -0.822838  0  1.962931  0
O  O59  1  0.68395066  0.46514186  0.54064469  1  0  -0.881632  0  1.650788  0  -1.028882  0  -0.846474  0  1.951421  0  0  -0.881027  0  1.934517  0  0  -0.553051  -0.822834  0  1.962941  0
O  O60  1  0.45342125  0.12308260  0.56557893  1  0  -0.971018  0  1.969184  0  -1.254432  0  -0.87317  0  2.247768  0  0  -0.906709  0  2.217887  0  0  -0.567522  -0.849264  0  2.267825  0
O  O61  1  0.54657818  0.87691772  0.43442074  1  0  -0.971004  0  1.969191  0  -1.254409  0  -0.873155  0  2.247805  0  0  -0.906695  0  2.217923  0  0  -0.567516  -0.84925  0  2.267863  0
O  O62  1  0.25529065  0.82179094  0.59672738  1  0  -0.912451  0  1.680519  0  -1.07443  0  -0.867369  0  2.008083  0  0  -0.903684  0  1.985746  0  0  -0.565403  -0.842269  0  2.023088  0
O  O63  1  0.74470878  0.17820939  0.40327294  1  0  -0.912468  0  1.680529  0  -1.07443  0  -0.86736  0  2.008068  0  0  -0.903675  0  1.985732  0  0  -0.565401  -0.84226  0  2.023074  0
O  O64  1  0.09824055  0.20480459  0.48350232  1  0  -0.930094  0  1.739374  0  -1.061369  0  -0.896152  0  2.077885  0  0  -0.933687  0  2.059341  0  0  -0.560373  -0.870198  0  2.090181  0
O  O65  1  0.90175887  0.79519573  0.51649800  1  0  -0.930073  0  1.739327  0  -1.061356  0  -0.896133  0  2.077838  0  0  -0.933668  0  2.059294  0  0  -0.560368  -0.870179  0  2.090133  0
O  O66  1  0.85882210  0.16473916  0.66346917  1  0  -0.859151  0  2.035219  0  -1.291809  0  -0.798757  0  2.276871  0  0  -0.820447  0  2.241382  0  0  -0.580923  -0.783272  0  2.301314  0
O  O67  1  0.14117879  0.83526117  0.33653104  1  0  -0.859135  0  2.035215  0  -1.291804  0  -0.798736  0  2.276868  0  0  -0.820431  0  2.24139  0  0  -0.580906  -0.783254  0  2.301316  0
