# generated using pymatgen
data_AgH14C13(NO)3
_symmetry_space_group_name_H-M   'P 1'
_cell_length_a   4.41653907
_cell_length_b   11.74036488
_cell_length_c   25.02800000
_cell_angle_alpha   90.00000000
_cell_angle_beta   90.00000000
_cell_angle_gamma   90.00000000
_symmetry_Int_Tables_number   1
_chemical_formula_structural   AgH14C13(NO)3
_chemical_formula_sum   'Ag4 H56 C52 N12 O12'
_cell_volume   1297.74635298
_cell_formula_units_Z   4
loop_
 _symmetry_equiv_pos_site_id
 _symmetry_equiv_pos_as_xyz
  1  'x, y, z'
loop_
 _atom_site_type_symbol
 _atom_site_label
 _atom_site_symmetry_multiplicity
 _atom_site_fract_x
 _atom_site_fract_y
 _atom_site_fract_z
 _atom_site_occupancy
 _atom_site_pbe_bader_charge
 _atom_site_pbe_bader_spin_density
 _atom_site_pbe_cm5_charge
 _atom_site_pbe_ddec_charge
 _atom_site_pbe_ddec_spin_density
 _atom_site_pbe_ddec_sum_bond_order
 _atom_site_pbe_magmom
Ag  Ag0  1  0.00000000  0.09336507  0.25000000  1  0.586098  0  0.460191  0.440463  0  1.752142  0
Ag  Ag1  1  0.00000000  0.40663472  0.75000000  1  0.586097  0  0.460183  0.440436  0  1.752157  0
Ag  Ag2  1  0.00000000  0.90663537  0.75000000  1  0.586099  0  0.460192  0.440465  0  1.75215  0
Ag  Ag3  1  0.00000000  0.59336401  0.25000000  1  0.586073  0  0.460173  0.440423  0  1.752187  0
H  H4  1  0.65305660  0.06143847  0.16343655  1  0.45927  0  0.298793  0.295355  0  0.951172  0
H  H5  1  0.34694134  0.06144017  0.33656345  1  0.459293  0  0.298765  0.295397  0  0.951211  0
H  H6  1  0.34694361  0.43856133  0.66343655  1  0.459277  0  0.298794  0.295359  0  0.951187  0
H  H7  1  0.65305660  0.43856133  0.83656345  1  0.45927  0  0.298774  0.295374  0  0.951212  0
H  H8  1  0.34694361  0.93856112  0.83656345  1  0.45928  0  0.298793  0.295368  0  0.951184  0
H  H9  1  0.65305660  0.93856112  0.66343655  1  0.45928  0  0.298777  0.295378  0  0.951212  0
H  H10  1  0.65305660  0.56143911  0.33656385  1  0.459283  0  0.298786  0.295387  0  0.951154  0
H  H11  1  0.34694134  0.56143911  0.16343615  1  0.45928  0  0.298768  0.2954  0  0.951185  0
H  H12  1  0.66332482  0.19628691  0.18433115  1  0.48694  0  0.290921  0.28717  0  0.990074  0
H  H13  1  0.33667765  0.19628777  0.31566805  1  0.486923  0  0.290924  0.287172  0  0.99006  0
H  H14  1  0.33667539  0.30371288  0.68433155  1  0.486943  0  0.290938  0.287207  0  0.990037  0
H  H15  1  0.66332709  0.30371288  0.81566885  1  0.486945  0  0.290922  0.287182  0  0.990078  0
H  H16  1  0.33667312  0.80371267  0.81566845  1  0.486951  0  0.29094  0.287213  0  0.990031  0
H  H17  1  0.66332709  0.80371267  0.68433155  1  0.486951  0  0.290941  0.287209  0  0.990039  0
H  H18  1  0.66332709  0.69628756  0.31566845  1  0.486954  0  0.290938  0.287206  0  0.990032  0
H  H19  1  0.33667312  0.69628671  0.18433155  1  0.486958  0  0.290943  0.287212  0  0.99003  0
H  H20  1  0.06814612  0.32743701  0.15925923  1  0.06293  0  0.100686  0.116144  0  1.015594  0
H  H21  1  0.93184956  0.32743786  0.34074117  1  0.062932  0  0.100694  0.11616  0  1.015556  0
H  H22  1  0.93185409  0.17256278  0.65925923  1  0.062932  0  0.100687  0.11614  0  1.015588  0
H  H23  1  0.06814612  0.17256278  0.84074077  1  0.062938  0  0.100694  0.116146  0  1.015579  0
H  H24  1  0.93185409  0.67256342  0.84074077  1  0.062944  0  0.1007  0.116161  0  1.015554  0
H  H25  1  0.06814612  0.67256342  0.65925923  1  0.06294  0  0.100694  0.116147  0  1.015581  0
H  H26  1  0.06815065  0.82743680  0.34074077  1  0.062943  0  0.100687  0.116177  0  1.015571  0
H  H27  1  0.93184956  0.82743680  0.15925923  1  0.062944  0  0.100694  0.116174  0  1.015576  0
H  H28  1  0.98158760  0.99082951  0.09283642  1  0.085773  0  0.098852  0.105493  0  1.041374  0
H  H29  1  0.01841487  0.99083122  0.40716278  1  0.085816  0  0.098858  0.105506  0  1.041366  0
H  H30  1  0.01841261  0.50917072  0.59283642  1  0.085788  0  0.098844  0.105477  0  1.041385  0
H  H31  1  0.98158760  0.50917072  0.90716358  1  0.085788  0  0.098844  0.105487  0  1.041385  0
H  H32  1  0.01841261  0.00917007  0.90716358  1  0.085798  0  0.098848  0.105503  0  1.041376  0
H  H33  1  0.98158760  0.00917007  0.59283642  1  0.085799  0  0.09885  0.105501  0  1.041374  0
H  H34  1  0.98158760  0.49082972  0.40716358  1  0.085769  0  0.098854  0.105498  0  1.041372  0
H  H35  1  0.01841261  0.49082972  0.09283682  1  0.085791  0  0.098849  0.105499  0  1.041369  0
H  H36  1  0.74292788  0.17921504  0.98839859  1  0.034628  0  0.093112  0.100328  0  1.002545  0
H  H37  1  0.25707233  0.17921504  0.51160101  1  0.034535  0  0.093114  0.100326  0  1.002544  0
H  H38  1  0.25707007  0.32078475  0.48839899  1  0.034533  0  0.093114  0.100328  0  1.002535  0
H  H39  1  0.74292788  0.32078390  0.01160141  1  0.034629  0  0.093118  0.100338  0  1.00254  0
H  H40  1  0.25707233  0.82078454  0.01160141  1  0.034627  0  0.093117  0.100337  0  1.002538  0
H  H41  1  0.74292788  0.82078454  0.48839859  1  0.03462  0  0.093117  0.100339  0  1.002536  0
H  H42  1  0.74292788  0.67921569  0.51160141  1  0.034618  0  0.093113  0.100332  0  1.002545  0
H  H43  1  0.25707233  0.67921569  0.98839859  1  0.034626  0  0.093113  0.100331  0  1.002545  0
H  H44  1  0.32301084  0.04427801  0.01902789  1  0.044923  0  0.094695  0.090402  0  1.037322  0
H  H45  1  0.67698937  0.04427801  0.48097131  1  0.04495  0  0.094663  0.090332  0  1.037318  0
H  H46  1  0.67698937  0.45572263  0.51902789  1  0.044925  0  0.094687  0.090385  0  1.037343  0
H  H47  1  0.32301084  0.45572263  0.98097211  1  0.044773  0  0.094685  0.090389  0  1.037348  0
H  H48  1  0.67698937  0.95572243  0.98097251  1  0.044762  0  0.094668  0.090353  0  1.037266  0
H  H49  1  0.32301311  0.95572243  0.51902789  1  0.04476  0  0.094682  0.090381  0  1.037348  0
H  H50  1  0.32301084  0.54427695  0.48097211  1  0.04476  0  0.094657  0.09033  0  1.037301  0
H  H51  1  0.67698937  0.54427780  0.01902789  1  0.044918  0  0.094656  0.090334  0  1.037289  0
H  H52  1  0.43053848  0.37799762  0.08690946  1  0.048819  0  0.095689  0.093563  0  1.029056  0
H  H53  1  0.56945947  0.37799847  0.41309014  1  0.048788  0  0.095686  0.093542  0  1.02905  0
H  H54  1  0.56946174  0.12200302  0.58690946  1  0.048821  0  0.095694  0.093552  0  1.029068  0
H  H55  1  0.43053848  0.12200302  0.91309054  1  0.04882  0  0.095693  0.093554  0  1.02907  0
H  H56  1  0.56946174  0.62200281  0.91309054  1  0.048813  0  0.095694  0.093554  0  1.029064  0
H  H57  1  0.43053848  0.62200281  0.58690946  1  0.04882  0  0.09569  0.09356  0  1.029064  0
H  H58  1  0.43054074  0.87799741  0.41309094  1  0.048823  0  0.095648  0.093474  0  1.028993  0
H  H59  1  0.56945947  0.87799741  0.08690906  1  0.04883  0  0.095648  0.09348  0  1.028993  0
C  C60  1  0.99677597  0.15671319  0.13022175  1  0.320255  0  0.078628  0.267474  0  4.035205  0
C  C61  1  0.00322424  0.15671489  0.36977785  1  0.320204  0  0.078625  0.267497  0  4.035176  0
C  C62  1  0.00322198  0.34328660  0.63022215  1  0.32025  0  0.078639  0.26748  0  4.035289  0
C  C63  1  0.99677597  0.34328575  0.86977785  1  0.320263  0  0.078628  0.267506  0  4.035141  0
C  C64  1  0.00322198  0.84328640  0.86977785  1  0.320241  0  0.078674  0.26758  0  4.035178  0
C  C65  1  0.99677597  0.84328640  0.63022175  1  0.320238  0  0.07865  0.26755  0  4.035234  0
C  C66  1  0.99677823  0.65671128  0.36977745  1  0.320259  0  0.078701  0.267536  0  4.035297  0
C  C67  1  0.00322198  0.65671128  0.13022255  1  0.320263  0  0.078713  0.267553  0  4.035301  0
C  C68  1  0.12659913  0.26549856  0.12843136  1  -0.039103  0  -0.103502  -0.186193  0  3.97567  0
C  C69  1  0.87339882  0.26549771  0.37156824  1  -0.039107  0  -0.103473  -0.186142  0  3.975628  0
C  C70  1  0.87340108  0.23450208  0.62843136  1  -0.039087  0  -0.103502  -0.186184  0  3.975702  0
C  C71  1  0.12659913  0.23450208  0.87156904  1  -0.039091  0  -0.103491  -0.18617  0  3.975683  0
C  C72  1  0.87340108  0.73450273  0.87156904  1  -0.039091  0  -0.103481  -0.186176  0  3.975698  0
C  C73  1  0.12659913  0.73450273  0.62843136  1  -0.039081  0  -0.103494  -0.186183  0  3.975668  0
C  C74  1  0.12660139  0.76549835  0.37156904  1  -0.039107  0  -0.103532  -0.186281  0  3.975785  0
C  C75  1  0.87339655  0.76549835  0.12843096  1  -0.039107  0  -0.103544  -0.186262  0  3.975777  0
C  C76  1  0.39968626  0.21567217  0.04706409  1  0.04896  0  -0.018363  0.105459  0  3.981286  0
C  C77  1  0.60031395  0.21567302  0.45293551  1  0.048748  0  -0.018369  0.105414  0  3.981309  0
C  C78  1  0.60031395  0.28432847  0.54706409  1  0.048556  0  -0.018368  0.105436  0  3.981318  0
C  C79  1  0.39968626  0.28432847  0.95293591  1  0.048565  0  -0.018369  0.105454  0  3.981314  0
C  C80  1  0.60031395  0.78432826  0.95293591  1  0.048579  0  -0.018361  0.105446  0  3.981337  0
C  C81  1  0.39968626  0.78432826  0.54706409  1  0.048944  0  -0.018359  0.105481  0  3.981284  0
C  C82  1  0.39968853  0.71567282  0.45293591  1  0.048956  0  -0.018378  0.105396  0  3.981272  0
C  C83  1  0.60031168  0.71567282  0.04706409  1  0.048866  0  -0.018367  0.105399  0  3.981275  0
C  C84  1  0.07633126  0.07647548  0.09134250  1  -0.052674  0  -0.10537  -0.186973  0  3.984844  0
C  C85  1  0.92367121  0.07647718  0.40865710  1  -0.052677  0  -0.105372  -0.187016  0  3.984825  0
C  C86  1  0.92366895  0.42352517  0.59134250  1  -0.05268  0  -0.105351  -0.18692  0  3.984829  0
C  C87  1  0.07633126  0.42352517  0.90865790  1  -0.052676  0  -0.105374  -0.186986  0  3.984824  0
C  C88  1  0.92366895  0.92352496  0.90865790  1  -0.052688  0  -0.105388  -0.187036  0  3.984847  0
C  C89  1  0.07633126  0.92352496  0.59134250  1  -0.052689  0  -0.105385  -0.18703  0  3.984835  0
C  C90  1  0.07633579  0.57647612  0.40865790  1  -0.052668  0  -0.105364  -0.186952  0  3.984869  0
C  C91  1  0.92366442  0.57647612  0.09134210  1  -0.052695  0  -0.105361  -0.186954  0  3.984848  0
C  C92  1  0.59415075  0.24999990  0.00000000  1  -0.024013  0  -0.156922  -0.240365  0  3.968442  0
C  C93  1  0.40584946  0.24999990  0.50000000  1  -0.02375  0  -0.156909  -0.240331  0  3.968441  0
C  C94  1  0.40584946  0.74999969  0.00000000  1  -0.02393  0  -0.156929  -0.240372  0  3.968493  0
C  C95  1  0.59415075  0.74999969  0.50000000  1  -0.024399  0  -0.156926  -0.240376  0  3.968475  0
C  C96  1  0.27245768  0.10665341  0.05009629  1  -0.096623  0  -0.098011  -0.134505  0  4.013884  0
C  C97  1  0.72754026  0.10665427  0.44990291  1  -0.096706  0  -0.097975  -0.134398  0  4.013778  0
C  C98  1  0.72754026  0.39334553  0.55009629  1  -0.096613  0  -0.09801  -0.134523  0  4.013934  0
C  C99  1  0.27245768  0.39334553  0.94990371  1  -0.096631  0  -0.098005  -0.134522  0  4.013959  0
C  C100  1  0.72754253  0.89334532  0.94990371  1  -0.096632  0  -0.097993  -0.134464  0  4.01386  0
C  C101  1  0.27245995  0.89334617  0.55009629  1  -0.096616  0  -0.098007  -0.134502  0  4.013933  0
C  C102  1  0.27245768  0.60665321  0.44990331  1  -0.096622  0  -0.097989  -0.134457  0  4.013831  0
C  C103  1  0.72754253  0.60665321  0.05009669  1  -0.096626  0  -0.097987  -0.134448  0  4.013815  0
C  C104  1  0.32672416  0.29358968  0.08743527  1  -0.04651  0  -0.097044  -0.130617  0  4.00191  0
C  C105  1  0.67327606  0.29359139  0.41256433  1  -0.046295  0  -0.097091  -0.130651  0  4.001838  0
C  C106  1  0.67327606  0.20640926  0.58743527  1  -0.04654  0  -0.097039  -0.130577  0  4.001864  0
C  C107  1  0.32672416  0.20640926  0.91256473  1  -0.046549  0  -0.097048  -0.130605  0  4.001881  0
C  C108  1  0.67327606  0.70640905  0.91256433  1  -0.046539  0  -0.097072  -0.130624  0  4.001876  0
C  C109  1  0.32672416  0.70640990  0.58743527  1  -0.046536  0  -0.097044  -0.130624  0  4.001857  0
C  C110  1  0.32672416  0.79358862  0.41256393  1  -0.046519  0  -0.096981  -0.130439  0  4.001788  0
C  C111  1  0.67327606  0.79358862  0.08743607  1  -0.046533  0  -0.097  -0.130487  0  4.001833  0
N  N112  1  0.79310291  0.12828392  0.17209086  1  -1.193726  0  -0.62303  -0.565768  0  3.498804  0
N  N113  1  0.20689956  0.12828477  0.32790834  1  -1.193715  0  -0.623011  -0.565837  0  3.498802  0
N  N114  1  0.20689503  0.37171673  0.67209086  1  -1.193743  0  -0.62307  -0.56584  0  3.498957  0
N  N115  1  0.79310291  0.37171673  0.82790914  1  -1.193735  0  -0.623006  -0.565815  0  3.498859  0
N  N116  1  0.20689503  0.87171652  0.82790914  1  -1.193739  0  -0.623086  -0.565889  0  3.498911  0
N  N117  1  0.79310518  0.87171652  0.67209086  1  -1.193733  0  -0.623056  -0.56588  0  3.498983  0
N  N118  1  0.79310518  0.62828371  0.32790874  1  -1.193735  0  -0.623066  -0.565851  0  3.498826  0
N  N119  1  0.20689503  0.62828371  0.17209126  1  -1.193739  0  -0.623056  -0.56588  0  3.498866  0
N  N120  1  0.50000011  0.88397934  0.25000000  1  0.731418  0  0.090619  0.704977  0  4.426507  0
N  N121  1  0.50000011  0.61602004  0.75000000  1  0.731425  0  0.090516  0.704822  0  4.426665  0
N  N122  1  0.50000011  0.11602024  0.75000000  1  0.731407  0  0.090566  0.704931  0  4.426607  0
N  N123  1  0.50000011  0.38398040  0.25000000  1  0.731505  0  0.090564  0.704918  0  4.426612  0
O  O124  1  0.37852263  0.93739506  0.21129775  1  -0.561443  0  -0.207788  -0.472307  0  2.023187  0
O  O125  1  0.62147758  0.93739591  0.28870225  1  -0.561453  0  -0.207806  -0.472311  0  2.023168  0
O  O126  1  0.62147531  0.56260432  0.71129735  1  -0.561431  0  -0.207736  -0.472225  0  2.023166  0
O  O127  1  0.37852490  0.56260517  0.78870225  1  -0.561468  0  -0.207764  -0.472247  0  2.023231  0
O  O128  1  0.62147531  0.06260453  0.78870225  1  -0.561444  0  -0.20777  -0.472279  0  2.023212  0
O  O129  1  0.37852263  0.06260453  0.71129775  1  -0.56145  0  -0.207771  -0.472289  0  2.023225  0
O  O130  1  0.37852490  0.43739526  0.28870225  1  -0.561477  0  -0.20777  -0.472279  0  2.023228  0
O  O131  1  0.62147531  0.43739526  0.21129775  1  -0.561499  0  -0.207773  -0.472285  0  2.023234  0
O  O132  1  0.50000011  0.77575187  0.25000000  1  -0.497779  0  -0.190407  -0.475129  0  2.092398  0
O  O133  1  0.50000011  0.72424751  0.75000000  1  -0.497762  0  -0.1904  -0.475085  0  2.092399  0
O  O134  1  0.50000011  0.22424772  0.75000040  1  -0.497766  0  -0.190404  -0.475105  0  2.092377  0
O  O135  1  0.50000011  0.27575208  0.25000000  1  -0.497768  0  -0.190401  -0.475099  0  2.092361  0
