# generated using pymatgen
data_ZnH15C23(NO3)2
_symmetry_space_group_name_H-M   'P 1'
_cell_length_a   14.68540370
_cell_length_b   16.30126855
_cell_length_c   24.87594255
_cell_angle_alpha   89.99996142
_cell_angle_beta   89.99999837
_cell_angle_gamma   113.23162906
_symmetry_Int_Tables_number   1
_chemical_formula_structural   ZnH15C23(NO3)2
_chemical_formula_sum   'Zn8 H120 C184 N16 O48'
_cell_volume   5472.21898779
_cell_formula_units_Z   8
loop_
 _symmetry_equiv_pos_site_id
 _symmetry_equiv_pos_as_xyz
  1  'x, y, z'
loop_
 _atom_site_type_symbol
 _atom_site_label
 _atom_site_symmetry_multiplicity
 _atom_site_fract_x
 _atom_site_fract_y
 _atom_site_fract_z
 _atom_site_occupancy
 _atom_site_pbe_bader_charge
 _atom_site_pbe_bader_spin_density
 _atom_site_pbe_cm5_charge
 _atom_site_pbe_ddec_charge
 _atom_site_pbe_ddec_spin_density
 _atom_site_pbe_ddec_sum_bond_order
 _atom_site_pbe_magmom
Zn  Zn0  1  0.91399902  0.63562142  0.96772359  1  1.288653  0  0.689783  0.842378  0  2.383859  0
Zn  Zn1  1  0.58600188  0.86437863  0.46772359  1  1.288651  0  0.689805  0.842399  0  2.383826  0
Zn  Zn2  1  0.08600189  0.36437881  0.03227648  1  1.288655  0  0.689774  0.842342  0  2.383896  0
Zn  Zn3  1  0.41399874  0.13562093  0.53227648  1  1.288659  0  0.689799  0.842401  0  2.383837  0
Zn  Zn4  1  0.07150550  0.85561712  0.97489634  1  1.287556  0  0.68923  0.840724  0  2.364807  0
Zn  Zn5  1  0.42849436  0.64438308  0.47489643  1  1.287554  0  0.689244  0.840743  0  2.364774  0
Zn  Zn6  1  0.92849444  0.14438244  0.02510373  1  1.287555  0  0.689268  0.840757  0  2.364756  0
Zn  Zn7  1  0.57150587  0.35561714  0.52510404  1  1.287558  0  0.689244  0.840735  0  2.364778  0
H  H8  1  0.72131168  0.19366481  0.96165557  1  0.530155  0  0.309891  0.292221  0  0.994332  0
H  H9  1  0.77868798  0.30633490  0.46165640  1  0.530227  0  0.309881  0.29222  0  0.994343  0
H  H10  1  0.27868825  0.80633475  0.03834410  1  0.530157  0  0.309883  0.292235  0  0.994328  0
H  H11  1  0.22131128  0.69366466  0.53834407  1  0.530161  0  0.309873  0.292227  0  0.994362  0
H  H12  1  0.28575915  0.30021230  0.96987715  1  0.525904  0  0.30834  0.289225  0  0.998044  0
H  H13  1  0.21424180  0.19978823  0.46987723  1  0.526003  0  0.308347  0.289247  0  0.997995  0
H  H14  1  0.71424176  0.69978793  0.03012252  1  0.526004  0  0.308354  0.289256  0  0.997979  0
H  H15  1  0.78575872  0.80021266  0.53012325  1  0.525893  0  0.308336  0.289198  0  0.998066  0
H  H16  1  0.69482063  0.51626408  0.95530358  1  0.090059  0  0.116707  0.087816  0  1.00142  0
H  H17  1  0.80517959  0.98373598  0.45530313  1  0.09006  0  0.116704  0.087834  0  1.001405  0
H  H18  1  0.30517931  0.48373547  0.04469649  1  0.090053  0  0.11671  0.087811  0  1.001413  0
H  H19  1  0.19482034  0.01626358  0.54469654  1  0.090031  0  0.116712  0.087832  0  1.001394  0
H  H20  1  0.59397321  0.35252729  0.95383232  1  0.100603  0  0.110134  0.132673  0  1.039062  0
H  H21  1  0.90602578  0.14747243  0.45383241  1  0.100624  0  0.110132  0.13266  0  1.039085  0
H  H22  1  0.40602673  0.64747227  0.04616735  1  0.100617  0  0.110148  0.132621  0  1.039073  0
H  H23  1  0.09397348  0.85252713  0.54616726  1  0.100608  0  0.110151  0.132675  0  1.039071  0
H  H24  1  0.95802606  0.47813962  0.95265766  1  0.103375  0  0.117879  0.090611  0  1.0144  0
H  H25  1  0.54197400  0.02185943  0.45265741  1  0.103371  0  0.117863  0.090577  0  1.014458  0
H  H26  1  0.04197388  0.52185993  0.04734201  1  0.103369  0  0.117875  0.090592  0  1.014425  0
H  H27  1  0.45802565  0.97813946  0.54734226  1  0.103377  0  0.117847  0.090616  0  1.014406  0
H  H28  1  0.86943579  0.31425995  0.95339495  1  0.122808  0  0.111379  0.138705  0  1.030145  0
H  H29  1  0.63056320  0.18573977  0.45339504  1  0.122803  0  0.111368  0.138698  0  1.030144  0
H  H30  1  0.13056415  0.68573961  0.04660471  1  0.122619  0  0.111397  0.138737  0  1.030132  0
H  H31  1  0.36943606  0.81425979  0.54660544  1  0.122745  0  0.111368  0.138688  0  1.030162  0
H  H32  1  0.62561807  0.12930762  0.04737264  1  0.097273  0  0.103789  0.101562  0  1.038231  0
H  H33  1  0.87438184  0.37069260  0.54737254  1  0.097278  0  0.103789  0.101567  0  1.038219  0
H  H34  1  0.37438216  0.87069260  0.95262743  1  0.097284  0  0.103775  0.101548  0  1.038178  0
H  H35  1  0.12561742  0.62930696  0.45262753  1  0.097287  0  0.103784  0.101546  0  1.03819  0
H  H36  1  0.44284009  0.02070372  0.90876556  1  0.081444  0  0.110849  0.112841  0  0.98359  0
H  H37  1  0.05715925  0.47929623  0.40876551  1  0.081441  0  0.11084  0.112817  0  0.983602  0
H  H38  1  0.55716014  0.97929651  0.09123451  1  0.081432  0  0.110835  0.112798  0  0.983578  0
H  H39  1  0.94284030  0.52070400  0.59123416  1  0.081444  0  0.110847  0.112827  0  0.983599  0
H  H40  1  0.38253329  0.41411774  0.92852231  1  0.106259  0  0.107176  0.109418  0  1.016561  0
H  H41  1  0.11746672  0.08588218  0.42852203  1  0.106246  0  0.107164  0.109388  0  1.016584  0
H  H42  1  0.61746694  0.58588249  0.07147816  1  0.106241  0  0.10716  0.109399  0  1.016582  0
H  H43  1  0.88253351  0.91411804  0.57147804  1  0.106246  0  0.10716  0.109376  0  1.016577  0
H  H44  1  0.53866571  0.42021836  0.07604968  1  0.120662  0  0.108017  0.114102  0  1.002426  0
H  H45  1  0.96133418  0.07978182  0.57604970  1  0.120664  0  0.108019  0.114116  0  1.002412  0
H  H46  1  0.46133423  0.57978120  0.92395039  1  0.120676  0  0.108028  0.114122  0  1.002414  0
H  H47  1  0.03866605  0.92021840  0.42395077  1  0.120675  0  0.108028  0.114113  0  1.002445  0
H  H48  1  0.38131329  0.12989014  0.01571957  1  0.142058  0  0.112701  0.137238  0  1.035171  0
H  H49  1  0.11868765  0.37011029  0.51571907  1  0.142093  0  0.112702  0.137254  0  1.035201  0
H  H50  1  0.61868694  0.87011009  0.98427969  1  0.142046  0  0.112697  0.137239  0  1.035171  0
H  H51  1  0.88131288  0.62989060  0.48428060  1  0.142069  0  0.11269  0.137247  0  1.035178  0
H  H52  1  0.14310392  0.18488503  0.94381867  1  0.138861  0  0.110564  0.137588  0  1.032774  0
H  H53  1  0.35689676  0.31511487  0.44381869  1  0.138857  0  0.110557  0.137574  0  1.032784  0
H  H54  1  0.85689631  0.81511520  0.05618100  1  0.138855  0  0.110569  0.137588  0  1.032761  0
H  H55  1  0.64310347  0.68488536  0.55618178  1  0.138848  0  0.110552  0.137553  0  1.032796  0
H  H56  1  0.04726338  0.02151807  0.93722921  1  0.143161  0  0.116134  0.08785  0  1.012727  0
H  H57  1  0.45273759  0.47848250  0.43722955  1  0.143147  0  0.116122  0.087811  0  1.012751  0
H  H58  1  0.95273617  0.97848215  0.06277046  1  0.143171  0  0.116121  0.087827  0  1.01275  0
H  H59  1  0.54726264  0.52151772  0.56277052  1  0.143154  0  0.116126  0.087832  0  1.012734  0
H  H60  1  0.27532030  0.96837407  0.00556822  1  0.112723  0  0.112001  0.085113  0  1.040567  0
H  H61  1  0.22467925  0.53162538  0.50556786  1  0.112728  0  0.111999  0.085126  0  1.040581  0
H  H62  1  0.72467963  0.03162549  0.99443145  1  0.112718  0  0.112009  0.085112  0  1.040615  0
H  H63  1  0.77532030  0.46837485  0.49443141  1  0.11273  0  0.112017  0.085128  0  1.040605  0
H  H64  1  0.89068390  0.95065774  0.88784393  1  0.114521  0  0.10387  0.105823  0  1.016885  0
H  H65  1  0.60931539  0.54934174  0.38784407  1  0.114503  0  0.103862  0.105817  0  1.016866  0
H  H66  1  0.10931604  0.04934182  0.11215654  1  0.114517  0  0.103863  0.10582  0  1.016902  0
H  H67  1  0.39068416  0.45065849  0.61215519  1  0.114508  0  0.103869  0.105798  0  1.016859  0
H  H68  1  0.69616448  0.67289670  0.88369420  1  0.096233  0  0.105749  0.108395  0  0.999573  0
H  H69  1  0.80383550  0.82710278  0.38369422  1  0.096235  0  0.105758  0.108396  0  0.999543  0
H  H70  1  0.30383478  0.32710286  0.11630587  1  0.096236  0  0.105741  0.108377  0  0.999553  0
H  H71  1  0.19616473  0.17289745  0.61630585  1  0.096242  0  0.105764  0.108426  0  0.999522  0
H  H72  1  0.76712481  0.98833475  0.83482523  1  0.077138  0  0.102156  0.117437  0  1.04293  0
H  H73  1  0.73287471  0.51166680  0.33482538  1  0.077172  0  0.102182  0.117458  0  1.042916  0
H  H74  1  0.23287542  0.01166548  0.16517524  1  0.077139  0  0.102156  0.117425  0  1.04293  0
H  H75  1  0.26712552  0.48833343  0.66517428  1  0.077172  0  0.102148  0.117427  0  1.042947  0
H  H76  1  0.57098596  0.71092953  0.83175003  1  0.123231  0  0.106611  0.12053  0  1.038363  0
H  H77  1  0.92901434  0.78907068  0.33175006  1  0.123226  0  0.10662  0.120553  0  1.038314  0
H  H78  1  0.42901389  0.28907136  0.16825044  1  0.123158  0  0.106615  0.120544  0  1.038316  0
H  H79  1  0.07098589  0.21092954  0.66825041  1  0.123226  0  0.106622  0.120544  0  1.038335  0
H  H80  1  0.47506626  0.89168726  0.73164363  1  0.06805  0  0.109428  0.124329  0  0.982947  0
H  H81  1  0.02493413  0.60831258  0.23164375  1  0.068029  0  0.109399  0.124273  0  0.982999  0
H  H82  1  0.52493397  0.10831297  0.26835644  1  0.06804  0  0.10943  0.124328  0  0.982983  0
H  H83  1  0.97506746  0.39168765  0.76835672  1  0.06806  0  0.109398  0.124281  0  0.982957  0
H  H84  1  0.74031897  0.84014379  0.74480536  1  0.079193  0  0.105852  0.122534  0  1.013035  0
H  H85  1  0.75968109  0.65985586  0.24480504  1  0.079203  0  0.105859  0.122551  0  1.013024  0
H  H86  1  0.25968097  0.15985576  0.25519471  1  0.079195  0  0.105854  0.12254  0  1.013031  0
H  H87  1  0.24032021  0.34014370  0.75519462  1  0.079184  0  0.105835  0.1225  0  1.013048  0
H  H88  1  0.48368196  0.88308623  0.63151396  1  0.11061  0  0.104506  0.104379  0  1.017011  0
H  H89  1  0.01631878  0.61691440  0.13151408  1  0.110649  0  0.104519  0.104399  0  1.016993  0
H  H90  1  0.51631798  0.11691333  0.36848571  1  0.110682  0  0.104488  0.104359  0  1.017012  0
H  H91  1  0.98368310  0.38308649  0.86848599  1  0.110676  0  0.104508  0.104401  0  1.016995  0
H  H92  1  0.74865063  0.83309622  0.64510863  1  0.06769  0  0.104447  0.105192  0  0.996233  0
H  H93  1  0.75134851  0.66690289  0.14510832  1  0.067691  0  0.104445  0.105188  0  0.996231  0
H  H94  1  0.25134960  0.16690401  0.35489184  1  0.067663  0  0.104446  0.105172  0  0.996253  0
H  H95  1  0.24865182  0.33309600  0.85489135  1  0.067648  0  0.104437  0.105178  0  0.996246  0
H  H96  1  0.12738923  0.55089693  0.90562747  1  0.111092  0  0.104614  0.107677  0  1.017381  0
H  H97  1  0.37261135  0.94910336  0.40562783  1  0.111088  0  0.104603  0.107663  0  1.017388  0
H  H98  1  0.87261071  0.44910263  0.09437300  1  0.111104  0  0.104622  0.107679  0  1.017381  0
H  H99  1  0.62738888  0.05089687  0.59437264  1  0.111092  0  0.104615  0.107682  0  1.017392  0
H  H100  1  0.28646503  0.83114878  0.87553488  1  0.087261  0  0.107734  0.11139  0  0.997402  0
H  H101  1  0.21353460  0.66885088  0.37553497  1  0.087259  0  0.107728  0.111381  0  0.997389  0
H  H102  1  0.71353559  0.16885078  0.12446519  1  0.087252  0  0.107726  0.111365  0  0.997419  0
H  H103  1  0.78646495  0.33114934  0.62446550  1  0.087255  0  0.107739  0.111392  0  0.997373  0
H  H104  1  0.25487449  0.51779957  0.85335529  1  0.10393  0  0.103604  0.119278  0  1.036125  0
H  H105  1  0.24512612  0.98220078  0.35335483  1  0.103909  0  0.103598  0.119282  0  1.036135  0
H  H106  1  0.74512574  0.48220065  0.14664518  1  0.103915  0  0.103584  0.11926  0  1.036148  0
H  H107  1  0.75487479  0.01779944  0.64664483  1  0.103926  0  0.103601  0.119281  0  1.036133  0
H  H108  1  0.41674580  0.79823700  0.82483048  1  0.102277  0  0.108635  0.124991  0  1.015623  0
H  H109  1  0.08325512  0.70176406  0.32483095  1  0.102294  0  0.108652  0.125029  0  1.015631  0
H  H110  1  0.58325414  0.20176256  0.17516959  1  0.102429  0  0.108619  0.124941  0  1.015651  0
H  H111  1  0.91674608  0.29823683  0.67516952  1  0.102205  0  0.108628  0.124994  0  1.015629  0
H  H112  1  0.26424220  0.66070812  0.74860787  1  0.097025  0  0.106662  0.123229  0  1.010393  0
H  H113  1  0.23575750  0.83929169  0.24860748  1  0.097047  0  0.106649  0.123213  0  1.010429  0
H  H114  1  0.73575774  0.33929144  0.25139260  1  0.097044  0  0.106632  0.123163  0  1.010419  0
H  H115  1  0.76424137  0.16070853  0.75139219  1  0.097015  0  0.106656  0.123224  0  1.010378  0
H  H116  1  0.53857576  0.62339409  0.74074285  1  0.070471  0  0.110383  0.126118  0  0.984081  0
H  H117  1  0.96142430  0.87660557  0.24074244  1  0.070482  0  0.110391  0.126147  0  0.984134  0
H  H118  1  0.46142379  0.37660614  0.25925763  1  0.070467  0  0.110402  0.126158  0  0.984109  0
H  H119  1  0.03857534  0.12339332  0.75925723  1  0.070485  0  0.110384  0.126126  0  0.984055  0
H  H120  1  0.26171284  0.66926254  0.64864864  1  0.091197  0  0.106154  0.110618  0  0.991637  0
H  H121  1  0.23828624  0.83073740  0.14864825  1  0.091207  0  0.10615  0.110631  0  0.991622  0
H  H122  1  0.73828671  0.33073769  0.35135143  1  0.091211  0  0.106103  0.110581  0  0.991589  0
H  H123  1  0.76171263  0.16926282  0.85135142  1  0.091197  0  0.106148  0.110612  0  0.991642  0
H  H124  1  0.53600002  0.63408208  0.64049257  1  0.085721  0  0.105863  0.105747  0  1.008507  0
H  H125  1  0.96400009  0.86591770  0.14049217  1  0.085703  0  0.105872  0.10579  0  1.00852  0
H  H126  1  0.46399953  0.36591814  0.35950790  1  0.085701  0  0.105858  0.105774  0  1.008455  0
H  H127  1  0.03599916  0.13408186  0.85950750  1  0.08573  0  0.105868  0.105752  0  1.008511  0
C  C128  1  0.73041615  0.46895876  0.95381018  1  0.507851  0  0.04554  0.108634  0  3.960917  0
C  C129  1  0.76958381  0.03104162  0.45380952  1  0.507863  0  0.045509  0.108543  0  3.960941  0
C  C130  1  0.26958408  0.53104146  0.04618989  1  0.507843  0  0.045547  0.108633  0  3.960876  0
C  C131  1  0.23041642  0.96895860  0.54619014  1  0.5079  0  0.04556  0.108659  0  3.960868  0
C  C132  1  0.67416812  0.37784975  0.95319274  1  0.057076  0  -0.090098  -0.225424  0  3.91824  0
C  C133  1  0.82583155  0.12214996  0.45319244  1  0.057047  0  -0.09003  -0.225311  0  3.918223  0
C  C134  1  0.32583114  0.62214980  0.04680693  1  0.057053  0  -0.090108  -0.225376  0  3.918173  0
C  C135  1  0.17416839  0.87784959  0.54680723  1  0.05707  0  -0.090105  -0.225424  0  3.91823  0
C  C136  1  0.87730787  0.44791447  0.95293102  1  0.400581  0  0.041282  0.103919  0  3.963139  0
C  C137  1  0.62269150  0.05208458  0.45293116  1  0.400449  0  0.04128  0.103902  0  3.963212  0
C  C138  1  0.12269206  0.55208509  0.04706865  1  0.400591  0  0.041279  0.10389  0  3.963188  0
C  C139  1  0.37730814  0.94791431  0.54706891  1  0.400587  0  0.041299  0.103887  0  3.963159  0
C  C140  1  0.82737913  0.35624735  0.95298531  1  0.123743  0  -0.092465  -0.233471  0  3.923503  0
C  C141  1  0.67262054  0.14375236  0.45298541  1  0.123761  0  -0.092473  -0.233462  0  3.923503  0
C  C142  1  0.17262110  0.64375287  0.04701436  1  0.123939  0  -0.092517  -0.233511  0  3.923469  0
C  C143  1  0.32737843  0.85624653  0.54701466  1  0.1238  0  -0.092464  -0.23344  0  3.923546  0
C  C144  1  0.72296304  0.31885845  0.95370851  1  0.308867  0  0.126861  0.307688  0  4.000736  0
C  C145  1  0.77703662  0.18114127  0.45370819  1  0.308889  0  0.12688  0.30771  0  4.000727  0
C  C146  1  0.27703689  0.68114111  0.04629196  1  0.308874  0  0.126891  0.307747  0  4.000666  0
C  C147  1  0.22296263  0.81885829  0.54629148  1  0.308843  0  0.126844  0.307665  0  4.000856  0
C  C148  1  0.57497455  0.17542546  0.95007853  1  1.374775  0  0.250137  0.491145  0  4.073795  0
C  C149  1  0.92502482  0.32457360  0.45007895  1  1.374772  0  0.250161  0.491187  0  4.073771  0
C  C150  1  0.42502538  0.82457410  0.04992154  1  1.37478  0  0.250173  0.491216  0  4.073856  0
C  C151  1  0.07497541  0.67542663  0.54992193  1  1.374787  0  0.250153  0.491162  0  4.073923  0
C  C152  1  0.53973106  0.08408943  0.97483982  1  -0.064302  0  -0.006458  -0.022113  0  3.961612  0
C  C153  1  0.96026927  0.41591026  0.47483980  1  -0.064353  0  -0.006491  -0.022203  0  3.961637  0
C  C154  1  0.46026985  0.91591080  0.02516025  1  -0.064312  0  -0.006511  -0.022267  0  3.961724  0
C  C155  1  0.03973164  0.58408996  0.52516027  1  -0.064289  0  -0.006501  -0.022206  0  3.961677  0
C  C156  1  0.57117713  0.07225247  0.02652038  1  -0.059872  0  -0.080133  -0.098593  0  3.956625  0
C  C157  1  0.92882348  0.42774778  0.52652025  1  -0.059869  0  -0.080138  -0.098554  0  3.956638  0
C  C158  1  0.42882379  0.92774776  0.97347969  1  -0.059924  0  -0.080107  -0.098485  0  3.956572  0
C  C159  1  0.07117607  0.57225245  0.47347982  1  -0.059896  0  -0.080113  -0.098507  0  3.956583  0
C  C160  1  0.46794379  0.01106582  0.94860646  1  0.008341  0  -0.075385  -0.091106  0  3.967139  0
C  C161  1  0.03205553  0.48893407  0.44860601  1  0.008352  0  -0.075386  -0.091052  0  3.967114  0
C  C162  1  0.53205615  0.98893373  0.05139401  1  0.008328  0  -0.075357  -0.090941  0  3.967083  0
C  C163  1  0.96794305  0.51106549  0.55139366  1  0.008326  0  -0.075381  -0.091047  0  3.967119  0
C  C164  1  0.43381156  0.45130910  0.95993699  1  -0.125047  0  -0.082169  -0.100876  0  3.971266  0
C  C165  1  0.06618940  0.04869145  0.45993673  1  -0.125061  0  -0.082133  -0.100812  0  3.971223  0
C  C166  1  0.56618964  0.54869179  0.04006308  1  -0.125005  0  -0.082114  -0.10084  0  3.971239  0
C  C167  1  0.93381083  0.95130878  0.54006334  1  -0.125019  0  -0.082129  -0.10077  0  3.971195  0
C  C168  1  0.52190539  0.45607938  0.04309816  1  0.001927  0  -0.078805  -0.09205  0  3.964034  0
C  C169  1  0.97809452  0.04392084  0.54309780  1  0.001918  0  -0.078803  -0.092116  0  3.964001  0
C  C170  1  0.47809484  0.54392084  0.95690231  1  0.001914  0  -0.078787  -0.092039  0  3.964014  0
C  C171  1  0.02190503  0.95607938  0.45690228  1  0.001927  0  -0.07879  -0.092072  0  3.964011  0
C  C172  1  0.45511632  0.40665601  0.00330270  1  -0.019242  0  -0.011186  -0.035015  0  3.988169  0
C  C173  1  0.04488365  0.09334377  0.50330232  1  -0.019233  0  -0.011184  -0.034987  0  3.988113  0
C  C174  1  0.54488391  0.59334422  0.99669737  1  -0.01926  0  -0.011205  -0.035045  0  3.98817  0
C  C175  1  0.95511561  0.90665579  0.49669776  1  -0.019241  0  -0.01119  -0.035024  0  3.98811  0
C  C176  1  0.41396561  0.30710545  0.00837951  1  1.375106  0  0.246101  0.479626  0  4.098903  0
C  C177  1  0.08603435  0.19289432  0.50837909  1  1.375012  0  0.246101  0.479617  0  4.098928  0
C  C178  1  0.58603432  0.69289411  0.99162056  1  1.375098  0  0.246079  0.479609  0  4.098906  0
C  C179  1  0.91396520  0.80710590  0.49162098  1  1.375091  0  0.246107  0.479628  0  4.09887  0
C  C180  1  0.27193956  0.17141442  0.97973168  1  0.360984  0  0.12576  0.303714  0  3.995586  0
C  C181  1  0.22806110  0.32858544  0.47973130  1  0.360892  0  0.125775  0.303675  0  3.995678  0
C  C182  1  0.72806067  0.82858581  0.02026759  1  0.361223  0  0.125739  0.30363  0  3.995605  0
C  C183  1  0.77193981  0.67141479  0.52026877  1  0.360924  0  0.125772  0.303688  0  3.995629  0
C  C184  1  0.30875048  0.10851645  0.99740178  1  0.042648  0  -0.088206  -0.217267  0  3.926318  0
C  C185  1  0.19125017  0.39148338  0.49740177  1  0.042647  0  -0.088214  -0.217269  0  3.926385  0
C  C186  1  0.69124975  0.89148377  0.00259749  1  0.042631  0  -0.088208  -0.217282  0  3.92632  0
C  C187  1  0.80875006  0.60851685  0.50259830  1  0.042648  0  -0.088194  -0.217272  0  3.926327  0
C  C188  1  0.17636614  0.13927401  0.95693014  1  -0.034325  0  -0.093458  -0.234342  0  3.921702  0
C  C189  1  0.32363385  0.36072587  0.45693014  1  -0.034259  0  -0.093438  -0.234308  0  3.921703  0
C  C190  1  0.82363409  0.86072621  0.04306953  1  -0.034575  0  -0.093443  -0.234279  0  3.921625  0
C  C191  1  0.67636570  0.63927436  0.54306993  1  -0.034276  0  -0.093442  -0.23429  0  3.921679  0
C  C192  1  0.12235286  0.04827048  0.95331824  1  0.454722  0  0.041376  0.105122  0  3.962521  0
C  C193  1  0.37764782  0.45172940  0.45331860  1  0.4547  0  0.041368  0.105158  0  3.962454  0
C  C194  1  0.87764737  0.95172974  0.04668143  1  0.454693  0  0.04138  0.105104  0  3.962438  0
C  C195  1  0.62235241  0.54827082  0.54668147  1  0.45473  0  0.041339  0.105078  0  3.962428  0
C  C196  1  0.24983003  0.01881404  0.99163076  1  0.446794  0  0.040328  0.103833  0  3.96246  0
C  C197  1  0.25016995  0.48118580  0.49163071  1  0.446792  0  0.040309  0.103786  0  3.962445  0
C  C198  1  0.75016991  0.98118552  0.00836851  1  0.446779  0  0.040347  0.103855  0  3.962443  0
C  C199  1  0.74982960  0.51881443  0.50836896  1  0.446804  0  0.040345  0.103834  0  3.962398  0
C  C200  1  0.87518108  0.78589607  0.91839718  1  1.549836  0  0.224487  0.60692  0  4.169763  0
C  C201  1  0.62481946  0.71410471  0.41839725  1  1.549829  0  0.224422  0.606793  0  4.169934  0
C  C202  1  0.12481915  0.21410416  0.08160289  1  1.549848  0  0.224495  0.606946  0  4.169774  0
C  C203  1  0.37518077  0.28589552  0.58160282  1  1.549837  0  0.22449  0.606926  0  4.169764  0
C  C204  1  0.80106272  0.80926010  0.88823550  1  0.000777  0  -0.02534  -0.0639  0  3.991295  0
C  C205  1  0.69893687  0.69074004  0.38823558  1  0.000762  0  -0.025348  -0.063911  0  3.991369  0
C  C206  1  0.19893722  0.19073945  0.11176497  1  0.000628  0  -0.02539  -0.064027  0  3.991565  0
C  C207  1  0.30106239  0.30925952  0.61176409  1  0.001148  0  -0.025392  -0.063968  0  3.991371  0
C  C208  1  0.82077403  0.89844121  0.87541748  1  -0.064306  0  -0.079501  -0.06347  0  3.96817  0
C  C209  1  0.67922517  0.60155962  0.37541719  1  -0.064239  0  -0.079503  -0.063492  0  3.968133  0
C  C210  1  0.17922620  0.10155902  0.12458299  1  -0.064293  0  -0.07947  -0.063424  0  3.968235  0
C  C211  1  0.32077438  0.39844061  0.62458207  1  -0.064283  0  -0.079475  -0.063413  0  3.968076  0
C  C212  1  0.71079696  0.74168530  0.87287490  1  -0.067112  0  -0.08011  -0.062839  0  3.973552  0
C  C213  1  0.78920264  0.75831486  0.37287494  1  -0.067114  0  -0.080092  -0.062779  0  3.973463  0
C  C214  1  0.28920191  0.25831493  0.12712558  1  -0.066976  0  -0.080076  -0.062752  0  3.973516  0
C  C215  1  0.21079691  0.24168536  0.62712513  1  -0.067497  0  -0.080107  -0.062846  0  3.973544  0
C  C216  1  0.75228558  0.91976445  0.84622501  1  0.014336  0  -0.096569  -0.191899  0  3.977096  0
C  C217  1  0.74771403  0.58023574  0.34622433  1  0.014275  0  -0.096575  -0.191832  0  3.977001  0
C  C218  1  0.24771465  0.08023578  0.15377546  1  0.014322  0  -0.09656  -0.191848  0  3.977052  0
C  C219  1  0.25228552  0.41976448  0.65377493  1  0.014323  0  -0.096543  -0.191878  0  3.977033  0
C  C220  1  0.64157143  0.76232360  0.84401689  1  0.005192  0  -0.094587  -0.185694  0  3.976984  0
C  C221  1  0.85842886  0.73767659  0.34401695  1  0.0052  0  -0.094629  -0.185751  0  3.976977  0
C  C222  1  0.35842811  0.23767662  0.15598358  1  0.005273  0  -0.094617  -0.185733  0  3.976917  0
C  C223  1  0.14157137  0.26232363  0.65598353  1  0.005196  0  -0.094622  -0.185747  0  3.976961  0
C  C224  1  0.66424012  0.85110816  0.83025096  1  0.393122  0  0.086829  0.263468  0  4.021712  0
C  C225  1  0.83575950  0.64889205  0.33025065  1  0.39313  0  0.086854  0.263429  0  4.021733  0
C  C226  1  0.33575943  0.14889206  0.16974911  1  0.393119  0  0.086838  0.263448  0  4.021735  0
C  C227  1  0.16424005  0.35110817  0.66974902  1  0.393126  0  0.086867  0.263561  0  4.021605  0
C  C228  1  0.60720088  0.86690521  0.74389805  1  0.422707  0  0.091927  0.274696  0  4.040472  0
C  C229  1  0.89279917  0.63309444  0.24389815  1  0.422715  0  0.091907  0.274687  0  4.04051  0
C  C230  1  0.39279935  0.13309502  0.25610202  1  0.42279  0  0.091924  0.274708  0  4.040456  0
C  C231  1  0.10720174  0.36690578  0.75610192  1  0.422788  0  0.091894  0.274664  0  4.040482  0
C  C232  1  0.53484860  0.87926555  0.71214769  1  -0.020636  0  -0.100871  -0.203666  0  3.993974  0
C  C233  1  0.96515147  0.62073414  0.21214739  1  -0.020613  0  -0.100892  -0.203669  0  3.994019  0
C  C234  1  0.46515201  0.12073401  0.28785238  1  -0.020633  0  -0.100858  -0.20366  0  3.993963  0
C  C235  1  0.03484944  0.37926608  0.78785308  1  -0.020602  0  -0.100855  -0.203587  0  3.993899  0
C  C236  1  0.68458561  0.85013020  0.71997494  1  -0.014855  0  -0.110207  -0.226834  0  4.013846  0
C  C237  1  0.81541446  0.64986948  0.21997463  1  -0.014858  0  -0.110213  -0.226853  0  4.013831  0
C  C238  1  0.31541492  0.14987070  0.28002513  1  -0.014921  0  -0.110223  -0.226871  0  4.013869  0
C  C239  1  0.18458615  0.35013007  0.78002504  1  -0.014933  0  -0.110189  -0.226785  0  4.013825  0
C  C240  1  0.54002081  0.87453712  0.65660769  1  -0.019743  0  -0.078071  -0.058685  0  3.984248  0
C  C241  1  0.95997959  0.62546331  0.15660739  1  -0.019798  0  -0.078058  -0.058698  0  3.984182  0
C  C242  1  0.45998039  0.12546377  0.34339238  1  -0.019793  0  -0.078087  -0.058704  0  3.984206  0
C  C243  1  0.04002103  0.37453625  0.84339268  1  -0.019815  0  -0.078085  -0.058782  0  3.984218  0
C  C244  1  0.68888688  0.84609071  0.66422469  1  -0.033884  0  -0.082411  -0.064942  0  4.005312  0
C  C245  1  0.81111293  0.65390837  0.16422478  1  -0.033883  0  -0.082422  -0.064978  0  4.005318  0
C  C246  1  0.31111462  0.15391085  0.33577538  1  -0.033719  0  -0.082405  -0.064911  0  4.005297  0
C  C247  1  0.18888710  0.34608985  0.83577529  1  -0.033754  0  -0.082379  -0.064945  0  4.005258  0
C  C248  1  0.61729642  0.85836360  0.63179335  1  0.000138  0  -0.032428  -0.075804  0  4.011927  0
C  C249  1  0.88270370  0.64163619  0.13179345  1  0.000125  0  -0.032403  -0.075696  0  4.011814  0
C  C250  1  0.38270507  0.14163796  0.36820672  1  -3.1e-05  0  -0.032408  -0.075747  0  4.01183  0
C  C251  1  0.11729731  0.35836270  0.86820662  1  1e-05  0  -0.032421  -0.075731  0  4.011738  0
C  C252  1  0.62471963  0.85610587  0.57220767  1  1.53517  0  0.200347  0.572269  0  4.215892  0
C  C253  1  0.87528150  0.64389466  0.07220777  1  1.535172  0  0.200336  0.57219  0  4.215879  0
C  C254  1  0.37528128  0.14389435  0.42779240  1  1.535169  0  0.200323  0.572204  0  4.21586  0
C  C255  1  0.12472009  0.35610557  0.92779230  1  1.53518  0  0.200321  0.572228  0  4.215887  0
C  C256  1  0.12101417  0.71276198  0.92235404  1  1.563051  0  0.223575  0.604934  0  4.173607  0
C  C257  1  0.37898610  0.78723762  0.42235407  1  1.563052  0  0.223517  0.604788  0  4.173747  0
C  C258  1  0.87898644  0.28723757  0.07764563  1  1.562992  0  0.223561  0.604871  0  4.173535  0
C  C259  1  0.62101413  0.21276261  0.57764600  1  1.563054  0  0.22356  0.604898  0  4.173662  0
C  C260  1  0.19942923  0.69314576  0.89363553  1  -0.012134  0  -0.023669  -0.058505  0  3.984506  0
C  C261  1  0.30057135  0.80685454  0.39363596  1  -0.012155  0  -0.023652  -0.058451  0  3.984581  0
C  C262  1  0.80057138  0.30685380  0.10636494  1  -0.012145  0  -0.023646  -0.058454  0  3.984545  0
C  C263  1  0.69942888  0.19314568  0.60636492  1  -0.012128  0  -0.023647  -0.058452  0  3.984493  0
C  C264  1  0.19087976  0.60484118  0.88812742  1  -0.040447  0  -0.077834  -0.059668  0  3.955755  0
C  C265  1  0.30912054  0.89515846  0.38812700  1  -0.040391  0  -0.077801  -0.059617  0  3.955707  0
C  C266  1  0.80912086  0.39515837  0.11187346  1  -0.040377  0  -0.077792  -0.059608  0  3.955696  0
C  C267  1  0.69087940  0.10484110  0.61187307  1  -0.040437  0  -0.077827  -0.059695  0  3.955763  0
C  C268  1  0.28130076  0.76294564  0.87125646  1  -0.006171  0  -0.080356  -0.072446  0  3.982769  0
C  C269  1  0.21869984  0.73705469  0.37125692  1  -0.006152  0  -0.080335  -0.072398  0  3.982782  0
C  C270  1  0.71870015  0.23705458  0.12874361  1  -0.006177  0  -0.080371  -0.072474  0  3.982802  0
C  C271  1  0.78130039  0.26294554  0.62874395  1  -0.006155  0  -0.080365  -0.072424  0  3.982735  0
C  C272  1  0.26177341  0.58614022  0.85940529  1  0.018214  0  -0.09433  -0.187077  0  3.973216  0
C  C273  1  0.23822680  0.91386079  0.35940527  1  0.018167  0  -0.094326  -0.187088  0  3.973198  0
C  C274  1  0.73822652  0.41385934  0.14059518  1  0.018187  0  -0.094343  -0.187104  0  3.973203  0
C  C275  1  0.76177372  0.08614010  0.64059480  1  0.018207  0  -0.09432  -0.187052  0  3.973249  0
C  C276  1  0.35285054  0.74505112  0.84270438  1  -0.026844  0  -0.093282  -0.187785  0  3.975718  0
C  C277  1  0.14714940  0.75494925  0.34270443  1  -0.026837  0  -0.09332  -0.187901  0  3.975802  0
C  C278  1  0.64714940  0.25494844  0.15729609  1  -0.027002  0  -0.093245  -0.187678  0  3.975614  0
C  C279  1  0.85285083  0.24505097  0.65729604  1  -0.026774  0  -0.093303  -0.187858  0  3.97573  0
C  C280  1  0.34069918  0.65624653  0.83623430  1  0.349558  0  0.087166  0.258742  0  4.033287  0
C  C281  1  0.15930076  0.84375385  0.33623431  1  0.349622  0  0.087147  0.258748  0  4.033382  0
C  C282  1  0.65930075  0.34375303  0.16376618  1  0.349557  0  0.087161  0.258722  0  4.033327  0
C  C283  1  0.84069947  0.15624638  0.66376576  1  0.349552  0  0.087143  0.25873  0  4.033389  0
C  C284  1  0.40209740  0.64196165  0.75033685  1  0.34314  0  0.091792  0.272523  0  4.036647  0
C  C285  1  0.09790230  0.85803817  0.25033645  1  0.34315  0  0.091789  0.27253  0  4.036677  0
C  C286  1  0.59790215  0.35803858  0.24966362  1  0.343132  0  0.091807  0.272561  0  4.036751  0
C  C287  1  0.90209696  0.14196139  0.74966362  1  0.343139  0  0.091797  0.27247  0  4.036758  0
C  C288  1  0.32365143  0.65490546  0.72488535  1  -0.042707  0  -0.108812  -0.226215  0  4.012558  0
C  C289  1  0.17634760  0.84509439  0.22488496  1  -0.042694  0  -0.10876  -0.226164  0  4.012554  0
C  C290  1  0.67634744  0.34509477  0.27511472  1  -0.042685  0  -0.108773  -0.22614  0  4.012594  0
C  C291  1  0.82365098  0.15490517  0.77511471  1  -0.04271  0  -0.108822  -0.226209  0  4.012554  0
C  C292  1  0.47834126  0.63342856  0.72011046  1  0.034926  0  -0.100631  -0.204127  0  3.995397  0
C  C293  1  0.02165777  0.86657129  0.22011006  1  0.034886  0  -0.100636  -0.204169  0  3.995584  0
C  C294  1  0.52165829  0.36657166  0.27989001  1  0.034889  0  -0.100625  -0.204142  0  3.995543  0
C  C295  1  0.97834051  0.13342760  0.77988961  1  0.034917  0  -0.100592  -0.204043  0  3.995376  0
C  C296  1  0.32252518  0.65981219  0.66905510  1  -0.002657  0  -0.080267  -0.061274  0  3.991933  0
C  C297  1  0.17747456  0.84018772  0.16905471  1  -0.002675  0  -0.08027  -0.061252  0  3.991929  0
C  C298  1  0.67747437  0.34018803  0.33094537  1  -0.002662  0  -0.080243  -0.061268  0  3.99191  0
C  C299  1  0.82252469  0.15981184  0.83094495  1  -0.002679  0  -0.080273  -0.06129  0  3.991937  0
C  C300  1  0.47645227  0.63919981  0.66447277  1  0.027038  0  -0.077864  -0.060277  0  3.987017  0
C  C301  1  0.02354650  0.86079944  0.16447318  1  0.027058  0  -0.077848  -0.060269  0  3.98709  0
C  C302  1  0.52354728  0.36080041  0.33552650  1  0.027053  0  -0.077839  -0.060286  0  3.986967  0
C  C303  1  0.97645178  0.13919945  0.83552730  1  0.027047  0  -0.077857  -0.060287  0  3.986984  0
C  C304  1  0.39863803  0.65227848  0.63815336  1  -0.09534  0  -0.030031  -0.071946  0  4.011435  0
C  C305  1  0.10136242  0.84772148  0.13815257  1  -0.095326  0  -0.030066  -0.072055  0  4.011549  0
C  C306  1  0.60136220  0.34772175  0.36184711  1  -0.095339  0  -0.030035  -0.071972  0  4.01147  0
C  C307  1  0.89863684  0.15227808  0.86184670  1  -0.095355  0  -0.030035  -0.071945  0  4.011432  0
C  C308  1  0.39497301  0.65593284  0.57850858  1  1.556413  0  0.20176  0.570407  0  4.205378  0
C  C309  1  0.10502776  0.84406785  0.07850819  1  1.556412  0  0.201714  0.570293  0  4.20521  0
C  C310  1  0.60502654  0.34406738  0.42149149  1  1.556403  0  0.201764  0.570409  0  4.205368  0
C  C311  1  0.89497276  0.15593304  0.92149107  1  1.556403  0  0.201728  0.570335  0  4.205297  0
N  N312  1  0.83054673  0.50465803  0.95371450  1  -1.265795  0  -0.34743  -0.266815  0  3.583283  0
N  N313  1  0.66945282  0.99534203  0.45371444  1  -1.2657  0  -0.347416  -0.266757  0  3.583311  0
N  N314  1  0.16945350  0.49534219  0.04628557  1  -1.265802  0  -0.347414  -0.266743  0  3.58332  0
N  N315  1  0.33054644  0.00465753  0.54628563  1  -1.265803  0  -0.347431  -0.266816  0  3.583311  0
N  N316  1  0.67491357  0.22712724  0.95827479  1  -1.278551  0  -0.392969  -0.388955  0  3.537307  0
N  N317  1  0.82508638  0.27287313  0.45827523  1  -1.278648  0  -0.393004  -0.389047  0  3.537352  0
N  N318  1  0.32508666  0.77287298  0.04172488  1  -1.278559  0  -0.393038  -0.389116  0  3.537414  0
N  N319  1  0.17491346  0.72712776  0.54172524  1  -1.278573  0  -0.392986  -0.38902  0  3.537434  0
N  N320  1  0.32359514  0.26287925  0.98362860  1  -1.277715  0  -0.388564  -0.375382  0  3.539946  0
N  N321  1  0.17640581  0.23712127  0.48362866  1  -1.27782  0  -0.388559  -0.375335  0  3.539892  0
N  N322  1  0.67640577  0.73712098  0.01637067  1  -1.277766  0  -0.388556  -0.37533  0  3.539882  0
N  N323  1  0.82359472  0.76287962  0.51637141  1  -1.277726  0  -0.388574  -0.375318  0  3.539932  0
N  N324  1  0.15789801  0.98780419  0.97022633  1  -1.266796  0  -0.348011  -0.263178  0  3.58083  0
N  N325  1  0.34210185  0.51219602  0.47022609  1  -1.266764  0  -0.348003  -0.263179  0  3.58081  0
N  N326  1  0.84210154  0.01219604  0.02977333  1  -1.266769  0  -0.348023  -0.263147  0  3.580722  0
N  N327  1  0.65789770  0.48780420  0.52977318  1  -1.266788  0  -0.34802  -0.263157  0  3.580732  0
O  O328  1  0.51827564  0.20176954  0.92599059  1  -1.108622  0  -0.283127  -0.454463  0  2.074403  0
O  O329  1  0.98172404  0.29823022  0.42599102  1  -1.10861  0  -0.283102  -0.454418  0  2.074376  0
O  O330  1  0.48172459  0.79823069  0.07400908  1  -1.108626  0  -0.283074  -0.454399  0  2.07445  0
O  O331  1  0.01827512  0.70177068  0.57400865  1  -1.108642  0  -0.283063  -0.454383  0  2.074536  0
O  O332  1  0.45977373  0.26989121  0.03330119  1  -1.120752  0  -0.278309  -0.457683  0  2.123648  0
O  O333  1  0.04022515  0.23010920  0.53330034  1  -1.120667  0  -0.278338  -0.457728  0  2.123616  0
O  O334  1  0.54022582  0.73010902  0.96669888  1  -1.120752  0  -0.278341  -0.457732  0  2.123605  0
O  O335  1  0.95977372  0.76989103  0.46669892  1  -1.120723  0  -0.27833  -0.457718  0  2.123541  0
O  O336  1  0.95523672  0.84986597  0.93219725  1  -1.189994  0  -0.315238  -0.546723  0  2.388794  0
O  O337  1  0.54476245  0.65013479  0.43219654  1  -1.189978  0  -0.31524  -0.546702  0  2.388774  0
O  O338  1  0.04476253  0.15013359  0.06780242  1  -1.189995  0  -0.31527  -0.546747  0  2.38877  0
O  O339  1  0.45523778  0.34986544  0.56780313  1  -1.189985  0  -0.315249  -0.546751  0  2.38876  0
O  O340  1  0.85207644  0.70316244  0.92801412  1  -1.16732  0  -0.317898  -0.548182  0  2.402985  0
O  O341  1  0.64792448  0.79683765  0.42801456  1  -1.167349  0  -0.317864  -0.548118  0  2.403081  0
O  O342  1  0.14792350  0.29683712  0.07198555  1  -1.167326  0  -0.317886  -0.548176  0  2.402989  0
O  O343  1  0.35207545  0.20316190  0.57198552  1  -1.167342  0  -0.317922  -0.548197  0  2.402998  0
O  O344  1  0.59710197  0.87170508  0.79876913  1  -1.126952  0  -0.156364  -0.227248  0  2.53011  0
O  O345  1  0.90289806  0.62829451  0.29876883  1  -1.126951  0  -0.156377  -0.227253  0  2.530125  0
O  O346  1  0.40289797  0.12829448  0.20123094  1  -1.126941  0  -0.156349  -0.227241  0  2.530101  0
O  O347  1  0.09710247  0.37170639  0.70123124  1  -1.126956  0  -0.156348  -0.227276  0  2.530115  0
O  O348  1  0.55259415  0.86268098  0.54489253  1  -1.161224  0  -0.328758  -0.560377  0  2.336758  0
O  O349  1  0.94740729  0.63732026  0.04489262  1  -1.161243  0  -0.328728  -0.560325  0  2.336768  0
O  O350  1  0.44740520  0.13731724  0.45510755  1  -1.161245  0  -0.328744  -0.560365  0  2.336726  0
O  O351  1  0.05259586  0.36268197  0.95510745  1  -1.161211  0  -0.328712  -0.560329  0  2.336773  0
O  O352  1  0.69881322  0.84975977  0.54986359  1  -1.207286  0  -0.324113  -0.581354  0  2.223787  0
O  O353  1  0.80118695  0.65024012  0.04986329  1  -1.207269  0  -0.324122  -0.581336  0  2.223679  0
O  O354  1  0.30118672  0.15023978  0.45013648  1  -1.207268  0  -0.324119  -0.581348  0  2.223763  0
O  O355  1  0.19881367  0.34975944  0.95013638  1  -1.207306  0  -0.324118  -0.581337  0  2.223714  0
O  O356  1  0.04059092  0.64671457  0.93297677  1  -1.194199  0  -0.315677  -0.550293  0  2.385389  0
O  O357  1  0.45940867  0.85328502  0.43297677  1  -1.194184  0  -0.315667  -0.550253  0  2.38543  0
O  O358  1  0.95940931  0.35328566  0.06702330  1  -1.194119  0  -0.315669  -0.550266  0  2.385315  0
O  O359  1  0.54059127  0.14671454  0.56702370  1  -1.19419  0  -0.315668  -0.550265  0  2.385369  0
O  O360  1  0.14107759  0.79436940  0.93387479  1  -1.174016  0  -0.317762  -0.549915  0  2.38371  0
O  O361  1  0.35892200  0.70563019  0.43387526  1  -1.174034  0  -0.317755  -0.549884  0  2.383771  0
O  O362  1  0.85892264  0.20563083  0.06612488  1  -1.174027  0  -0.317799  -0.549928  0  2.383728  0
O  O363  1  0.64107794  0.29436937  0.56612521  1  -1.174033  0  -0.317758  -0.549911  0  2.383784  0
O  O364  1  0.40865857  0.63591401  0.80545074  1  -1.102692  0  -0.1542  -0.224741  0  2.546949  0
O  O365  1  0.09134110  0.86408574  0.30545075  1  -1.102744  0  -0.154202  -0.224744  0  2.546988  0
O  O366  1  0.59134069  0.36408555  0.19454933  1  -1.102685  0  -0.154228  -0.224786  0  2.546966  0
O  O367  1  0.90865884  0.13591382  0.69454932  1  -1.10269  0  -0.154216  -0.224756  0  2.547023  0
O  O368  1  0.31885352  0.65628812  0.55492596  1  -1.205201  0  -0.319443  -0.577195  0  2.243816  0
O  O369  1  0.18114630  0.84371193  0.05492517  1  -1.205228  0  -0.319418  -0.577125  0  2.243737  0
O  O370  1  0.68114642  0.34371143  0.44507411  1  -1.205204  0  -0.319431  -0.577164  0  2.243737  0
O  O371  1  0.81885325  0.15628829  0.94507410  1  -1.205214  0  -0.319406  -0.577139  0  2.243671  0
O  O372  1  0.47121235  0.65680927  0.55196286  1  -1.157437  0  -0.322718  -0.555627  0  2.326654  0
O  O373  1  0.02878678  0.84319078  0.05196287  1  -1.157449  0  -0.322695  -0.555569  0  2.326546  0
O  O374  1  0.52878758  0.34319028  0.44803721  1  -1.157437  0  -0.322742  -0.555641  0  2.326672  0
O  O375  1  0.97121141  0.15680944  0.94803680  1  -1.157408  0  -0.322718  -0.55559  0  2.326658  0
