# generated using pymatgen
data_SmAgH6C14(NO4)2
_symmetry_space_group_name_H-M   'P 1'
_cell_length_a   7.29340098
_cell_length_b   10.23120328
_cell_length_c   11.54840191
_cell_angle_alpha   97.95067718
_cell_angle_beta   101.37585250
_cell_angle_gamma   95.20601755
_symmetry_Int_Tables_number   1
_chemical_formula_structural   SmAgH6C14(NO4)2
_chemical_formula_sum   'Sm2 Ag2 H12 C28 N4 O16'
_cell_volume   830.49036609
_cell_formula_units_Z   2
loop_
 _symmetry_equiv_pos_site_id
 _symmetry_equiv_pos_as_xyz
  1  'x, y, z'
loop_
 _atom_site_type_symbol
 _atom_site_label
 _atom_site_symmetry_multiplicity
 _atom_site_fract_x
 _atom_site_fract_y
 _atom_site_fract_z
 _atom_site_occupancy
 _atom_site_pbe_bader_charge
 _atom_site_pbe_bader_spin_density
 _atom_site_pbe_cm5_charge
 _atom_site_pbe_ddec_charge
 _atom_site_pbe_ddec_spin_density
 _atom_site_pbe_ddec_sum_bond_order
 _atom_site_pbe_magmom
Sm  Sm0  1  0.75947352  0.97348894  0.07033410  1  2.210394  0  1.507309  2.106717  0  2.089307  0
Sm  Sm1  1  0.24052657  0.02651152  0.92966536  1  2.210386  0  1.50734  2.106767  0  2.089251  0
Ag  Ag2  1  0.78797902  0.26719585  0.70007876  1  0.578861  0  0.47481  0.365088  0  1.767053  0
Ag  Ag3  1  0.21202192  0.73280163  0.29991953  1  0.578833  0  0.474791  0.365076  0  1.767045  0
H  H4  1  0.45448856  0.53352925  0.89359331  1  0.110714  0  0.11565  0.129209  0  1.00041  0
H  H5  1  0.54551275  0.46647016  0.10640875  1  0.110744  0  0.115639  0.12917  0  1.000448  0
H  H6  1  0.22803335  0.34854106  0.76875079  1  0.105804  0  0.122443  0.089415  0  1.012925  0
H  H7  1  0.77196936  0.65145837  0.23124971  1  0.105898  0  0.12245  0.089424  0  1.012963  0
H  H8  1  0.77078473  0.53370231  0.84238508  1  0.13314  0  0.122095  0.095378  0  1.000117  0
H  H9  1  0.22921639  0.46629615  0.15761423  1  0.133139  0  0.122087  0.095401  0  1.000057  0
H  H10  1  0.07180114  0.12494010  0.52670126  1  0.106298  0  0.108419  0.117292  0  1.015702  0
H  H11  1  0.92819998  0.87505833  0.47329978  1  0.106312  0  0.108374  0.117215  0  1.015702  0
H  H12  1  0.36519486  0.19888101  0.68270596  1  0.153416  0  0.121636  0.0953  0  1.037757  0
H  H13  1  0.63480645  0.80111842  0.31729437  1  0.153452  0  0.121634  0.095309  0  1.037749  0
H  H14  1  0.69849665  0.15491310  0.43028759  1  0.122903  0  0.121943  0.098503  0  0.99472  0
H  H15  1  0.30150240  0.84508939  0.56971029  1  0.122931  0  0.121925  0.098518  0  0.994726  0
C  C16  1  0.37742668  0.74899082  0.02983264  1  1.631998  0  0.236251  0.638356  0  4.169753  0
C  C17  1  0.62257406  0.25100569  0.97016462  1  1.632017  0  0.236275  0.638358  0  4.169735  0
C  C18  1  0.23591929  0.64682557  0.94180894  1  -0.08595  0  0.030137  0.022332  0  3.854512  0
C  C19  1  0.76408184  0.35317287  0.05819123  1  -0.085904  0  0.030097  0.022251  0  3.854634  0
C  C20  1  0.30378836  0.53929754  0.88213699  1  0.074579  0  -0.070321  -0.133117  0  3.902298  0
C  C21  1  0.69621156  0.46070186  0.11786576  1  0.074566  0  -0.070304  -0.133034  0  3.902329  0
C  C22  1  0.17759894  0.43523549  0.81204848  1  0.502219  0  0.057529  0.11515  0  3.926005  0
C  C23  1  0.82240079  0.56476294  0.18795239  1  0.50211  0  0.057504  0.115102  0  3.925955  0
C  C24  1  0.92300867  0.53719006  0.85368074  1  0.463804  0  0.05782  0.081498  0  3.904893  0
C  C25  1  0.07698948  0.46280736  0.14632153  1  0.463764  0  0.057819  0.081461  0  3.904899  0
C  C26  1  0.03959413  0.64595092  0.92526949  1  0.066193  0  0.000131  -0.085642  0  3.921817  0
C  C27  1  0.96040038  0.35404954  0.07473102  1  0.06603  0  0.000187  -0.085555  0  3.921748  0
C  C28  1  0.95108275  0.75612675  0.98223331  1  1.587705  0  0.214356  0.617099  0  4.191573  0
C  C29  1  0.04891856  0.24387267  0.01776788  1  1.587965  0  0.214379  0.617114  0  4.191533  0
C  C30  1  0.04790444  0.04786810  0.28544599  1  1.599538  0  0.197936  0.586667  0  4.236804  0
C  C31  1  0.95209286  0.95213234  0.71455486  1  1.599568  0  0.197927  0.586622  0  4.23686  0
C  C32  1  0.22222284  0.09396917  0.38204105  1  0.007474  0  0.020298  0.029267  0  3.885352  0
C  C33  1  0.77777288  0.90603030  0.61795861  1  0.007471  0  0.020345  0.029323  0  3.885435  0
C  C34  1  0.20780942  0.13093289  0.50084214  1  -0.007745  0  -0.079562  -0.151715  0  3.932403  0
C  C35  1  0.79218927  0.86906756  0.49915801  1  -0.00773  0  -0.079521  -0.15162  0  3.932364  0
C  C36  1  0.36986122  0.17426995  0.58873859  1  0.416452  0  0.04891  0.096517  0  3.924848  0
C  C37  1  0.63013887  0.82573051  0.41126086  1  0.416405  0  0.048894  0.096484  0  3.924873  0
C  C38  1  0.55806162  0.14781387  0.44968028  1  0.444435  0  0.050156  0.069063  0  3.924507  0
C  C39  1  0.44193744  0.85218859  0.55031933  1  0.44439  0  0.050172  0.069044  0  3.92454  0
C  C40  1  0.40311877  0.10109414  0.35653263  1  0.017496  0  -0.004518  -0.091617  0  3.905216  0
C  C41  1  0.59688047  0.89890932  0.64346627  1  0.017475  0  -0.004512  -0.091664  0  3.905366  0
C  C42  1  0.43667812  0.05957916  0.23296235  1  1.633216  0  0.232958  0.645458  0  4.169004  0
C  C43  1  0.56331674  0.94042334  0.76703588  1  1.632764  0  0.232943  0.645422  0  4.16898  0
N  N44  1  0.54344393  0.18461555  0.56367699  1  -1.197405  0  -0.35093  -0.210708  0  3.662457  0
N  N45  1  0.45655476  0.81538492  0.43632229  1  -1.19739  0  -0.350899  -0.210668  0  3.662442  0
N  N46  1  0.98911635  0.43290284  0.79799735  1  -1.24976  0  -0.34929  -0.213666  0  3.63993  0
N  N47  1  0.01088775  0.56709661  0.20200159  1  -1.249776  0  -0.349254  -0.213644  0  3.639919  0
O  O48  1  0.43722174  0.71925732  0.13035412  1  -1.155073  0  -0.286718  -0.528371  0  2.17109  0
O  O49  1  0.56278672  0.28074312  0.86964462  1  -1.155109  0  -0.28673  -0.528382  0  2.171069  0
O  O50  1  0.43437903  0.85545726  0.99175266  1  -1.205792  0  -0.442049  -0.75699  0  2.425676  0
O  O51  1  0.56562088  0.14454219  0.00824750  1  -1.205832  0  -0.442045  -0.756936  0  2.425662  0
O  O52  1  0.04321919  0.87317930  0.00883838  1  -1.195916  0  -0.426197  -0.7179  0  2.441635  0
O  O53  1  0.95678612  0.12681913  0.99116144  1  -1.195986  0  -0.426272  -0.717986  0  2.441737  0
O  O54  1  0.78881881  0.73462335  0.00418543  1  -1.167378  0  -0.353474  -0.598243  0  2.210984  0
O  O55  1  0.21118110  0.26537611  0.99581387  1  -1.167379  0  -0.353473  -0.598244  0  2.211026  0
O  O56  1  0.96061808  0.13611986  0.24037792  1  -1.162874  0  -0.35978  -0.590783  0  2.189459  0
O  O57  1  0.03937904  0.86387962  0.75962104  1  -1.162851  0  -0.359791  -0.590787  0  2.189399  0
O  O58  1  0.99311933  0.92290847  0.25459306  1  -1.179602  0  -0.360841  -0.629902  0  2.235488  0
O  O59  1  0.00688076  0.07709197  0.74540726  1  -1.179614  0  -0.36084  -0.629893  0  2.235524  0
O  O60  1  0.30444528  0.06669922  0.14602523  1  -1.171037  0  -0.363514  -0.619477  0  2.337328  0
O  O61  1  0.69555536  0.93330423  0.85397384  1  -1.170533  0  -0.363521  -0.61947  0  2.337131  0
O  O62  1  0.59618988  0.02140491  0.22760772  1  -1.188075  0  -0.393608  -0.670207  0  2.338852  0
O  O63  1  0.40380900  0.97859655  0.77239173  1  -1.188152  0  -0.393603  -0.670147  0  2.338953  0
