# generated using pymatgen
data_SrH7C5(NO2)3
_symmetry_space_group_name_H-M   'P 1'
_cell_length_a   6.95420361
_cell_length_b   10.53572744
_cell_length_c   12.17820516
_cell_angle_alpha   90.00018120
_cell_angle_beta   95.77277728
_cell_angle_gamma   90.00001233
_symmetry_Int_Tables_number   1
_chemical_formula_structural   SrH7C5(NO2)3
_chemical_formula_sum   'Sr4 H28 C20 N12 O24'
_cell_volume   887.74275178
_cell_formula_units_Z   4
loop_
 _symmetry_equiv_pos_site_id
 _symmetry_equiv_pos_as_xyz
  1  'x, y, z'
loop_
 _atom_site_type_symbol
 _atom_site_label
 _atom_site_symmetry_multiplicity
 _atom_site_fract_x
 _atom_site_fract_y
 _atom_site_fract_z
 _atom_site_occupancy
 _atom_site_hle17_bader_spin_density
 _atom_site_hle17_ddec_charge
 _atom_site_hle17_ddec_spin_density
 _atom_site_hle17_ddec_sum_bond_order
 _atom_site_hle17_magmom
 _atom_site_hse06_10hf_bader_spin_density
 _atom_site_hse06_10hf_ddec_charge
 _atom_site_hse06_10hf_ddec_spin_density
 _atom_site_hse06_10hf_ddec_sum_bond_order
 _atom_site_hse06_10hf_magmom
 _atom_site_hse06_bader_spin_density
 _atom_site_hse06_ddec_charge
 _atom_site_hse06_ddec_spin_density
 _atom_site_hse06_ddec_sum_bond_order
 _atom_site_hse06_magmom
 _atom_site_pbe_bader_spin_density
 _atom_site_pbe_cm5_charge
 _atom_site_pbe_ddec_charge
 _atom_site_pbe_ddec_spin_density
 _atom_site_pbe_ddec_sum_bond_order
 _atom_site_pbe_magmom
Sr  Sr0  1  0.25002156  0.38981842  0.01968816  1  0  1.608181  0  1.128172  0  0  1.462824  0  1.502844  0  0  1.500695  0  1.458871  0  0  0.97117  1.434719  0  1.534169  0
Sr  Sr1  1  0.74997853  0.88981704  0.48031383  1  0  1.608135  0  1.128177  0  0  1.462772  0  1.502856  0  0  1.500646  0  1.458881  0  0  0.971147  1.434685  0  1.534153  0
Sr  Sr2  1  0.74997867  0.61018183  0.98031222  1  0  1.608175  0  1.128185  0  0  1.462816  0  1.502855  0  0  1.500686  0  1.458883  0  0  0.971172  1.434708  0  1.534182  0
Sr  Sr3  1  0.25002168  0.11018320  0.51968574  1  0  1.608148  0  1.128186  0  0  1.462786  0  1.502864  0  0  1.500659  0  1.45889  0  0  0.971154  1.43468  0  1.534194  0
H  H4  1  0.23750962  0.76787450  0.32304308  1  0  0.114496  0  0.930779  0  0  0.123355  0  0.992305  0  0  0.126175  0  0.989456  0  0  0.149864  0.121208  0  0.994479  0
H  H5  1  0.76249900  0.26787462  0.17695654  1  0  0.11442  0  0.930868  0  0  0.123322  0  0.992366  0  0  0.12614  0  0.989515  0  0  0.14985  0.121177  0  0.994533  0
H  H6  1  0.76248919  0.23212480  0.67695805  1  0  0.114488  0  0.930804  0  0  0.123352  0  0.992326  0  0  0.12617  0  0.989477  0  0  0.149861  0.121205  0  0.9945  0
H  H7  1  0.23750121  0.73212657  0.82304302  1  0  0.114478  0  0.930828  0  0  0.123377  0  0.992319  0  0  0.126196  0  0.98947  0  0  0.149886  0.121232  0  0.994485  0
H  H8  1  0.42907391  0.80140962  0.15272050  1  0  0.129249  0  0.930976  0  0  0.138582  0  0.997526  0  0  0.141254  0  0.995484  0  0  0.131941  0.136573  0  0.999176  0
H  H9  1  0.57092748  0.30141033  0.34727803  1  0  0.129268  0  0.930957  0  0  0.138598  0  0.99752  0  0  0.14127  0  0.995478  0  0  0.131934  0.1366  0  0.999157  0
H  H10  1  0.57092780  0.19858873  0.84728160  1  0  0.1293  0  0.930939  0  0  0.138598  0  0.997528  0  0  0.141271  0  0.995486  0  0  0.131962  0.136608  0  0.999166  0
H  H11  1  0.42907128  0.69858991  0.65272146  1  0  0.12926  0  0.931  0  0  0.138579  0  0.997569  0  0  0.141251  0  0.995526  0  0  0.131926  0.136582  0  0.999208  0
H  H12  1  0.30844444  0.87660780  0.03375484  1  0  0.145905  0  0.948576  0  0  0.153519  0  1.014552  0  0  0.157347  0  1.01125  0  0  0.130942  0.15057  0  1.017345  0
H  H13  1  0.69155702  0.37660518  0.46624390  1  0  0.145941  0  0.948583  0  0  0.153562  0  1.014549  0  0  0.15739  0  1.011247  0  0  0.13094  0.150614  0  1.017345  0
H  H14  1  0.69155870  0.12339149  0.96624652  1  0  0.145894  0  0.948566  0  0  0.153502  0  1.014547  0  0  0.157331  0  1.011245  0  0  0.130935  0.150561  0  1.017342  0
H  H15  1  0.30844321  0.62339317  0.53375648  1  0  0.145944  0  0.948525  0  0  0.153558  0  1.014498  0  0  0.157387  0  1.011196  0  0  0.130936  0.150612  0  1.017296  0
H  H16  1  0.40128325  0.10807246  0.08786442  1  0  0.430538  0  0.871431  0  0  0.39694  0  0.939405  0  0  0.40864  0  0.922331  0  0  0.292416  0.388582  0  0.951637  0
H  H17  1  0.59871659  0.60807367  0.41213597  1  0  0.430553  0  0.87141  0  0  0.396958  0  0.939378  0  0  0.408658  0  0.922305  0  0  0.292427  0.3886  0  0.951611  0
H  H18  1  0.59871699  0.89192778  0.91213679  1  0  0.43052  0  0.87146  0  0  0.396921  0  0.939436  0  0  0.408622  0  0.92236  0  0  0.292414  0.388563  0  0.951668  0
H  H19  1  0.40128073  0.39192658  0.58786345  1  0  0.430552  0  0.871411  0  0  0.396951  0  0.93939  0  0  0.408651  0  0.922316  0  0  0.292438  0.388594  0  0.951622  0
H  H20  1  0.24004480  0.35218683  0.73886708  1  0  0.429664  0  0.85663  0  0  0.400951  0  0.919633  0  0  0.410339  0  0.905898  0  0  0.299982  0.394223  0  0.929511  0
H  H21  1  0.75995292  0.85218940  0.76113470  1  0  0.429712  0  0.856606  0  0  0.400991  0  0.919588  0  0  0.410381  0  0.905849  0  0  0.299998  0.394262  0  0.929466  0
H  H22  1  0.75995542  0.64781342  0.26113331  1  0  0.429664  0  0.856627  0  0  0.400951  0  0.919634  0  0  0.410339  0  0.9059  0  0  0.299985  0.394222  0  0.929511  0
H  H23  1  0.24004876  0.14781085  0.23886576  1  0  0.429702  0  0.856594  0  0  0.40098  0  0.919603  0  0  0.410371  0  0.905864  0  0  0.29998  0.394251  0  0.929482  0
H  H24  1  0.18811229  0.10282542  0.02329154  1  0  0.411815  0  0.890935  0  0  0.370895  0  0.973519  0  0  0.38099  0  0.958652  0  0  0.296539  0.363766  0  0.984024  0
H  H25  1  0.81188896  0.60282404  0.47670726  1  0  0.411812  0  0.89094  0  0  0.370889  0  0.97353  0  0  0.380985  0  0.958662  0  0  0.296538  0.36376  0  0.984035  0
H  H26  1  0.81188651  0.89717483  0.97670959  1  0  0.411818  0  0.890943  0  0  0.370894  0  0.973531  0  0  0.380989  0  0.958664  0  0  0.296539  0.363763  0  0.984039  0
H  H27  1  0.18811125  0.39717525  0.52329230  1  0  0.411822  0  0.890967  0  0  0.370905  0  0.973521  0  0  0.380999  0  0.958654  0  0  0.296546  0.363774  0  0.984028  0
H  H28  1  0.40691784  0.43286197  0.79900299  1  0  0.414005  0  0.899485  0  0  0.380246  0  0.969324  0  0  0.392078  0  0.952024  0  0  0.289716  0.371843  0  0.981617  0
H  H29  1  0.59308136  0.93286809  0.70099744  1  0  0.414016  0  0.899465  0  0  0.380219  0  0.969377  0  0  0.392056  0  0.952067  0  0  0.289711  0.371816  0  0.981672  0
H  H30  1  0.59308094  0.56713828  0.20099732  1  0  0.41397  0  0.899535  0  0  0.380213  0  0.969373  0  0  0.392044  0  0.952075  0  0  0.289703  0.37181  0  0.981668  0
H  H31  1  0.40691885  0.06713310  0.29900213  1  0  0.414005  0  0.899481  0  0  0.380211  0  0.969389  0  0  0.392048  0  0.952079  0  0  0.289708  0.371808  0  0.981683  0
C  C32  1  0.12667177  0.81915230  0.27191790  1  0  0.20072  0  3.608871  0  0  0.124369  0  3.883333  0  0  0.138317  0  3.891685  0  0  0.184233  0.115298  0  3.877781  0
C  C33  1  0.87333544  0.31915357  0.22808179  1  0  0.200807  0  3.608957  0  0  0.124389  0  3.883435  0  0  0.138339  0  3.891786  0  0  0.184248  0.11532  0  3.877884  0
C  C34  1  0.87332844  0.18084700  0.72808166  1  0  0.200757  0  3.60896  0  0  0.124392  0  3.883435  0  0  0.138342  0  3.891785  0  0  0.184266  0.115321  0  3.87788  0
C  C35  1  0.12666479  0.68084667  0.77191859  1  0  0.200777  0  3.608932  0  0  0.124374  0  3.883414  0  0  0.138322  0  3.891766  0  0  0.184227  0.115305  0  3.877859  0
C  C36  1  0.87833270  0.92110153  0.20755929  1  0  0.177222  0  3.77806  0  0  0.157732  0  4.062532  0  0  0.163477  0  4.075441  0  0  0.21864  0.153861  0  4.053946  0
C  C37  1  0.12166736  0.42110388  0.29244032  1  0  0.177248  0  3.777979  0  0  0.157726  0  4.062505  0  0  0.163471  0  4.075415  0  0  0.218643  0.153864  0  4.053902  0
C  C38  1  0.12166897  0.07889872  0.79244117  1  0  0.177229  0  3.777977  0  0  0.157697  0  4.062506  0  0  0.163442  0  4.075416  0  0  0.218594  0.153818  0  4.053933  0
C  C39  1  0.87833141  0.57889826  0.70755917  1  0  0.177228  0  3.77793  0  0  0.157722  0  4.062422  0  0  0.163467  0  4.075333  0  0  0.218629  0.153847  0  4.05384  0
C  C40  1  0.29266935  0.80658048  0.09908803  1  0  -0.204012  0  3.606715  0  0  -0.274107  0  3.846064  0  0  -0.275703  0  3.850344  0  0  -0.045729  -0.272847  0  3.843469  0
C  C41  1  0.70733348  0.30657952  0.40090977  1  0  -0.204113  0  3.60681  0  0  -0.274218  0  3.846141  0  0  -0.275812  0  3.850419  0  0  -0.045693  -0.272965  0  3.843544  0
C  C42  1  0.70733379  0.19341881  0.90091333  1  0  -0.204054  0  3.606718  0  0  -0.274109  0  3.846029  0  0  -0.275706  0  3.850308  0  0  -0.045724  -0.272894  0  3.843476  0
C  C43  1  0.29266673  0.69342073  0.59908980  1  0  -0.204112  0  3.606837  0  0  -0.274186  0  3.846142  0  0  -0.275781  0  3.850421  0  0  -0.045693  -0.272944  0  3.843557  0
C  C44  1  0.25485936  0.67638055  0.04674148  1  0  0.719886  0  3.874238  0  0  0.671074  0  4.174595  0  0  0.703993  0  4.166822  0  0  0.225853  0.648739  0  4.178801  0
C  C45  1  0.74513901  0.17637978  0.45325491  1  0  0.719931  0  3.874486  0  0  0.671132  0  4.174806  0  0  0.704051  0  4.167032  0  0  0.225816  0.648797  0  4.179021  0
C  C46  1  0.74514231  0.32361970  0.95325898  1  0  0.719964  0  3.874359  0  0  0.671158  0  4.174687  0  0  0.704077  0  4.166911  0  0  0.225858  0.648831  0  4.1789  0
C  C47  1  0.25486119  0.82361952  0.54674383  1  0  0.719895  0  3.874489  0  0  0.671096  0  4.174806  0  0  0.704016  0  4.167033  0  0  0.225819  0.648765  0  4.179017  0
C  C48  1  0.68549316  0.98502021  0.20286120  1  0  0.615568  0  3.949098  0  0  0.562268  0  4.254571  0  0  0.595373  0  4.245  0  0  0.224204  0.539792  0  4.260442  0
C  C49  1  0.31450994  0.48502735  0.29714285  1  0  0.615622  0  3.948975  0  0  0.562316  0  4.254491  0  0  0.595422  0  4.244921  0  0  0.224233  0.539838  0  4.260361  0
C  C50  1  0.31450850  0.01497909  0.79713844  1  0  0.615598  0  3.949083  0  0  0.562322  0  4.254524  0  0  0.595426  0  4.244954  0  0  0.224222  0.539848  0  4.260396  0
C  C51  1  0.68548735  0.51497384  0.70285493  1  0  0.615725  0  3.94885  0  0  0.562436  0  4.254314  0  0  0.595539  0  4.244746  0  0  0.224291  0.539961  0  4.260185  0
N  N52  1  0.14159616  0.84665756  0.16485593  1  0  0.089924  0  3.571849  0  0  0.202966  0  3.762186  0  0  0.195193  0  3.78198  0  0  -0.123178  0.207719  0  3.749284  0
N  N53  1  0.85840963  0.34665923  0.33514377  1  0  0.089904  0  3.571825  0  0  0.202984  0  3.762157  0  0  0.195211  0  3.781952  0  0  -0.123241  0.207735  0  3.749261  0
N  N54  1  0.85840552  0.15334174  0.83514453  1  0  0.089905  0  3.57181  0  0  0.202962  0  3.762126  0  0  0.195191  0  3.781919  0  0  -0.123215  0.207724  0  3.749233  0
N  N55  1  0.14159060  0.65334102  0.66485662  1  0  0.089884  0  3.57188  0  0  0.202932  0  3.762229  0  0  0.19516  0  3.782025  0  0  -0.123248  0.207686  0  3.749333  0
N  N56  1  0.96161690  0.86485880  0.30177058  1  0  -0.450053  0  3.09227  0  0  -0.40423  0  3.373004  0  0  -0.41955  0  3.38484  0  0  -0.35903  -0.393794  0  3.364877  0
N  N57  1  0.03838602  0.36486269  0.19822984  1  0  -0.450049  0  3.092407  0  0  -0.404204  0  3.373168  0  0  -0.419522  0  3.385004  0  0  -0.358991  -0.393768  0  3.365037  0
N  N58  1  0.03838333  0.13514050  0.69822981  1  0  -0.450076  0  3.092304  0  0  -0.404239  0  3.373052  0  0  -0.419559  0  3.384888  0  0  -0.359023  -0.393798  0  3.364928  0
N  N59  1  0.96161419  0.63513756  0.80176972  1  0  -0.450007  0  3.092319  0  0  -0.404172  0  3.373064  0  0  -0.419489  0  3.3849  0  0  -0.358982  -0.393733  0  3.364937  0
N  N60  1  0.98322470  0.91133461  0.12179775  1  0  -0.284651  0  2.88479  0  0  -0.278952  0  3.142419  0  0  -0.285939  0  3.153928  0  0  -0.194397  -0.27406  0  3.135005  0
N  N61  1  0.01677538  0.41133726  0.37820266  1  0  -0.284646  0  2.884684  0  0  -0.278942  0  3.142319  0  0  -0.28593  0  3.153827  0  0  -0.194376  -0.274052  0  3.134903  0
N  N62  1  0.01677698  0.08866563  0.87820271  1  0  -0.284645  0  2.884674  0  0  -0.278945  0  3.142312  0  0  -0.285933  0  3.153821  0  0  -0.194367  -0.27405  0  3.1349  0
N  N63  1  0.98322196  0.58866488  0.62179758  1  0  -0.284678  0  2.884776  0  0  -0.27897  0  3.142402  0  0  -0.28596  0  3.153911  0  0  -0.194379  -0.274078  0  3.134991  0
O  O64  1  0.38826718  0.62879849  0.99577647  1  0  -0.728657  0  1.974154  0  0  -0.662891  0  2.219944  0  0  -0.690109  0  2.210316  0  0  -0.387901  -0.643574  0  2.225923  0
O  O65  1  0.61173602  0.12879796  0.50421922  1  0  -0.728662  0  1.974257  0  0  -0.662909  0  2.220068  0  0  -0.690127  0  2.210441  0  0  -0.387888  -0.643594  0  2.22605  0
O  O66  1  0.61173447  0.37120176  0.00422317  1  0  -0.728712  0  1.974122  0  0  -0.662953  0  2.21992  0  0  -0.690173  0  2.210292  0  0  -0.387961  -0.643635  0  2.225896  0
O  O67  1  0.38826562  0.87120229  0.49577959  1  0  -0.728659  0  1.974185  0  0  -0.66291  0  2.219996  0  0  -0.69013  0  2.210369  0  0  -0.387922  -0.643595  0  2.225975  0
O  O68  1  0.09628811  0.62085235  0.05732208  1  0  -0.743619  0  2.028519  0  0  -0.684443  0  2.284062  0  0  -0.711634  0  2.275718  0  0  -0.398705  -0.664941  0  2.28923  0
O  O69  1  0.90371455  0.12084967  0.44267438  1  0  -0.743595  0  2.028528  0  0  -0.684434  0  2.284088  0  0  -0.711624  0  2.275742  0  0  -0.398663  -0.664931  0  2.28926  0
O  O70  1  0.90371210  0.37914694  0.94267749  1  0  -0.743604  0  2.028671  0  0  -0.684438  0  2.284211  0  0  -0.711627  0  2.275866  0  0  -0.398641  -0.664934  0  2.289376  0
O  O71  1  0.09628707  0.87914962  0.55732361  1  0  -0.743554  0  2.028552  0  0  -0.68439  0  2.284103  0  0  -0.711581  0  2.27576  0  0  -0.398642  -0.664889  0  2.289269  0
O  O72  1  0.62716817  0.04792291  0.11769543  1  0  -0.610919  0  1.988621  0  0  -0.555379  0  2.212721  0  0  -0.579494  0  2.202896  0  0  -0.303782  -0.538562  0  2.219186  0
O  O73  1  0.37283164  0.54792397  0.38230561  1  0  -0.610896  0  1.98869  0  0  -0.555362  0  2.21282  0  0  -0.57947  0  2.202977  0  0  -0.303779  -0.538548  0  2.219289  0
O  O74  1  0.37283348  0.95207733  0.88230421  1  0  -0.610938  0  1.988621  0  0  -0.555406  0  2.212713  0  0  -0.579518  0  2.202884  0  0  -0.303796  -0.538588  0  2.219179  0
O  O75  1  0.62716570  0.45207912  0.61769463  1  0  -0.610927  0  1.988749  0  0  -0.555393  0  2.212852  0  0  -0.579505  0  2.203023  0  0  -0.303819  -0.538579  0  2.21932  0
O  O76  1  0.59425610  0.96899204  0.28790645  1  0  -0.675723  0  2.014723  0  0  -0.611559  0  2.248038  0  0  -0.637513  0  2.238116  0  0  -0.343552  -0.593303  0  2.254431  0
O  O77  1  0.40574256  0.46900078  0.21209322  1  0  -0.675787  0  2.014653  0  0  -0.611652  0  2.247973  0  0  -0.637605  0  2.238054  0  0  -0.343588  -0.593391  0  2.254366  0
O  O78  1  0.40574411  0.03100726  0.71209311  1  0  -0.675758  0  2.014735  0  0  -0.611577  0  2.248011  0  0  -0.637532  0  2.238091  0  0  -0.343552  -0.593318  0  2.254403  0
O  O79  1  0.59425769  0.53099947  0.78790799  1  0  -0.675868  0  2.014578  0  0  -0.611723  0  2.247864  0  0  -0.637677  0  2.237948  0  0  -0.343593  -0.593459  0  2.254254  0
O  O80  1  0.29916693  0.37361975  0.81310156  1  0  -0.893468  0  1.789459  0  0  -0.8394  0  1.973478  0  0  -0.858906  0  1.942748  0  0  -0.635234  -0.825475  0  1.995154  0
O  O81  1  0.70083226  0.87362489  0.68690034  1  0  -0.893505  0  1.789396  0  0  -0.839418  0  1.9734  0  0  -0.858932  0  1.942673  0  0  -0.635234  -0.825495  0  1.995076  0
O  O82  1  0.70083186  0.62637954  0.18689875  1  0  -0.893439  0  1.789486  0  0  -0.839372  0  1.97351  0  0  -0.858877  0  1.942783  0  0  -0.635225  -0.825446  0  1.995185  0
O  O83  1  0.29916943  0.12637535  0.31310094  1  0  -0.893492  0  1.789409  0  0  -0.839404  0  1.97343  0  0  -0.858918  0  1.942706  0  0  -0.635213  -0.825477  0  1.995108  0
O  O84  1  0.27407104  0.15345515  0.07555772  1  0  -0.896087  0  1.842932  0  0  -0.834735  0  2.029676  0  0  -0.855006  0  1.997097  0  0  -0.624009  -0.820323  0  2.052825  0
O  O85  1  0.72593027  0.65345547  0.42444204  1  0  -0.896101  0  1.842919  0  0  -0.834749  0  2.029661  0  0  -0.855018  0  1.997077  0  0  -0.624019  -0.820339  0  2.052809  0
O  O86  1  0.72592774  0.84654414  0.92444259  1  0  -0.896078  0  1.842949  0  0  -0.834732  0  2.029677  0  0  -0.855001  0  1.99709  0  0  -0.624014  -0.820318  0  2.052829  0
O  O87  1  0.27406850  0.34654383  0.57555745  1  0  -0.896101  0  1.842935  0  0  -0.834761  0  2.029641  0  0  -0.85503  0  1.997056  0  0  -0.624034  -0.820348  0  2.052792  0
