# generated using pymatgen
data_YH17C11N2O9
_symmetry_space_group_name_H-M   'P 1'
_cell_length_a   9.97464394
_cell_length_b   10.15624494
_cell_length_c   10.40502261
_cell_angle_alpha   76.05737434
_cell_angle_beta   73.64177009
_cell_angle_gamma   66.29462534
_symmetry_Int_Tables_number   1
_chemical_formula_structural   YH17C11N2O9
_chemical_formula_sum   'Y2 H34 C22 N4 O18'
_cell_volume   916.23455213
_cell_formula_units_Z   2
loop_
 _symmetry_equiv_pos_site_id
 _symmetry_equiv_pos_as_xyz
  1  'x, y, z'
loop_
 _atom_site_type_symbol
 _atom_site_label
 _atom_site_symmetry_multiplicity
 _atom_site_fract_x
 _atom_site_fract_y
 _atom_site_fract_z
 _atom_site_occupancy
 _atom_site_hle17_bader_spin_density
 _atom_site_hle17_ddec_charge
 _atom_site_hle17_ddec_spin_density
 _atom_site_hle17_ddec_sum_bond_order
 _atom_site_hle17_magmom
 _atom_site_hse06_10hf_bader_spin_density
 _atom_site_hse06_10hf_ddec_charge
 _atom_site_hse06_10hf_ddec_spin_density
 _atom_site_hse06_10hf_ddec_sum_bond_order
 _atom_site_hse06_10hf_magmom
 _atom_site_hse06_bader_spin_density
 _atom_site_hse06_ddec_charge
 _atom_site_hse06_ddec_spin_density
 _atom_site_hse06_ddec_sum_bond_order
 _atom_site_hse06_magmom
 _atom_site_pbe_bader_spin_density
 _atom_site_pbe_cm5_charge
 _atom_site_pbe_ddec_charge
 _atom_site_pbe_ddec_spin_density
 _atom_site_pbe_ddec_sum_bond_order
 _atom_site_pbe_magmom
Y  Y0  1  0.56535447  0.41147729  0.33799900  1  0  1.956772  0  1.964798  0  0  1.754977  0  2.453151  0  0  1.828538  0  2.39129  0  0  1.287137  1.703284  0  2.494451  0
Y  Y1  1  0.43464690  0.58851011  0.66201204  1  0  1.956725  0  1.964792  0  0  1.754815  0  2.453351  0  0  1.828537  0  2.391198  0  0  1.287121  1.703281  0  2.494401  0
H  H2  1  0.75064695  0.49127480  0.85747892  1  0  0.425347  0  0.856926  0  0  0.394697  0  0.930599  0  0  0.407958  0  0.914701  0  0  0.310994  0.385262  0  0.940728  0
H  H3  1  0.24933992  0.50874935  0.14252224  1  0  0.425339  0  0.857047  0  0  0.394725  0  0.930651  0  0  0.407979  0  0.914696  0  0  0.311054  0.385293  0  0.940771  0
H  H4  1  0.25772883  0.46731013  0.34546836  1  0  0.41411  0  0.899376  0  0  0.378724  0  0.972437  0  0  0.391232  0  0.954804  0  0  0.297776  0.370034  0  0.984633  0
H  H5  1  0.74226360  0.53268178  0.65454681  1  0  0.414176  0  0.899228  0  0  0.378772  0  0.972366  0  0  0.391277  0  0.954737  0  0  0.297824  0.370081  0  0.984566  0
H  H6  1  0.32346349  0.59193809  0.25393574  1  0  0.433768  0  0.839987  0  0  0.407936  0  0.903085  0  0  0.418878  0  0.890184  0  0  0.31728  0.39997  0  0.911957  0
H  H7  1  0.67653791  0.40804671  0.74609043  1  0  0.433659  0  0.840091  0  0  0.40786  0  0.903119  0  0  0.418799  0  0.890263  0  0  0.317271  0.399896  0  0.911987  0
H  H8  1  0.38999005  0.21321004  0.21105984  1  0  0.063721  0  0.925753  0  0  0.076115  0  0.990685  0  0  0.078569  0  0.988661  0  0  0.092926  0.074165  0  0.992706  0
H  H9  1  0.61001684  0.78677567  0.78891358  1  0  0.063642  0  0.925949  0  0  0.076024  0  0.990834  0  0  0.078474  0  0.988802  0  0  0.092906  0.074061  0  0.992866  0
H  H10  1  0.37738286  0.21344389  0.38405253  1  0  0.086311  0  0.947518  0  0  0.101125  0  1.010298  0  0  0.102683  0  1.00982  0  0  0.11599  0.099946  0  1.010568  0
H  H11  1  0.62262011  0.78655849  0.61592607  1  0  0.086228  0  0.947673  0  0  0.101075  0  1.010328  0  0  0.102616  0  1.009864  0  0  0.116009  0.099896  0  1.010602  0
H  H12  1  0.52782603  0.89892209  0.22040495  1  0  0.120784  0  0.937468  0  0  0.134446  0  0.994889  0  0  0.13712  0  0.993204  0  0  0.120365  0.132725  0  0.995843  0
H  H13  1  0.47217056  0.10105786  0.77958829  1  0  0.120741  0  0.937519  0  0  0.134423  0  0.994941  0  0  0.137116  0  0.993217  0  0  0.120348  0.132714  0  0.9959  0
H  H14  1  0.34796894  0.94384357  0.18748742  1  0  0.073838  0  0.917275  0  0  0.080995  0  0.985495  0  0  0.084342  0  0.98243  0  0  0.093072  0.07913  0  0.987226  0
H  H15  1  0.65202284  0.05614118  0.81251546  1  0  0.073771  0  0.917332  0  0  0.080992  0  0.985524  0  0  0.084333  0  0.982458  0  0  0.093076  0.079137  0  0.987265  0
H  H16  1  0.16133739  0.99400738  0.44360785  1  0  0.062079  0  0.936839  0  0  0.079559  0  0.998647  0  0  0.07996  0  0.998987  0  0  0.101537  0.079244  0  0.998443  0
H  H17  1  0.83865817  0.00599552  0.55638324  1  0  0.062042  0  0.93688  0  0  0.079511  0  0.99869  0  0  0.079909  0  0.999031  0  0  0.101513  0.079198  0  0.998484  0
H  H18  1  0.17764159  0.14008011  0.49399693  1  0  0.075704  0  0.918329  0  0  0.090354  0  0.980964  0  0  0.091935  0  0.979684  0  0  0.10322  0.088964  0  0.98223  0
H  H19  1  0.82236803  0.85992736  0.50599576  1  0  0.075721  0  0.918258  0  0  0.09036  0  0.98089  0  0  0.091947  0  0.979605  0  0  0.103234  0.088969  0  0.982162  0
H  H20  1  0.14295981  0.14619200  0.20777717  1  0  0.064426  0  0.941242  0  0  0.0851  0  0.998447  0  0  0.08553  0  0.998879  0  0  0.090013  0.084406  0  0.998673  0
H  H21  1  0.85704363  0.85382101  0.79221763  1  0  0.064432  0  0.94116  0  0  0.08507  0  0.998421  0  0  0.085535  0  0.998813  0  0  0.090042  0.084383  0  0.998641  0
H  H22  1  0.13919770  0.29211961  0.27432075  1  0  0.068179  0  0.957044  0  0  0.085901  0  1.021324  0  0  0.086422  0  1.02211  0  0  0.091033  0.085679  0  1.020632  0
H  H23  1  0.86080566  0.70788781  0.72567176  1  0  0.068155  0  0.956979  0  0  0.085915  0  1.021216  0  0  0.086436  0  1.022007  0  0  0.09103  0.085693  0  1.020525  0
H  H24  1  0.90724524  0.26159501  0.45659225  1  0  0.076608  0  0.9146  0  0  0.094727  0  0.970088  0  0  0.095543  0  0.96997  0  0  0.113125  0.093949  0  0.97036  0
H  H25  1  0.09276436  0.73839807  0.54339764  1  0  0.076603  0  0.914563  0  0  0.094705  0  0.970023  0  0  0.095521  0  0.969906  0  0  0.113063  0.093926  0  0.970299  0
H  H26  1  0.90232425  0.14961335  0.35291781  1  0  0.084823  0  0.918189  0  0  0.09864  0  0.980724  0  0  0.100411  0  0.979301  0  0  0.11666  0.097246  0  0.98193  0
H  H27  1  0.09768693  0.85038990  0.64707848  1  0  0.084842  0  0.918184  0  0  0.09861  0  0.980741  0  0  0.100378  0  0.979322  0  0  0.116622  0.097215  0  0.981946  0
H  H28  1  0.92120017  0.23801287  0.11840267  1  0  0.139155  0  0.880892  0  0  0.154867  0  0.929822  0  0  0.157643  0  0.927985  0  0  0.14111  0.152506  0  0.931798  0
H  H29  1  0.07881494  0.76200519  0.88158078  1  0  0.139194  0  0.880905  0  0  0.154884  0  0.929862  0  0  0.157664  0  0.928029  0  0  0.141096  0.152526  0  0.931836  0
H  H30  1  0.00328673  0.37287632  0.07725752  1  0  0.104143  0  0.918947  0  0  0.11461  0  0.982121  0  0  0.116771  0  0.98113  0  0  0.114077  0.113151  0  0.982645  0
H  H31  1  0.99671399  0.62715001  0.92274113  1  0  0.104138  0  0.919017  0  0  0.114631  0  0.982135  0  0  0.116798  0  0.981144  0  0  0.114099  0.113174  0  0.982658  0
H  H32  1  0.80330419  0.59618807  0.22090878  1  0  0.118723  0  0.891836  0  0  0.137467  0  0.939414  0  0  0.139089  0  0.939204  0  0  0.130121  0.13614  0  0.940046  0
H  H33  1  0.19668575  0.40381946  0.77911243  1  0  0.118728  0  0.891737  0  0  0.137574  0  0.939216  0  0  0.139197  0  0.938997  0  0  0.130167  0.136251  0  0.93985  0
H  H34  1  0.97310896  0.49804263  0.27901434  1  0  0.111378  0  0.936248  0  0  0.121286  0  0.998297  0  0  0.124524  0  0.995844  0  0  0.111267  0.118945  0  1.000125  0
H  H35  1  0.02689374  0.50196129  0.72099758  1  0  0.111269  0  0.936299  0  0  0.121208  0  0.998344  0  0  0.124437  0  0.995898  0  0  0.111249  0.118873  0  1.00017  0
C  C36  1  0.59484359  0.09807038  0.27604999  1  0  0.716517  0  3.831793  0  0  0.672733  0  4.13704  0  0  0.706337  0  4.127811  0  0  0.215987  0.649843  0  4.142402  0
C  C37  1  0.40515556  0.90193111  0.72393376  1  0  0.716849  0  3.831981  0  0  0.673005  0  4.137217  0  0  0.706578  0  4.12803  0  0  0.216119  0.650124  0  4.142571  0
C  C38  1  0.42373526  0.14231532  0.30524541  1  0  -0.162087  0  3.707441  0  0  -0.215019  0  3.962879  0  0  -0.216777  0  3.971834  0  0  -0.064757  -0.213887  0  3.956567  0
C  C39  1  0.57627300  0.85767823  0.69473126  1  0  -0.162208  0  3.707757  0  0  -0.215027  0  3.963065  0  0  -0.216749  0  3.971996  0  0  -0.064884  -0.21389  0  3.956755  0
C  C40  1  0.40960080  0.91809214  0.26980358  1  0  -0.178  0  3.720562  0  0  -0.230706  0  3.974186  0  0  -0.233101  0  3.981196  0  0  -0.068377  -0.229321  0  3.969104  0
C  C41  1  0.59039332  0.08189481  0.73019901  1  0  -0.177971  0  3.720295  0  0  -0.230781  0  3.974089  0  0  -0.233147  0  3.981038  0  0  -0.068369  -0.229458  0  3.969089  0
C  C42  1  0.40839202  0.77238295  0.35101507  1  0  0.748083  0  3.775449  0  0  0.696988  0  4.078854  0  0  0.732779  0  4.067965  0  0  0.240773  0.672353  0  4.085901  0
C  C43  1  0.59160310  0.22761034  0.64900571  1  0  0.74812  0  3.775501  0  0  0.696944  0  4.079056  0  0  0.732694  0  4.068217  0  0  0.240742  0.672327  0  4.0861  0
C  C44  1  0.19894391  0.08698333  0.40579529  1  0  -0.006068  0  3.653228  0  0  -0.061208  0  3.92  0  0  -0.057868  0  3.931678  0  0  -0.067812  -0.063413  0  3.911482  0
C  C45  1  0.80105724  0.91301872  0.59420027  1  0  -0.006111  0  3.653117  0  0  -0.061199  0  3.919836  0  0  -0.057862  0  3.931526  0  0  -0.0678  -0.063398  0  3.911301  0
C  C46  1  0.10888037  0.19465911  0.30125177  1  0  -0.162863  0  3.687006  0  0  -0.206818  0  3.950497  0  0  -0.208786  0  3.96567  0  0  -0.174581  -0.205303  0  3.939728  0
C  C47  1  0.89112612  0.80534834  0.69874082  1  0  -0.162838  0  3.686878  0  0  -0.206854  0  3.950415  0  0  -0.208852  0  3.965593  0  0  -0.174593  -0.205339  0  3.939641  0
C  C48  1  0.93967260  0.23807948  0.35207845  1  0  -0.011909  0  3.604749  0  0  -0.06665  0  3.872846  0  0  -0.063215  0  3.883842  0  0  -0.066452  -0.068661  0  3.86463  0
C  C49  1  0.06033471  0.76192566  0.64791166  1  0  -0.011961  0  3.604585  0  0  -0.066518  0  3.872491  0  0  -0.063088  0  3.883509  0  0  -0.06632  -0.068536  0  3.864295  0
C  C50  1  0.89927615  0.35151729  0.12610973  1  0  -0.187442  0  3.689723  0  0  -0.241137  0  3.946275  0  0  -0.243365  0  3.954183  0  0  -0.05695  -0.239425  0  3.94065  0
C  C51  1  0.10073249  0.64849587  0.87388744  1  0  -0.187505  0  3.689817  0  0  -0.241191  0  3.946496  0  0  -0.243429  0  3.954425  0  0  -0.056983  -0.239488  0  3.940878  0
C  C52  1  0.77901272  0.44109933  0.04658215  1  0  0.709738  0  3.767155  0  0  0.657475  0  4.073499  0  0  0.691158  0  4.064095  0  0  0.252646  0.634392  0  4.079787  0
C  C53  1  0.22098147  0.55891629  0.95342316  1  0  0.709753  0  3.767315  0  0  0.657506  0  4.073619  0  0  0.69117  0  4.064262  0  0  0.252694  0.634432  0  4.079906  0
C  C54  1  0.85773306  0.50402613  0.29300363  1  0  -0.181609  0  3.624089  0  0  -0.234387  0  3.875458  0  0  -0.23668  0  3.882864  0  0  -0.06399  -0.232878  0  3.870752  0
C  C55  1  0.14227100  0.49597109  0.70700590  1  0  -0.181533  0  3.624039  0  0  -0.23436  0  3.875498  0  0  -0.236653  0  3.882906  0  0  -0.064005  -0.232877  0  3.870847  0
C  C56  1  0.77157604  0.53545201  0.43512069  1  0  0.718363  0  3.790061  0  0  0.667863  0  4.090711  0  0  0.702253  0  4.082181  0  0  0.239665  0.644411  0  4.096196  0
C  C57  1  0.22842197  0.46454758  0.56489372  1  0  0.718415  0  3.789697  0  0  0.667832  0  4.090511  0  0  0.702231  0  4.081958  0  0  0.239601  0.644368  0  4.096022  0
N  N58  1  0.36053675  0.02937803  0.35408086  1  0  -0.156548  0  3.312703  0  0  -0.088942  0  3.571826  0  0  -0.10113  0  3.592021  0  0  -0.340693  -0.079764  0  3.556691  0
N  N59  1  0.63946655  0.97061517  0.64591267  1  0  -0.156263  0  3.312434  0  0  -0.088693  0  3.571539  0  0  -0.100897  0  3.591704  0  0  -0.340673  -0.079497  0  3.556418  0
N  N60  1  0.84898779  0.36944506  0.26972249  1  0  -0.235274  0  3.264657  0  0  -0.157769  0  3.516488  0  0  -0.173848  0  3.538796  0  0  -0.369781  -0.146803  0  3.500659  0
N  N61  1  0.15101291  0.63055833  0.73027859  1  0  -0.23515  0  3.264531  0  0  -0.157743  0  3.516412  0  0  -0.173832  0  3.53873  0  0  -0.369742  -0.146785  0  3.500595  0
O  O62  1  0.63371425  0.21202957  0.25352016  1  0  -0.783356  0  1.998827  0  0  -0.721507  0  2.263676  0  0  -0.754423  0  2.251331  0  0  -0.457231  -0.697889  0  2.270823  0
O  O63  1  0.36628836  0.78796276  0.74647861  1  0  -0.783506  0  1.99866  0  0  -0.721636  0  2.263537  0  0  -0.754576  0  2.251199  0  0  -0.457308  -0.698042  0  2.270669  0
O  O64  1  0.68337726  0.97183950  0.26900020  1  0  -0.587639  0  1.844983  0  0  -0.554288  0  2.043715  0  0  -0.574778  0  2.033803  0  0  -0.334315  -0.540329  0  2.050429  0
O  O65  1  0.31663547  0.02815000  0.73095902  1  0  -0.587712  0  1.845549  0  0  -0.55436  0  2.044305  0  0  -0.574839  0  2.034412  0  0  -0.334277  -0.540402  0  2.051014  0
O  O66  1  0.37925507  0.75856832  0.47887337  1  0  -0.680943  0  2.083097  0  0  -0.623198  0  2.346181  0  0  -0.653566  0  2.337621  0  0  -0.370562  -0.602033  0  2.351073  0
O  O67  1  0.62074623  0.24143647  0.52113389  1  0  -0.68103  0  2.083055  0  0  -0.623276  0  2.346194  0  0  -0.653608  0  2.337643  0  0  -0.37062  -0.602085  0  2.351086  0
O  O68  1  0.44251660  0.66925161  0.28301091  1  0  -0.73454  0  2.026989  0  0  -0.67243  0  2.271701  0  0  -0.70138  0  2.258645  0  0  -0.374477  -0.652409  0  2.280339  0
O  O69  1  0.55746369  0.33073064  0.71701123  1  0  -0.734464  0  2.027284  0  0  -0.672304  0  2.272023  0  0  -0.701258  0  2.258986  0  0  -0.374376  -0.652303  0  2.280644  0
O  O70  1  0.64188423  0.52182002  0.46973884  1  0  -0.777138  0  2.162861  0  0  -0.699291  0  2.417795  0  0  -0.733145  0  2.410608  0  0  -0.399172  -0.675529  0  2.421974  0
O  O71  1  0.35812289  0.47816314  0.53027465  1  0  -0.777109  0  2.162785  0  0  -0.699333  0  2.417887  0  0  -0.733195  0  2.410702  0  0  -0.399179  -0.675564  0  2.422074  0
O  O72  1  0.82576212  0.56967540  0.51131591  1  0  -0.563088  0  1.945032  0  0  -0.51638  0  2.159805  0  0  -0.538916  0  2.149048  0  0  -0.289751  -0.500971  0  2.167395  0
O  O73  1  0.17421551  0.43032837  0.48869723  1  0  -0.563193  0  1.944635  0  0  -0.516415  0  2.159371  0  0  -0.538955  0  2.148608  0  0  -0.289764  -0.501005  0  2.166973  0
O  O74  1  0.64470569  0.48817413  0.10130280  1  0  -0.5779  0  2.009432  0  0  -0.525088  0  2.240229  0  0  -0.549159  0  2.229449  0  0  -0.308705  -0.508812  0  2.248067  0
O  O75  1  0.35528993  0.51182600  0.89869963  1  0  -0.577934  0  2.009399  0  0  -0.525108  0  2.240217  0  0  -0.549191  0  2.229439  0  0  -0.308761  -0.508858  0  2.248051  0
O  O76  1  0.83161074  0.45764683  0.91534358  1  0  -0.548855  0  2.080197  0  0  -0.499306  0  2.299823  0  0  -0.522312  0  2.2826  0  0  -0.32161  -0.483128  0  2.310477  0
O  O77  1  0.16837884  0.54237861  0.08466129  1  0  -0.5488  0  2.080395  0  0  -0.499316  0  2.300044  0  0  -0.522313  0  2.28278  0  0  -0.321666  -0.483143  0  2.310691  0
O  O78  1  0.32614985  0.49279298  0.25504063  1  0  -0.837319  0  1.93085  0  0  -0.772428  0  2.120239  0  0  -0.797233  0  2.089821  0  0  -0.567554  -0.755196  0  2.140574  0
O  O79  1  0.67383488  0.50719988  0.74497257  1  0  -0.837243  0  1.930892  0  0  -0.772356  0  2.120365  0  0  -0.797177  0  2.089987  0  0  -0.567563  -0.755145  0  2.140707  0
