# generated using pymatgen
data_Gd2CuH26C22(NO11)2
_symmetry_space_group_name_H-M   'P 1'
_cell_length_a   6.05969797
_cell_length_b   8.95664606
_cell_length_c   13.54118801
_cell_angle_alpha   85.36711678
_cell_angle_beta   85.82093611
_cell_angle_gamma   87.86124383
_symmetry_Int_Tables_number   1
_chemical_formula_structural   Gd2CuH26C22(NO11)2
_chemical_formula_sum   'Gd2 Cu1 H26 C22 N2 O22'
_cell_volume   730.22782983
_cell_formula_units_Z   1
loop_
 _symmetry_equiv_pos_site_id
 _symmetry_equiv_pos_as_xyz
  1  'x, y, z'
loop_
 _atom_site_type_symbol
 _atom_site_label
 _atom_site_symmetry_multiplicity
 _atom_site_fract_x
 _atom_site_fract_y
 _atom_site_fract_z
 _atom_site_occupancy
 _atom_site_hle17_ddec_charge
 _atom_site_hle17_ddec_spin_density
 _atom_site_hle17_ddec_sum_bond_order
 _atom_site_hle17_magmom
 _atom_site_hse06_10hf_ddec_charge
 _atom_site_hse06_10hf_ddec_spin_density
 _atom_site_hse06_10hf_ddec_sum_bond_order
 _atom_site_hse06_10hf_magmom
 _atom_site_hse06_ddec_charge
 _atom_site_hse06_ddec_spin_density
 _atom_site_hse06_ddec_sum_bond_order
 _atom_site_hse06_magmom
 _atom_site_pbe_cm5_charge
 _atom_site_pbe_ddec_charge
 _atom_site_pbe_ddec_spin_density
 _atom_site_pbe_ddec_sum_bond_order
 _atom_site_pbe_magmom
Gd  Gd0  1  0.10807183  0.34468149  0.39311146  1  2.194781  -5.6e-05  1.70331  0.0  2.103535  -4.7e-05  2.043176  0.0  2.155668  -2.3e-05  1.992594  0.0  1.441951  2.062031  -7.8e-05  2.085413  0.0
Gd  Gd1  1  0.89192883  0.65531595  0.60688902  1  2.194697  -5.7e-05  1.703388  0.0  2.103483  -4.7e-05  2.043203  0.0  2.155623  -2.2e-05  1.99261  0.0  1.44194  2.062015  -7.8e-05  2.085381  0.0
Cu  Cu2  1  0.49999779  0.00000360  0.99999946  1  0.83919  -0.694391  1.83939  -0.513  0.80239  -0.775092  2.244108  -0.621  0.892  -0.83732  2.174551  -0.702  0.753266  0.746983  -0.730784  2.292232  -0.568
H  H3  1  0.58984258  0.19702812  0.34801999  1  0.433707  1e-06  0.862785  0.0  0.408043  2e-06  0.917652  0.0  0.418489  2e-06  0.90241  0.0  0.304265  0.40061  2e-06  0.928497  0.0
H  H4  1  0.41015809  0.80296932  0.65198049  1  0.433715  0.0  0.86278  0.0  0.40804  2e-06  0.917669  0.0  0.418487  1e-06  0.902425  0.0  0.304269  0.400609  2e-06  0.928513  0.0
H  H5  1  0.44792620  0.22518822  0.24854211  1  0.432219  -5.3e-05  0.873368  0.0  0.401097  -4e-05  0.936476  0.0  0.413474  -3.9e-05  0.918605  0.0  0.293566  0.392454  -4.2e-05  0.948886  0.0
H  H6  1  0.55207770  0.77481157  0.75145598  1  0.432202  -5.3e-05  0.873403  0.0  0.401066  -4e-05  0.936528  0.0  0.413451  -3.9e-05  0.918649  0.0  0.293553  0.392424  -4.2e-05  0.948937  0.0
H  H7  1  0.90206581  0.09017673  0.31115032  1  0.434396  -1.1e-05  0.872223  0.0  0.402309  -4.3e-05  0.93938  0.0  0.412806  -1.3e-05  0.924249  0.0  0.302239  0.394825  -7.7e-05  0.950147  0.0
H  H8  1  0.09793155  0.90982070  0.68885101  1  0.434405  -1.1e-05  0.872214  0.0  0.402326  -4.3e-05  0.939362  0.0  0.412818  -1.3e-05  0.924236  0.0  0.302248  0.394841  -7.7e-05  0.95013  0.0
H  H9  1  0.84123302  0.03787485  0.42407624  1  0.440682  6e-06  0.856925  0.0  0.410965  5e-06  0.918478  0.0  0.422177  4e-06  0.902332  0.0  0.299884  0.40263  5e-06  0.930492  0.0
H  H10  1  0.15876931  0.96212254  0.57592492  1  0.440601  4e-06  0.857058  0.0  0.410889  4e-06  0.918592  0.0  0.422098  4e-06  0.902451  0.0  0.299852  0.402554  5e-06  0.930603  0.0
H  H11  1  0.65396196  0.41445768  0.32073539  1  0.442275  0.0  0.843679  0.0  0.416727  0.0  0.90019  0.0  0.42711  1e-06  0.884767  0.0  0.310163  0.409353  -0.0  0.911149  0.0
H  H12  1  0.34603858  0.58554334  0.67926130  1  0.442237  -0.0  0.843752  0.0  0.416684  -0.0  0.900265  0.0  0.427068  0.0  0.884839  0.0  0.310144  0.409311  -0.0  0.911221  0.0
H  H13  1  0.69370087  0.53003995  0.39893972  1  0.439343  1e-06  0.8632  0.0  0.4075  2e-06  0.928881  0.0  0.418099  1e-06  0.913694  0.0  0.306937  0.399788  1e-06  0.939911  0.0
H  H14  1  0.30629644  0.46995876  0.60105861  1  0.439319  2e-06  0.863236  0.0  0.407479  2e-06  0.928901  0.0  0.418077  1e-06  0.913716  0.0  0.306935  0.399765  1e-06  0.939937  0.0
H  H15  1  0.22254314  0.41128820  0.97238587  1  0.106016  -0.000144  0.915747  0.0  0.12088  5.2e-05  0.964683  0.0  0.123433  6e-05  0.963668  0.0  0.117104  0.118839  4.6e-05  0.965828  0.0
H  H16  1  0.77746924  0.58870472  0.02761360  1  0.106008  -0.000141  0.915821  0.0  0.120887  5.1e-05  0.964731  0.0  0.123467  6.1e-05  0.963681  0.0  0.11712  0.118847  4.6e-05  0.965875  0.0
H  H17  1  0.97667994  0.42065225  0.83038083  1  0.129447  -0.000418  0.951028  0.0  0.136281  -0.000414  1.012056  0.0  0.140248  -0.000309  1.010246  0.0  0.120209  0.133398  -0.000503  1.013223  -0.001
H  H18  1  0.02333740  0.57934067  0.16961774  1  0.129456  -0.00042  0.951057  0.0  0.136298  -0.000414  1.012065  0.0  0.140261  -0.000309  1.010263  0.0  0.120248  0.133417  -0.000503  1.013231  -0.001
H  H19  1  0.65274845  0.25140035  0.84406134  1  0.101529  -0.000926  0.940102  -0.002  0.108622  -0.00078  1.004055  -0.002  0.111684  -0.000569  1.000623  -0.001  0.126885  0.106109  -0.000945  1.006864  -0.002
H  H20  1  0.34725693  0.74860502  0.15593654  1  0.101521  -0.000928  0.940146  -0.002  0.10863  -0.000779  1.004085  -0.002  0.111691  -0.000569  1.000655  -0.001  0.126914  0.106117  -0.000945  1.006894  -0.002
H  H21  1  0.42437956  0.04496774  0.67184538  1  0.104451  2.1e-05  0.962922  0.0  0.117833  5e-06  1.022679  0.0  0.120707  3e-06  1.02111  0.0  0.102901  0.115858  4e-06  1.023757  0.0
H  H22  1  0.57561608  0.95503189  0.32815668  1  0.104487  2.5e-05  0.962871  0.0  0.117863  5e-06  1.022641  0.0  0.120737  3e-06  1.02107  0.0  0.102916  0.115888  4e-06  1.023718  0.0
H  H23  1  0.38614534  0.22877743  0.70785174  1  0.129795  -8.8e-05  0.91249  0.0  0.143396  -9.1e-05  0.970528  0.0  0.146953  -6.4e-05  0.967688  0.0  0.112721  0.140754  -0.00012  0.972856  0.0
H  H24  1  0.61385857  0.77122218  0.29214930  1  0.1298  -8.8e-05  0.912424  0.0  0.143407  -9.1e-05  0.970468  0.0  0.146964  -6.4e-05  0.967627  0.0  0.112733  0.140765  -0.00012  0.972798  0.0
H  H25  1  0.78898039  0.11667524  0.57889352  1  0.109909  -3e-06  0.944582  0.0  0.122839  -4e-06  1.005836  0.0  0.125439  -2e-06  1.004993  0.0  0.106653  0.120849  -4e-06  1.006858  0.0
H  H26  1  0.21101540  0.88331896  0.42110573  1  0.109936  -5e-06  0.944582  0.0  0.122836  -4e-06  1.005863  0.0  0.125443  -2e-06  1.005026  0.0  0.106672  0.120847  -4e-06  1.006879  0.0
H  H27  1  0.78065409  0.13130636  0.70819388  1  0.128618  4.6e-05  0.928015  0.0  0.143153  2.5e-05  0.986005  0.0  0.145843  2.5e-05  0.98481  0.0  0.112313  0.141316  2.6e-05  0.986873  0.0
H  H28  1  0.21934670  0.86868665  0.29180598  1  0.128592  4.6e-05  0.928097  0.0  0.143136  2.5e-05  0.986061  0.0  0.145834  2.5e-05  0.984874  0.0  0.1123  0.141298  2.6e-05  0.986928  0.0
C  C29  1  0.86140430  0.14330869  0.05776032  1  0.069859  0.007833  3.71915  0.005  0.06569  0.002041  3.962142  0.001  0.069497  0.003362  3.981625  0.002  0.108027  0.062644  0.001052  3.949633  0.0
C  C30  1  0.13858770  0.85670212  0.94224228  1  0.069877  0.007796  3.719012  0.005  0.065798  0.002044  3.961911  0.001  0.069604  0.003356  3.981391  0.002  0.108092  0.062761  0.001052  3.949403  0.0
C  C31  1  0.03332563  0.24212697  0.06013373  1  -0.079761  -0.004886  3.685375  -0.005  -0.067183  -0.001702  3.926426  -0.002  -0.074971  -0.001687  3.945097  -0.002  0.005616  -0.063983  -0.001711  3.915903  -0.002
C  C32  1  0.96666977  0.75788058  0.93986663  1  -0.079604  -0.004864  3.685225  -0.005  -0.067056  -0.001707  3.926256  -0.002  -0.074844  -0.001682  3.944936  -0.002  0.005695  -0.063871  -0.001711  3.915753  -0.002
C  C33  1  0.08085044  0.33919676  0.97540519  1  -0.009417  0.011464  3.675972  0.007  -0.037508  0.004371  3.92841  0.002  -0.032902  0.004926  3.944148  0.003  -0.054898  -0.041533  0.003897  3.918789  0.002
C  C34  1  0.91915343  0.66080406  0.02459435  1  -0.009462  0.011412  3.676058  0.007  -0.03756  0.004376  3.928501  0.002  -0.032973  0.004917  3.944238  0.003  -0.054917  -0.04158  0.003897  3.918886  0.002
C  C35  1  0.94616268  0.34410254  0.89622600  1  -0.082803  -0.009053  3.656041  -0.01  -0.098683  -0.003927  3.910916  -0.005  -0.103331  -0.003542  3.926501  -0.004  -0.065613  -0.094515  -0.004204  3.899582  -0.005
C  C36  1  0.05384459  0.65589497  0.10377203  1  -0.082799  -0.009021  3.655972  -0.01  -0.098691  -0.003929  3.910887  -0.005  -0.103337  -0.003537  3.926472  -0.004  -0.065651  -0.09452  -0.004204  3.899553  -0.005
C  C37  1  0.76757316  0.24908528  0.90234170  1  0.149251  0.0102  3.637772  0.007  0.115921  0.0026  3.898606  0.002  0.126815  0.004208  3.91298  0.003  0.05925  0.108816  0.001331  3.888682  0.001
C  C38  1  0.23243064  0.75091778  0.09765777  1  0.149243  0.010176  3.637632  0.007  0.115858  0.002605  3.898501  0.002  0.126753  0.004201  3.912874  0.003  0.059233  0.108755  0.001331  3.888584  0.001
C  C39  1  0.81327616  0.01642965  0.13541532  1  0.618712  0.006748  3.89748  0.006  0.569289  0.000954  4.201844  0.001  0.60481  0.001159  4.196358  0.001  0.213331  0.545187  0.000869  4.204704  0.001
C  C40  1  0.18671267  0.98357666  0.86458826  1  0.618649  0.006749  3.897494  0.006  0.56911  0.000952  4.202029  0.001  0.60463  0.00116  4.196545  0.001  0.213285  0.545006  0.000869  4.204885  0.001
C  C41  1  0.16567907  0.24802455  0.14973923  1  0.697711  -0.000677  3.896218  -0.001  0.645961  -0.00061  4.20137  -0.001  0.682  -0.000341  4.190634  0.0  0.225747  0.62184  -0.00096  4.2075  -0.001
C  C42  1  0.83431480  0.75197858  0.85026058  1  0.69764  -0.000678  3.896298  -0.001  0.645915  -0.000609  4.20143  -0.001  0.68195  -0.000341  4.190707  0.0  0.225763  0.621799  -0.00096  4.207565  -0.001
C  C43  1  0.35172317  0.21158812  0.55501440  1  0.718393  9e-06  3.78049  0.0  0.671574  5e-06  4.078607  0.0  0.704572  6e-06  4.071888  0.0  0.21455  0.649069  -6e-06  4.082244  0.0
C  C44  1  0.64827749  0.78840932  0.44498607  1  0.718362  4e-06  3.780742  0.0  0.671502  5e-06  4.078915  0.0  0.7045  6e-06  4.072197  0.0  0.214515  0.648993  -6e-06  4.082546  0.0
C  C45  1  0.46100134  0.16140844  0.64896045  1  -0.240332  -2.6e-05  3.654041  0.0  -0.277717  -5.3e-05  3.897735  0.0  -0.282364  -3.1e-05  3.903082  0.0  -0.161577  -0.274701  -8e-05  3.894346  0.0
C  C46  1  0.53899926  0.83859115  0.35104144  1  -0.240379  -3.7e-05  3.654026  0.0  -0.277775  -5.6e-05  3.897752  0.0  -0.282411  -2.9e-05  3.903114  0.0  -0.161623  -0.27476  -8e-05  3.894366  0.0
C  C47  1  0.71219319  0.17945895  0.63912626  1  -0.240032  2.7e-05  3.628029  0.0  -0.278816  2.2e-05  3.873729  0.0  -0.284113  2e-05  3.879897  0.0  -0.156224  -0.275239  1.8e-05  3.869845  0.0
C  C48  1  0.28780743  0.82053970  0.36087270  1  -0.239933  3.6e-05  3.62826  0.0  -0.278743  2.6e-05  3.873926  0.0  -0.284085  1.6e-05  3.880146  0.0  -0.156186  -0.27516  1.8e-05  3.870036  0.0
C  C49  1  0.77826927  0.34051076  0.62377261  1  0.752521  -4e-06  3.797645  0.0  0.707865  -2e-06  4.100054  0.0  0.742485  -6e-06  4.090334  0.0  0.220175  0.684333  -1e-05  4.105456  0.0
C  C50  1  0.22173628  0.65948901  0.37622542  1  0.752391  -7e-06  3.79793  0.0  0.707878  -4e-06  4.100111  0.0  0.742509  -5e-06  4.090389  0.0  0.220207  0.684342  -1e-05  4.105515  0.0
N  N51  1  0.73258066  0.14870566  0.98015929  1  -0.305258  -0.071068  3.382021  -0.092  -0.263443  -0.049128  3.683287  -0.067  -0.292304  -0.040681  3.703341  -0.06  -0.350236  -0.245062  -0.053664  3.670448  -0.07
N  N52  1  0.26741299  0.85130522  0.01984178  1  -0.305342  -0.07105  3.381984  -0.092  -0.263493  -0.04913  3.68319  -0.067  -0.292353  -0.040679  3.703242  -0.06  -0.350385  -0.245114  -0.053664  3.670355  -0.07
O  O53  1  0.65998263  0.92885820  0.11713162  1  -0.568507  -0.086716  2.061996  -0.12  -0.541985  -0.058426  2.349419  -0.088  -0.584841  -0.04508  2.343793  -0.073  -0.314827  -0.513745  -0.067121  2.353657  -0.096
O  O54  1  0.34000627  0.07114497  0.88286834  1  -0.568427  -0.086706  2.061951  -0.12  -0.541853  -0.058421  2.349418  -0.088  -0.584711  -0.045077  2.343801  -0.073  -0.314777  -0.513612  -0.067117  2.353656  -0.096
O  O55  1  0.46173226  0.25233472  0.31949928  1  -0.929499  -7.4e-05  1.928185  0.0  -0.878655  -3.3e-05  2.108487  0.0  -0.899879  -2.4e-05  2.075246  0.0  -0.629474  -0.862973  -5.5e-05  2.131669  0.0
O  O56  1  0.53826516  0.74766051  0.68050137  1  -0.929477  -7.3e-05  1.928254  0.0  -0.878609  -3.3e-05  2.108545  0.0  -0.899843  -2.4e-05  2.075297  0.0  -0.629442  -0.862928  -5.5e-05  2.131722  0.0
O  O57  1  0.92584066  0.99791487  0.20983536  1  -0.588407  -0.013592  2.001978  -0.018  -0.538824  -0.006951  2.226564  -0.01  -0.565059  -0.003164  2.219932  -0.005  -0.29673  -0.519651  -0.011153  2.229882  -0.015
O  O58  1  0.07414989  0.00208833  0.79016381  1  -0.588372  -0.013596  2.001958  -0.018  -0.538783  -0.006951  2.226633  -0.01  -0.56501  -0.003165  2.219987  -0.005  -0.29671  -0.519607  -0.011155  2.229944  -0.015
O  O59  1  0.86658580  0.13043619  0.37774576  1  -0.911745  -4.8e-05  1.893527  0.0  -0.866073  -3.4e-05  2.081867  0.0  -0.887261  -0.0  2.049839  0.0  -0.614959  -0.850639  -6.8e-05  2.105411  0.0
O  O60  1  0.13341318  0.86956234  0.62225548  1  -0.911674  -4.7e-05  1.893603  0.0  -0.865994  -3.4e-05  2.081928  0.0  -0.887178  0.0  2.049918  0.0  -0.614936  -0.85056  -6.8e-05  2.10547  0.0
O  O61  1  0.77094225  0.47047559  0.34698359  1  -0.895748  -2e-06  1.870409  0.0  -0.8601  -1.1e-05  2.062042  0.0  -0.879361  -6e-06  2.030728  0.0  -0.64432  -0.845902  -2.4e-05  2.084495  0.0
O  O62  1  0.22905837  0.52952301  0.65301611  1  -0.895689  -3e-06  1.870475  0.0  -0.860024  -1.1e-05  2.062109  0.0  -0.879287  -6e-06  2.030797  0.0  -0.644315  -0.845853  -2.4e-05  2.084591  0.0
O  O63  1  0.36505505  0.20120789  0.14269927  1  -0.612629  0.000103  1.969928  -0.001  -0.571237  0.000661  2.200664  0.0  -0.598794  0.001016  2.189848  0.0  -0.302207  -0.55214  0.000243  2.207716  -0.001
O  O64  1  0.63494541  0.79879631  0.85730028  1  -0.61261  0.000104  1.970079  -0.001  -0.571224  0.00066  2.200808  0.0  -0.598783  0.001016  2.19  0.0  -0.302219  -0.552128  0.000243  2.207861  -0.001
O  O65  1  0.06674505  0.30839752  0.22347460  1  -0.714572  -0.00135  2.026277  -0.002  -0.665179  -0.000856  2.270747  -0.001  -0.692354  -0.00052  2.260944  -0.001  -0.393495  -0.645559  -0.001214  2.276931  -0.002
O  O66  1  0.93326216  0.69160215  0.77652485  1  -0.714594  -0.001348  2.026209  -0.002  -0.665213  -0.000855  2.270656  -0.001  -0.692388  -0.000521  2.260852  -0.001  -0.393536  -0.645595  -0.001214  2.276839  -0.002
O  O67  1  0.22609966  0.12624060  0.51426821  1  -0.693298  -1.4e-05  1.983644  0.0  -0.642296  -9e-06  2.215107  0.0  -0.668674  -1e-06  2.206415  0.0  -0.344464  -0.623315  -8e-06  2.22115  0.0
O  O68  1  0.77390112  0.87375336  0.48573458  1  -0.693317  -1.1e-05  1.983695  0.0  -0.642307  -8e-06  2.215173  0.0  -0.66869  -2e-06  2.20649  0.0  -0.344447  -0.623325  -8e-06  2.221216  0.0
O  O69  1  0.38224206  0.34530878  0.51614979  1  -0.688575  -1.1e-05  2.02059  0.0  -0.63006  -5e-06  2.247978  0.0  -0.656304  -2e-06  2.240169  0.0  -0.359217  -0.61104  -1.1e-05  2.252863  0.0
O  O70  1  0.61776019  0.65469089  0.48385057  1  -0.688518  -1e-05  2.020661  0.0  -0.629955  -5e-06  2.248017  0.0  -0.656197  -2e-06  2.24021  0.0  -0.359203  -0.610936  -1.1e-05  2.252895  0.0
O  O71  1  0.90508559  0.38477524  0.54777781  1  -0.804792  1e-06  2.143556  0.0  -0.759805  -1e-06  2.404121  0.0  -0.787463  -0.0  2.395325  0.0  -0.421786  -0.739289  -3e-06  2.409323  0.0
O  O72  1  0.09491671  0.61522236  0.45221965  1  -0.804744  -1e-06  2.143606  0.0  -0.759814  -3e-06  2.404074  0.0  -0.787465  1e-06  2.395263  0.0  -0.421818  -0.739343  -3e-06  2.409373  0.0
O  O73  1  0.71356709  0.43325809  0.68686954  1  -0.68779  -2.5e-05  1.936388  0.0  -0.643131  -3.4e-05  2.169738  0.0  -0.668356  -2.3e-05  2.160324  0.0  -0.37108  -0.624917  -3.9e-05  2.175457  0.0
O  O74  1  0.28643861  0.56673703  0.31313157  1  -0.687833  -2.3e-05  1.936478  0.0  -0.643166  -3.2e-05  2.169704  0.0  -0.668386  -2.5e-05  2.160276  0.0  -0.371116  -0.624948  -3.9e-05  2.175432  0.0
