# generated using pymatgen
data_Zn4H53C97NO13
_symmetry_space_group_name_H-M   'P 1'
_cell_length_a   17.88631246
_cell_length_b   17.83736185
_cell_length_c   17.80792059
_cell_angle_alpha   65.12318831
_cell_angle_beta   68.79387841
_cell_angle_gamma   86.55122431
_symmetry_Int_Tables_number   1
_chemical_formula_structural   Zn4H53C97NO13
_chemical_formula_sum   'Zn4 H53 C97 N1 O13'
_cell_volume   4776.81207339
_cell_formula_units_Z   1
loop_
 _symmetry_equiv_pos_site_id
 _symmetry_equiv_pos_as_xyz
  1  'x, y, z'
loop_
 _atom_site_type_symbol
 _atom_site_label
 _atom_site_symmetry_multiplicity
 _atom_site_fract_x
 _atom_site_fract_y
 _atom_site_fract_z
 _atom_site_occupancy
 _atom_site_pbe_bader_charge
 _atom_site_pbe_bader_spin_density
 _atom_site_pbe_cm5_charge
 _atom_site_pbe_ddec_charge
 _atom_site_pbe_ddec_spin_density
 _atom_site_pbe_ddec_sum_bond_order
 _atom_site_pbe_magmom
Zn  Zn0  1  0.55853658  0.44314624  0.56753279  1  1.310905  0  0.668437  0.960961  0  2.369119  0
Zn  Zn1  1  0.39901656  0.53152754  0.57115474  1  1.308553  0  0.667832  0.958995  0  2.39025  0
Zn  Zn2  1  0.46281756  0.43549265  0.45061658  1  1.317683  0  0.6754  0.963865  0  2.40347  0
Zn  Zn3  1  0.56257073  0.60842512  0.39505666  1  1.319744  0  0.679936  0.979482  0  2.325713  0
H  H4  1  0.03951598  0.72258246  0.38274117  1  0.053476  0  0.106807  0.106872  0  0.988447  0
H  H5  1  0.18111432  0.53651726  0.50452020  1  0.053657  0  0.108412  0.11174  0  1.010888  0
H  H6  1  0.32240952  0.94363423  0.40213521  1  0.078835  0  0.102242  0.104197  0  1.018354  0
H  H7  1  0.53484857  0.51705533  0.78547135  1  0.081004  0  0.102014  0.101827  0  1.038776  0
H  H8  1  0.31410263  0.37166393  0.86555153  1  0.087475  0  0.106177  0.111511  0  0.99245  0
H  H9  1  0.33134393  0.34375368  0.13720496  1  0.06767  0  0.099786  0.102351  0  1.029125  0
H  H10  1  0.70782914  0.68141540  0.95894291  1  0.102506  0  0.102062  0.107346  0  1.026358  0
H  H11  1  0.47189691  0.49216106  0.20456650  1  0.112699  0  0.103393  0.109566  0  1.066097  0
H  H12  1  0.57620637  0.59792458  0.81406527  1  0.072087  0  0.100074  0.100781  0  1.038452  0
H  H13  1  0.28631414  0.33775141  0.02494725  1  0.049789  0  0.102819  0.103485  0  0.994033  0
H  H14  1  0.92166668  0.75818573  0.34056550  1  0.039988  0  0.10375  0.10385  0  0.993133  0
H  H15  1  0.07093332  0.23952952  0.66080860  1  0.09512  0  0.10762  0.117712  0  1.007486  0
H  H16  1  0.78660813  0.71568412  0.34924857  1  0.112857  0  0.111958  0.117437  0  0.996508  0
H  H17  1  0.79682401  0.46529836  0.52285361  1  0.098189  0  0.10754  0.11419  0  1.019536  0
H  H18  1  0.11728149  0.61963391  0.45445444  1  0.075807  0  0.106855  0.107991  0  1.00676  0
H  H19  1  0.85895441  0.38272091  0.58070188  1  0.079951  0  0.115479  0.123183  0  0.994323  0
H  H20  1  0.64044881  0.89730000  0.41665346  1  0.076757  0  0.104084  0.105  0  0.990304  0
H  H21  1  0.75923623  0.82837448  0.44311066  1  0.049838  0  0.098584  0.091943  0  0.996562  0
H  H22  1  0.74066354  0.68346360  0.56000175  1  0.051226  0  0.097153  0.091126  0  1.012164  0
H  H23  1  0.60270124  0.60786949  0.64958334  1  0.06511  0  0.094797  0.092373  0  1.028554  0
H  H24  1  0.48372537  0.67833481  0.62617821  1  0.068415  0  0.100749  0.105223  0  1.005901  0
H  H25  1  0.42203570  0.07941821  0.26941840  1  0.050469  0  0.102841  0.103573  0  0.991648  0
H  H26  1  0.58564585  0.90851339  0.69254402  1  0.077769  0  0.098241  0.100642  0  1.023645  0
H  H27  1  0.33816831  0.15903832  0.18393851  1  0.048898  0  0.100265  0.095714  0  0.995661  0
H  H28  1  0.21233549  0.20946630  0.25834675  1  0.064296  0  0.098002  0.090937  0  1.001147  0
H  H29  1  0.17300653  0.18189396  0.41752181  1  0.049817  0  0.100196  0.095119  0  0.99347  0
H  H30  1  0.25801223  0.10297483  0.50224948  1  0.0447  0  0.098006  0.095343  0  1.021589  0
H  H31  1  0.73470692  0.62479193  0.75261441  1  0.075343  0  0.100489  0.100972  0  0.99784  0
H  H32  1  0.82589508  0.74649686  0.62372063  1  0.045587  0  0.099867  0.093953  0  0.998457  0
H  H33  1  0.81560599  0.88692781  0.62264598  1  0.036195  0  0.102619  0.098259  0  0.992319  0
H  H34  1  0.71391584  0.90432474  0.75184652  1  0.050769  0  0.101856  0.096605  0  0.996734  0
H  H35  1  0.62254741  0.78265268  0.88034494  1  0.067862  0  0.101936  0.10203  0  0.998347  0
H  H36  1  0.70284081  0.78663305  0.02984638  1  0.070969  0  0.100161  0.098882  0  1.001579  0
H  H37  1  0.34391692  0.79802377  0.42473197  1  0.058791  0  0.106086  0.10954  0  0.98284  0
H  H38  1  0.80934286  0.84333842  0.05637341  1  0.025308  0  0.100504  0.095939  0  0.994839  0
H  H39  1  0.87347878  0.74805700  0.15917271  1  0.060309  0  0.096238  0.089292  0  1.005611  0
H  H40  1  0.83063806  0.59586897  0.23421119  1  0.03599  0  0.097359  0.092829  0  0.999966  0
H  H41  1  0.72420859  0.53945317  0.20745992  1  0.062522  0  0.099157  0.098294  0  0.995906  0
H  H42  1  0.53317041  0.34000216  0.18673999  1  0.067711  0  0.102424  0.103239  0  0.988658  0
H  H43  1  0.50889532  0.26864649  0.34782134  1  0.039995  0  0.101468  0.098347  0  1.00097  0
H  H44  1  0.37682716  0.27303881  0.46028323  1  0.049389  0  0.096779  0.094588  0  1.027694  0
H  H45  1  0.27028917  0.34699724  0.40972493  1  0.058919  0  0.096429  0.092685  0  1.008384  0
H  H46  1  0.29492934  0.41872057  0.24760037  1  0.042596  0  0.098699  0.09783  0  1.001661  0
H  H47  1  0.26701564  0.32538142  0.70414205  1  0.056838  0  0.101891  0.103573  0  1.00522  0
H  H48  1  0.61082978  0.03486766  0.70960868  1  0.040461  0  0.102166  0.103032  0  1.00135  0
H  H49  1  0.35370568  0.21849619  0.75679039  1  0.04937  0  0.102839  0.100162  0  0.989669  0
H  H50  1  0.36116825  0.09178063  0.72923845  1  0.082948  0  0.102057  0.099767  0  0.995269  0
H  H51  1  0.28044810  0.07285373  0.64902328  1  0.075999  0  0.101299  0.099152  0  0.997892  0
H  H52  1  0.19464570  0.18127880  0.59420090  1  0.060892  0  0.100713  0.098451  0  1.010163  0
H  H53  1  0.59778096  0.18522995  0.67273114  1  0.08685  0  0.106489  0.11344  0  0.99347  0
H  H54  1  0.47995418  0.19958268  0.49744858  1  0.104398  0  0.104478  0.104345  0  1.057063  0
H  H55  1  0.53740837  0.84219359  0.62218921  1  0.112823  0  0.100682  0.105426  0  1.039481  0
H  H56  1  0.42131041  0.14103292  0.46357984  1  0.074503  0  0.098664  0.098534  0  1.069258  0
C  C57  1  0.45566873  0.71039362  0.47389933  1  1.591845  0  0.232058  0.621486  0  4.181038  0
C  C58  1  0.91969943  0.40274667  0.56998929  1  -0.006437  0  -0.067498  -0.143793  0  3.935851  0
C  C59  1  0.96548859  0.34305558  0.60532454  1  0.067933  0  0.004126  0.013968  0  4.088676  0
C  C60  1  0.53055894  0.29044460  0.55623385  1  1.513843  0  0.224812  0.602714  0  4.164368  0
C  C61  1  0.04671839  0.36520302  0.59250342  1  0.026777  0  0.003281  0.051061  0  3.996324  0
C  C62  1  0.07681621  0.45118161  0.54666395  1  0.00096  0  -0.002096  0.03432  0  3.974287  0
C  C63  1  0.09605986  0.30471107  0.62403234  1  -0.080985  0  -0.085649  -0.181709  0  3.94238  0
C  C64  1  0.17481652  0.32580540  0.61089592  1  -0.017085  0  0.006697  0.065966  0  3.977427  0
C  C65  1  0.15550066  0.47188942  0.53734326  1  -0.052312  0  -0.078135  -0.13357  0  3.951647  0
C  C66  1  0.53805848  0.20026784  0.58176104  1  0.001053  0  -0.027189  -0.052226  0  4.009698  0
C  C67  1  0.43984609  0.79429008  0.47273803  1  -0.024738  0  -0.012128  -0.062708  0  3.961454  0
C  C68  1  0.82028429  0.67091070  0.38431942  1  -0.013106  0  -0.079383  -0.089017  0  3.996019  0
C  C69  1  0.58168752  0.07098633  0.66326062  1  -0.027936  0  -0.092178  -0.139182  0  4.000962  0
C  C70  1  0.57473567  0.15409195  0.64314834  1  -0.03507  0  -0.085428  -0.094994  0  4.00131  0
C  C71  1  0.50772117  0.16143259  0.54397805  1  -0.036277  0  -0.07807  -0.127203  0  3.943861  0
C  C72  1  0.44756009  0.46000465  0.72329798  1  1.529303  0  0.224554  0.603304  0  4.156492  0
C  C73  1  0.51272338  0.07648528  0.56432501  1  -0.030829  0  -0.004408  0.028914  0  3.950071  0
C  C74  1  0.55187531  0.03057442  0.62444923  1  0.005383  0  -0.005835  0.083306  0  4.026243  0
C  C75  1  0.48008715  0.03528585  0.52612365  1  0.0203  0  -0.005252  0.041011  0  3.971059  0
C  C76  1  0.49407065  0.95176078  0.54129753  1  -0.000315  0  -0.004742  0.023607  0  3.952005  0
C  C77  1  0.53159245  0.90784366  0.60390144  1  -0.084183  0  -0.08789  -0.113726  0  4.001927  0
C  C78  1  0.55844180  0.94497625  0.64434928  1  -0.062188  0  -0.095508  -0.140343  0  4.01056  0
C  C79  1  0.82663056  0.52844558  0.48287407  1  -0.05139  0  -0.077324  -0.131406  0  3.935073  0
C  C80  1  0.43215883  0.07714213  0.47554107  1  -0.036261  0  -0.093237  -0.188572  0  3.998686  0
C  C81  1  0.39637093  0.03894259  0.44249674  1  -0.03211  0  -0.003733  0.030742  0  3.996611  0
C  C82  1  0.40952903  0.95461145  0.45632278  1  -0.046181  0  -0.006341  0.032835  0  3.98599  0
C  C83  1  0.46418055  0.91266929  0.49897986  1  -0.019581  0  0.003057  -0.001144  0  3.89176  0
C  C84  1  0.54796982  0.55715661  0.26384373  1  1.531389  0  0.226064  0.607088  0  4.161202  0
C  C85  1  0.36641791  0.91212826  0.43045134  1  -0.064663  0  -0.091398  -0.128238  0  4.024792  0
C  C86  1  0.37864983  0.83181568  0.44218055  1  0.018444  0  -0.091114  -0.103492  0  4.035803  0
C  C87  1  0.48417264  0.83341394  0.49919021  1  -0.004257  0  0.001905  0.004916  0  3.910023  0
C  C88  1  0.57362212  0.57169340  0.16870307  1  -0.013508  0  -0.018751  -0.084649  0  3.948981  0
C  C89  1  0.42731069  0.44582613  0.81728726  1  -0.021901  0  -0.021934  -0.036278  0  4.005397  0
C  C90  1  0.90380257  0.54932315  0.47725336  1  0.029346  0  -0.001435  0.033667  0  3.952994  0
C  C91  1  0.65510452  0.64024881  0.01302365  1  -0.031338  0  -0.088377  -0.184406  0  3.958561  0
C  C92  1  0.64380203  0.62471741  0.09973760  1  -0.001959  0  0.001245  0.064647  0  3.979671  0
C  C93  1  0.52436821  0.53131798  0.14905292  1  -0.033408  0  -0.081755  -0.127354  0  3.942779  0
C  C94  1  0.53941759  0.54003623  0.06212498  1  0.007004  0  -0.004185  0.036481  0  3.944992  0
C  C95  1  0.60360058  0.60198803  0.99161978  1  -0.02305  0  -0.002383  0.044596  0  3.971556  0
C  C96  1  0.28911260  0.44164634  0.54398754  1  1.563317  0  0.228352  0.603609  0  4.189515  0
C  C97  1  0.49245066  0.49182886  0.04249551  1  0.025426  0  0.001838  -0.011428  0  3.888391  0
C  C98  1  0.50852136  0.51236460  0.95129845  1  0.006439  0  -0.004213  0.038479  0  3.978651  0
C  C99  1  0.56878381  0.57853537  0.88332803  1  -0.071591  0  -0.090018  -0.177028  0  3.976737  0
C  C100  1  0.61525790  0.62326934  0.90053841  1  -0.058187  0  -0.00483  0.028511  0  3.993626  0
C  C101  1  0.93764174  0.63434568  0.42567998  1  -0.049719  0  -0.00554  0.077257  0  4.024011  0
C  C102  1  0.42958678  0.42525629  0.10987205  1  -0.024082  0  0.000896  0.038241  0  3.964418  0
C  C103  1  0.37955130  0.39250665  0.08515177  1  -0.033442  0  -0.090169  -0.189375  0  3.980296  0
C  C104  1  0.39177613  0.41448651  0.99496714  1  -0.058367  0  -0.008234  0.084972  0  4.042662  0
C  C105  1  0.46090679  0.47015113  0.92687355  1  0.052979  0  -0.00394  0.035079  0  3.946655  0
C  C106  1  0.33946821  0.37919995  0.97184832  1  0.01164  0  -0.089816  -0.131126  0  4.001337  0
C  C107  1  0.35502582  0.39680134  0.88418872  1  -0.061075  0  -0.086782  -0.100709  0  4.008952  0
C  C108  1  0.70310800  0.56223744  0.44762115  1  1.584723  0  0.228303  0.601199  0  4.172941  0
C  C109  1  0.47931398  0.48084998  0.83871807  1  -0.073816  0  -0.077721  -0.131062  0  3.929727  0
C  C110  1  0.78551477  0.58748991  0.43744860  1  -0.078756  0  -0.017546  -0.0385  0  3.99611  0
C  C111  1  0.20392622  0.41180975  0.56651125  1  0.087654  0  -0.009339  -0.06187  0  3.944795  0
C  C112  1  0.95016862  0.48815826  0.51979166  1  -0.047121  0  -0.002288  0.031425  0  3.97618  0
C  C113  1  0.89458546  0.69370411  0.37989736  1  0.038126  0  -0.08779  -0.138054  0  3.993156  0
C  C114  1  0.55396989  0.79260769  0.51959195  1  0.034743  0  -0.009211  0.071566  0  4.009948  0
C  C115  1  0.63228775  0.83416219  0.46848754  1  -0.029603  0  -0.087234  -0.125565  0  3.964561  0
C  C116  1  0.69881007  0.79531966  0.48339214  1  -0.107536  0  -0.08998  -0.076482  0  4.030186  0
C  C117  1  0.68850165  0.71399776  0.54897956  1  -0.096432  0  -0.095721  -0.087431  0  4.033683  0
C  C118  1  0.61113121  0.67192008  0.59959962  1  -0.014059  0  -0.095002  -0.078728  0  4.024312  0
C  C119  1  0.54424211  0.71100799  0.58548839  1  -0.048302  0  -0.097057  -0.143445  0  3.974234  0
C  C120  1  0.34537091  0.08545486  0.39187312  1  -0.00402  0  -0.007443  0.073033  0  3.998018  0
C  C121  1  0.36718982  0.10168749  0.30188336  1  -0.045503  0  -0.089332  -0.130203  0  3.977229  0
C  C122  1  0.31995490  0.14641013  0.25397356  1  -0.102191  0  -0.095428  -0.085862  0  4.046885  0
C  C123  1  0.02838002  0.51320234  0.50971466  1  0.009895  0  0.003695  0.041095  0  3.957835  0
C  C124  1  0.24976500  0.17511553  0.29545550  1  -0.051655  0  -0.098303  -0.096717  0  4.046016  0
C  C125  1  0.22762275  0.15955569  0.38475881  1  -0.020674  0  -0.094816  -0.080506  0  4.045787  0
C  C126  1  0.27525670  0.11532749  0.43243676  1  -0.009338  0  -0.089851  -0.130088  0  3.976489  0
C  C127  1  0.67228390  0.69513479  0.82540125  1  0.001472  0  -0.007722  0.074082  0  3.997328  0
C  C128  1  0.72988788  0.68627242  0.75211360  1  -0.056047  0  -0.090963  -0.134425  0  3.980602  0
C  C129  1  0.78119008  0.75475112  0.67979181  1  -0.042129  0  -0.093414  -0.082852  0  4.05099  0
C  C130  1  0.77562348  0.83339752  0.67917787  1  0.004419  0  -0.093495  -0.088216  0  4.028364  0
C  C131  1  0.71856453  0.84307351  0.75176890  1  -0.055277  0  -0.094456  -0.087351  0  4.04978  0
C  C132  1  0.66753078  0.77465183  0.82423379  1  -0.096483  0  -0.090655  -0.133826  0  3.980107  0
C  C133  1  0.70599817  0.65924688  0.11701807  1  0.018141  0  -0.009319  0.075785  0  4.001814  0
C  C134  1  0.05820160  0.59926249  0.46096687  1  0.022979  0  -0.088236  -0.125969  0  4.011505  0
C  C135  1  0.73138875  0.74472217  0.07410205  1  -0.067199  0  -0.093027  -0.131061  0  3.979818  0
C  C136  1  0.79106426  0.77657997  0.08939938  1  0.048889  0  -0.096306  -0.085508  0  4.049509  0
C  C137  1  0.82687090  0.72331866  0.14708528  1  -0.162018  0  -0.09876  -0.09401  0  4.042084  0
C  C138  1  0.80271156  0.63790560  0.18934830  1  0.056222  0  -0.096365  -0.078899  0  4.043858  0
C  C139  1  0.74277339  0.60621450  0.17455030  1  -0.099066  0  -0.093398  -0.128943  0  3.981551  0
C  C140  1  0.41575245  0.38452191  0.20649366  1  0.005159  0  -0.009559  0.069763  0  4.009843  0
C  C141  1  0.47533442  0.34103599  0.23572746  1  -0.108666  0  -0.086905  -0.123969  0  3.965856  0
C  C142  1  0.46138288  0.30087400  0.32639932  1  0.008249  0  -0.091948  -0.07327  0  4.013974  0
C  C143  1  0.38772644  0.30297885  0.38924383  1  0.005173  0  -0.097372  -0.091138  0  4.006477  0
C  C144  1  0.32766172  0.34485388  0.36086140  1  -0.110569  0  -0.09129  -0.065305  0  4.022169  0
C  C145  1  0.01476539  0.65733288  0.42064161  1  -0.085083  0  -0.083051  -0.121991  0  4.013889  0
C  C146  1  0.34141549  0.38505706  0.27008786  1  -0.006221  0  -0.095644  -0.143859  0  3.985504  0
C  C147  1  0.22504892  0.26096882  0.64487394  1  0.000841  0  -0.012279  0.063164  0  4.006174  0
C  C148  1  0.27027556  0.27042880  0.69113573  1  -0.015758  0  -0.091865  -0.127372  0  3.97426  0
C  C149  1  0.31864377  0.20987677  0.72149253  1  -0.0617  0  -0.094445  -0.082055  0  4.029059  0
C  C150  1  0.32253153  0.13862318  0.70646175  1  -0.056945  0  -0.089577  -0.079594  0  4.013605  0
C  C151  1  0.27722279  0.12811993  0.66138550  1  -0.063358  0  -0.093202  -0.085063  0  4.029894  0
C  C152  1  0.22873403  0.18872682  0.63101023  1  -0.049537  0  -0.090202  -0.130681  0  3.977695  0
C  C153  1  0.93204176  0.25811549  0.65450586  1  0.825299  0  0.170416  0.235065  0  4.048675  0
N  N154  1  0.90543263  0.18822217  0.69500319  1  -1.134503  0  -0.327831  -0.375773  0  2.67166  0
O  O155  1  0.49672849  0.50645134  0.49439647  1  -1.236126  0  -0.575416  -1.031889  0  2.541568  0
O  O156  1  0.29831074  0.49772713  0.56754850  1  -1.164244  0  -0.315287  -0.539438  0  2.313655  0
O  O157  1  0.67019709  0.61644442  0.39922372  1  -1.172678  0  -0.304306  -0.533483  0  2.349874  0
O  O158  1  0.34435227  0.41057874  0.50094091  1  -1.169028  0  -0.299225  -0.53926  0  2.400728  0
O  O159  1  0.67249461  0.48804231  0.50457490  1  -1.185681  0  -0.322313  -0.554209  0  2.341741  0
O  O160  1  0.52194915  0.46386065  0.67591496  1  -1.172606  0  -0.317198  -0.551365  0  2.30745  0
O  O161  1  0.56912358  0.61366090  0.28065923  1  -1.16504  0  -0.307875  -0.541462  0  2.353808  0
O  O162  1  0.40266730  0.65104696  0.53706019  1  -1.17412  0  -0.316385  -0.553587  0  2.332173  0
O  O163  1  0.50524659  0.32825827  0.49270055  1  -1.184609  0  -0.317467  -0.554634  0  2.388769  0
O  O164  1  0.51669964  0.70640869  0.41152392  1  -1.168961  0  -0.305679  -0.533542  0  2.313729  0
O  O165  1  0.54994486  0.32349801  0.59909161  1  -1.166125  0  -0.318175  -0.548477  0  2.30871  0
O  O166  1  0.38870769  0.46733663  0.69673285  1  -1.169847  0  -0.31968  -0.553761  0  2.298722  0
O  O167  1  0.50478461  0.48836719  0.32125808  1  -1.17783  0  -0.314901  -0.546027  0  2.387356  0
