# generated using pymatgen
data_CuH11C16N4O7
_symmetry_space_group_name_H-M   'P 1'
_cell_length_a   7.27891354
_cell_length_b   7.60673162
_cell_length_c   14.35849866
_cell_angle_alpha   97.61863910
_cell_angle_beta   99.52020219
_cell_angle_gamma   90.12222478
_symmetry_Int_Tables_number   1
_chemical_formula_structural   CuH11C16N4O7
_chemical_formula_sum   'Cu2 H22 C32 N8 O14'
_cell_volume   776.90577889
_cell_formula_units_Z   2
loop_
 _symmetry_equiv_pos_site_id
 _symmetry_equiv_pos_as_xyz
  1  'x, y, z'
loop_
 _atom_site_type_symbol
 _atom_site_label
 _atom_site_symmetry_multiplicity
 _atom_site_fract_x
 _atom_site_fract_y
 _atom_site_fract_z
 _atom_site_occupancy
 _atom_site_hle17_ddec_charge
 _atom_site_hle17_ddec_spin_density
 _atom_site_hle17_ddec_sum_bond_order
 _atom_site_hle17_magmom
 _atom_site_hse06_10hf_ddec_charge
 _atom_site_hse06_10hf_ddec_spin_density
 _atom_site_hse06_10hf_ddec_sum_bond_order
 _atom_site_hse06_10hf_magmom
 _atom_site_hse06_ddec_charge
 _atom_site_hse06_ddec_spin_density
 _atom_site_hse06_ddec_sum_bond_order
 _atom_site_hse06_magmom
 _atom_site_pbe_cm5_charge
 _atom_site_pbe_ddec_charge
 _atom_site_pbe_ddec_spin_density
 _atom_site_pbe_ddec_sum_bond_order
 _atom_site_pbe_magmom
Cu  Cu0  1  0.49999867  0.49999710  0.50000028  1  0.920182  0.742411  1.845264  0.536  0.909481  0.829921  2.22692  0.661  0.993184  0.898361  2.169854  0.746  0.760631  0.850962  0.774223  2.272268  0.599
Cu  Cu1  1  0.99999774  0.99999732  0.49999986  1  1.022094  -0.751494  1.608593  -0.545  1.029544  -0.843602  1.982852  -0.678  1.112223  -0.910067  1.927033  -0.762  0.69809  0.967464  -0.789264  2.034454  -0.616
H  H2  1  0.32058088  0.94509411  0.49466609  1  0.413247  0.000337  0.891955  0.002  0.387006  -0.000367  0.954323  0.0  0.399088  -0.000153  0.93724  0.0  0.291916  0.378408  -0.000557  0.966458  0.0
H  H3  1  0.67941524  0.05490540  0.50533264  1  0.413379  0.000337  0.891932  0.002  0.387152  -0.000367  0.954153  0.0  0.399234  -0.000153  0.937066  0.0  0.291964  0.378554  -0.000557  0.966287  0.0
H  H4  1  0.27984939  0.15588557  0.48603951  1  0.420998  0.000391  0.880834  0.001  0.392669  -0.000108  0.946066  0.0  0.405247  -1.6e-05  0.928151  0.0  0.293873  0.383767  -0.000184  0.958718  0.0
H  H5  1  0.72014394  0.84411395  0.51396037  1  0.420986  0.000391  0.880821  0.001  0.39264  -0.000109  0.946097  0.0  0.405216  -1.6e-05  0.928185  0.0  0.293838  0.383735  -0.000185  0.958752  0.0
H  H6  1  0.46908427  0.79367689  0.94222564  1  0.127043  -4.2e-05  0.945551  0.0  0.13286  -1.4e-05  1.009249  0.0  0.137124  -8e-06  1.005287  0.0  0.1171  0.12987  -2.2e-05  1.011997  0.0
H  H7  1  0.53091340  0.20632792  0.05777359  1  0.127129  -4.3e-05  0.945496  0.0  0.132855  -1.4e-05  1.009276  0.0  0.137114  -8e-06  1.005328  0.0  0.117081  0.129864  -2.2e-05  1.012024  0.0
H  H8  1  0.40201399  0.46434808  0.93279456  1  0.098161  0.000103  0.945192  0.0  0.110191  -1.5e-05  1.00152  0.0  0.112994  -7e-06  1.000676  0.0  0.107161  0.108207  -2.8e-05  1.002244  0.0
H  H9  1  0.59798927  0.53565805  0.06720733  1  0.098115  0.000105  0.945278  0.0  0.110174  -1.5e-05  1.001571  0.0  0.112978  -7e-06  1.000725  0.0  0.107159  0.108189  -2.8e-05  1.002292  0.0
H  H10  1  0.26837434  0.29450113  0.77765424  1  0.102858  -9.6e-05  0.970872  0.0  0.106501  -2.3e-05  1.042218  0.0  0.109883  -1.7e-05  1.039806  0.0  0.106736  0.103981  -2.6e-05  1.044158  0.0
H  H11  1  0.73162732  0.70549838  0.22234983  1  0.102897  -0.0001  0.970848  0.0  0.106568  -2.3e-05  1.042136  0.0  0.10995  -1.7e-05  1.039725  0.0  0.106773  0.104047  -2.6e-05  1.044075  0.0
H  H12  1  0.09915406  0.94554861  0.27981308  1  0.126789  0.000108  0.952492  0.0  0.133938  8.5e-05  1.01918  0.0  0.137607  7.2e-05  1.016519  0.0  0.11028  0.131245  9.5e-05  1.021141  0.0
H  H13  1  0.90086030  0.05445482  0.72018609  1  0.12677  0.000108  0.952448  0.0  0.133938  8.6e-05  1.01912  0.0  0.137603  7.2e-05  1.016466  0.0  0.110293  0.131246  9.6e-05  1.021079  0.0
H  H14  1  0.00972677  0.14189536  0.15798194  1  0.090319  0.0  0.9923  0.0  0.098412  1e-05  1.061187  0.0  0.101335  6e-06  1.059811  0.0  0.098346  0.09631  1.6e-05  1.062249  0.0
H  H15  1  0.99028348  0.85811074  0.84201776  1  0.090346  -2e-06  0.992252  0.0  0.098427  1e-05  1.061153  0.0  0.10135  6e-06  1.059775  0.0  0.098342  0.096324  1.6e-05  1.062211  0.0
H  H16  1  0.05994731  0.70688092  0.93778717  1  0.087967  4e-05  0.995046  0.0  0.094784  4e-05  1.065788  0.0  0.097621  2.5e-05  1.064401  0.0  0.098247  0.092744  5.3e-05  1.066855  0.0
H  H17  1  0.94006425  0.29312252  0.06221246  1  0.087998  4.3e-05  0.994989  0.0  0.094785  3.9e-05  1.065756  0.0  0.097623  2.5e-05  1.064368  0.0  0.098283  0.092746  5.3e-05  1.066826  0.0
H  H18  1  0.16362158  0.51648878  0.06120445  1  0.103502  3e-06  0.963742  0.0  0.112332  1.6e-05  1.028322  0.0  0.115089  9e-06  1.027414  0.0  0.105708  0.110412  2.1e-05  1.028928  0.0
H  H19  1  0.83638427  0.48350937  0.93879362  1  0.103575  0.0  0.963748  0.0  0.112358  1.6e-05  1.028376  0.0  0.11512  9e-06  1.027452  0.0  0.105728  0.110436  2.1e-05  1.028981  0.0
H  H20  1  0.37273086  0.78833586  0.35604031  1  0.12365  -0.000204  0.930046  0.0  0.133445  -0.000151  0.990075  0.0  0.136072  -7.8e-05  0.986108  0.0  0.150299  0.131221  -0.000221  0.993263  0.0
H  H21  1  0.62726797  0.21166233  0.64396413  1  0.123646  -0.000201  0.930081  0.0  0.133437  -0.000151  0.99012  0.0  0.136065  -7.8e-05  0.986151  0.0  0.150299  0.131217  -0.000221  0.99331  0.0
H  H22  1  0.22177174  0.24766071  0.33358544  1  0.111333  -6.1e-05  0.925473  0.0  0.121047  3e-06  0.984676  0.0  0.12329  1.8e-05  0.981575  0.0  0.141126  0.119218  -1.7e-05  0.986944  0.0
H  H23  1  0.77822012  0.75233616  0.66641344  1  0.111341  -5.5e-05  0.92535  0.0  0.121078  3e-06  0.984528  0.0  0.12332  1.8e-05  0.981428  0.0  0.14113  0.11925  -1.7e-05  0.98679  0.0
C  C24  1  0.37971415  0.79035097  0.79173647  1  0.053022  -0.002588  3.677344  -0.002  0.031695  -0.001449  3.929759  -0.001  0.027936  -0.001042  3.951646  -0.001  0.07874  0.033879  -0.001892  3.915214  -0.002
C  C25  1  0.62028213  0.20965384  0.20826194  1  0.05299  -0.00259  3.677479  -0.002  0.03166  -0.001447  3.929849  -0.001  0.027902  -0.00104  3.951738  -0.001  0.078683  0.033846  -0.001892  3.915308  -0.002
C  C26  1  0.41425409  0.71182257  0.87522242  1  -0.083486  0.0012  3.71118  0.001  -0.113632  0.00021  3.974834  0.0  -0.111108  0.000322  3.991068  0.0  -0.073562  -0.114886  0.000112  3.963549  0.0
C  C27  1  0.58574771  0.28818091  0.12477846  1  -0.083583  0.001196  3.711354  0.001  -0.113647  0.000209  3.975002  0.0  -0.111125  0.000322  3.991234  0.0  -0.073517  -0.114897  0.000113  3.963717  0.0
C  C28  1  0.37602325  0.53139207  0.86962872  1  -0.050181  -0.004695  3.733825  -0.004  -0.067446  -0.001797  3.99957  -0.002  -0.071031  -0.00122  4.018377  -0.001  -0.082856  -0.065136  -0.002462  3.986556  -0.002
C  C29  1  0.62397434  0.46861009  0.13037102  1  -0.05002  -0.004697  3.733934  -0.004  -0.067313  -0.001796  3.999677  -0.002  -0.070898  -0.00122  4.018486  -0.001  -0.082825  -0.064993  -0.002462  3.986654  -0.002
C  C30  1  0.30227630  0.43485995  0.78220839  1  -0.02549  0.002146  3.678442  0.002  -0.065642  0.000361  3.952465  0.0  -0.061763  0.000381  3.967815  0.0  -0.069446  -0.067921  0.000359  3.941981  0.0
C  C31  1  0.69772518  0.56513291  0.21779312  1  -0.025622  0.002149  3.678472  0.002  -0.065781  0.00036  3.95253  0.0  -0.061902  0.000382  3.967881  0.0  -0.069466  -0.06806  0.000359  3.94205  0.0
C  C32  1  0.27187104  0.51294851  0.69791210  1  -0.064359  -0.00494  3.679831  -0.004  -0.054246  -0.00222  3.921703  -0.002  -0.061644  -0.0016  3.941694  -0.001  -0.005833  -0.049805  -0.002887  3.90863  -0.003
C  C33  1  0.72812359  0.48704836  0.30208980  1  -0.064295  -0.00492  3.679905  -0.004  -0.054182  -0.00222  3.92184  -0.002  -0.061579  -0.001601  3.94183  -0.001  -0.005907  -0.049738  -0.002887  3.908777  -0.003
C  C34  1  0.31008984  0.69529280  0.70157459  1  -0.065397  -0.006141  3.64208  -0.007  -0.064361  -0.003459  3.887308  -0.004  -0.065019  -0.002004  3.903861  -0.002  0.007591  -0.06388  -0.004787  3.876339  -0.005
C  C35  1  0.68991192  0.30470935  0.29842550  1  -0.065523  -0.006157  3.642179  -0.007  -0.064478  -0.003459  3.887389  -0.004  -0.065134  -0.002003  3.903943  -0.002  0.007563  -0.063998  -0.004788  3.876433  -0.005
C  C36  1  0.26518506  0.78867207  0.61391704  1  0.669577  0.003024  3.900076  0.006  0.620907  -0.0006  4.21194  0.001  0.660008  -0.000164  4.199586  0.001  0.214315  0.593727  -0.001076  4.219009  0.001
C  C37  1  0.73480958  0.21132479  0.38608277  1  0.669591  0.003018  3.900086  0.006  0.620947  -0.0006  4.211914  0.001  0.660047  -0.000165  4.199561  0.001  0.214332  0.593773  -0.001076  4.218994  0.001
C  C38  1  0.20055082  0.38400447  0.60947233  1  0.666893  -0.003064  3.839505  -0.004  0.629842  0.00105  4.13301  0.001  0.667799  0.001123  4.123237  0.001  0.219421  0.603307  0.00088  4.138299  0.0
C  C39  1  0.79944520  0.61599239  0.39052899  1  0.667006  -0.003066  3.83931  -0.004  0.629852  0.001051  4.132966  0.001  0.66781  0.001123  4.123192  0.001  0.219398  0.603315  0.000881  4.138263  0.0
C  C40  1  0.14064414  0.72070640  0.17720115  1  0.167434  0.000796  3.789793  0.001  0.142501  0.000361  4.044232  0.0  0.146458  0.000288  4.066696  0.0  0.096272  0.140054  0.000431  4.028972  0.0
C  C41  1  0.85936022  0.27928910  0.82279870  1  0.167332  0.000761  3.790038  0.001  0.142518  0.00036  4.044274  0.0  0.146472  0.000288  4.066742  0.0  0.096267  0.140074  0.000431  4.029012  0.0
C  C42  1  0.09567525  0.89625579  0.20472017  1  -0.138227  -0.000234  3.714907  0.0  -0.162793  5e-06  3.9795  0.0  -0.166174  -1e-06  4.000028  0.0  -0.090694  -0.160501  1.2e-05  3.965629  0.0
C  C43  1  0.90432921  0.10374370  0.79528136  1  -0.138259  -0.000207  3.714991  0.0  -0.162883  7e-06  3.979552  0.0  -0.166265  -1e-06  4.000082  0.0  -0.090746  -0.160594  1.3e-05  3.965681  0.0
C  C44  1  0.04205577  0.00503085  0.13487950  1  -0.090518  0.000466  3.715697  0.0  -0.112172  4.8e-05  3.965164  0.0  -0.115316  2.3e-05  3.987772  0.0  -0.089774  -0.109936  9.8e-05  3.949858  0.0
C  C45  1  0.95795978  0.99496595  0.86512001  1  -0.090448  0.000446  3.71565  0.0  -0.112123  4.7e-05  3.965109  0.0  -0.115262  2.2e-05  3.98771  0.0  -0.089751  -0.109887  9.8e-05  3.9498  0.0
C  C46  1  0.02843771  0.94180591  0.03707188  1  0.053398  0.000251  3.755561  0.0  0.068801  2.4e-05  3.980467  0.0  0.068558  -3e-06  4.005126  0.0  -0.007584  0.068922  6.5e-05  3.963717  0.0
C  C47  1  0.97157109  0.05819754  0.96292542  1  0.053241  0.000279  3.755674  0.0  0.068742  2.4e-05  3.980487  0.0  0.068497  -3e-06  4.005144  0.0  -0.007585  0.068862  6.5e-05  3.963742  0.0
C  C48  1  0.07048558  0.76294147  0.01227538  1  -0.102073  -8.1e-05  3.744951  0.0  -0.117122  4.5e-05  3.983267  0.0  -0.120331  3.8e-05  4.005656  0.0  -0.088673  -0.114834  4.3e-05  3.968046  0.0
C  C49  1  0.92952870  0.23705931  0.98772360  1  -0.102072  -0.000124  3.744886  0.0  -0.117118  4.5e-05  3.983182  0.0  -0.120325  4e-05  4.005567  0.0  -0.088725  -0.114834  4.3e-05  3.967976  0.0
C  C50  1  0.12792257  0.65355091  0.08122061  1  -0.137117  0.000344  3.75753  0.0  -0.157578  0.000175  4.012688  0.0  -0.161097  0.0001  4.034171  0.0  -0.089631  -0.155087  0.000251  3.997933  0.0
C  C51  1  0.87208065  0.34645255  0.91877830  1  -0.137107  0.000384  3.757576  0.0  -0.157564  0.000175  4.012666  0.0  -0.161082  9.9e-05  4.034152  0.0  -0.089601  -0.155072  0.000251  3.997916  0.0
C  C52  1  0.31241462  0.65684735  0.33220255  1  0.211802  -0.00379  3.590534  -0.004  0.134887  -0.000811  3.862554  -0.001  0.152975  -0.001382  3.870672  -0.002  0.175451  0.123243  -0.000359  3.856951  -0.001
C  C53  1  0.68758280  0.34314951  0.66779889  1  0.211759  -0.003811  3.590523  -0.004  0.134843  -0.000811  3.862568  -0.001  0.152928  -0.001382  3.870691  -0.002  0.175421  0.1232  -0.000359  3.856971  -0.001
C  C54  1  0.23449456  0.38165381  0.31707135  1  0.216938  -0.002065  3.65929  -0.002  0.166153  6.5e-05  3.955491  0.0  0.180362  -0.000446  3.966923  -0.001  0.152746  0.156912  0.000441  3.947814  0.001
C  C55  1  0.76550151  0.61834438  0.68292937  1  0.21689  -0.002095  3.659321  -0.002  0.166108  6.6e-05  3.955554  0.0  0.180315  -0.000444  3.966989  -0.001  0.152685  0.15687  0.000441  3.94787  0.001
N  N56  1  0.42377220  0.98037095  0.80111730  1  0.47537  4.5e-05  3.937051  0.0  0.530917  -9.2e-05  4.191128  0.0  0.55246  -9e-06  4.199087  0.0  0.058611  0.516354  -0.000267  4.186034  0.0
N  N57  1  0.57622539  0.01963121  0.19888174  1  0.475376  4.3e-05  3.936994  0.0  0.530964  -9.3e-05  4.191029  0.0  0.552504  -1e-05  4.198989  0.0  0.058631  0.5164  -0.000267  4.185939  0.0
N  N58  1  0.20252148  0.61024894  0.24756415  1  0.016664  0.002108  3.600728  0.003  0.1381  0.001483  3.771395  0.002  0.128683  0.00117  3.791723  0.002  -0.114253  0.143041  0.00172  3.759441  0.002
N  N59  1  0.79748025  0.38975188  0.75243654  1  0.016744  0.002121  3.600714  0.003  0.138176  0.001482  3.77132  0.002  0.128774  0.001169  3.791622  0.002  -0.11425  0.143115  0.00172  3.75936  0.002
N  N60  1  0.33575745  0.51445194  0.37753849  1  -0.387829  0.0629  3.311006  0.078  -0.349442  0.045338  3.638543  0.06  -0.381888  0.037406  3.655002  0.052  -0.372092  -0.329083  0.048995  3.628447  0.062
N  N61  1  0.66423721  0.48554626  0.62246350  1  -0.387722  0.062914  3.310988  0.078  -0.349396  0.045339  3.638595  0.06  -0.381842  0.037406  3.655058  0.052  -0.372027  -0.329053  0.048999  3.628505  0.062
N  N62  1  0.15188684  0.43438549  0.23645451  1  -0.266076  0.007574  2.849441  0.009  -0.262759  0.003789  3.115024  0.005  -0.273181  0.002605  3.130011  0.003  -0.213242  -0.25571  0.004909  3.105217  0.006
N  N63  1  0.84811068  0.56561402  0.76354433  1  -0.266098  0.007585  2.849552  0.009  -0.262784  0.003789  3.11512  0.005  -0.27321  0.002605  3.130109  0.003  -0.213232  -0.255735  0.004909  3.105303  0.006
O  O64  1  0.44237618  0.04420438  0.72767411  1  -0.350553  -0.00024  1.815762  0.0  -0.334109  -0.000149  2.012798  0.0  -0.34778  -7.1e-05  2.010561  0.0  -0.115804  -0.325302  -0.000307  2.0147  0.0
O  O65  1  0.55761862  0.95579779  0.27232608  1  -0.350574  -0.000244  1.815671  0.0  -0.334153  -0.000146  2.012696  0.0  -0.347816  -7.3e-05  2.010451  0.0  -0.115833  -0.325347  -0.000307  2.014598  0.0
O  O66  1  0.44203902  0.06839444  0.88155393  1  -0.348723  -0.000219  1.753588  0.0  -0.338072  -0.000229  1.943151  0.0  -0.34968  -0.000149  1.940676  0.0  -0.122786  -0.330387  -0.0004  1.94502  -0.001
O  O67  1  0.55795852  0.93160640  0.11844710  1  -0.348664  -0.000207  1.753622  0.0  -0.338021  -0.000231  1.943147  0.0  -0.349628  -0.000149  1.940672  0.0  -0.12273  -0.330342  -0.0004  1.945041  -0.001
O  O68  1  0.38050652  0.78439626  0.55696169  1  -0.623709  -0.000397  2.063483  0.001  -0.586509  -0.000811  2.31448  0.0  -0.614046  -0.000418  2.300743  0.001  -0.308898  -0.566335  -0.001284  2.323323  0.0
O  O69  1  0.61948674  0.21560060  0.44303661  1  -0.623735  -0.000392  2.063602  0.001  -0.586566  -0.000812  2.314598  0.0  -0.614109  -0.000419  2.300878  0.001  -0.308936  -0.566383  -0.001284  2.323419  0.0
O  O70  1  0.10688077  0.86210788  0.60552858  1  -0.581566  -0.083359  2.03858  -0.111  -0.562927  -0.048334  2.319976  -0.071  -0.602946  -0.035496  2.310565  -0.055  -0.311447  -0.5336  -0.057423  2.325565  -0.081
O  O71  1  0.89311666  0.13788897  0.39447147  1  -0.581531  -0.083364  2.038541  -0.111  -0.562902  -0.048338  2.319928  -0.071  -0.602923  -0.035499  2.31052  -0.055  -0.311402  -0.533575  -0.057424  2.325518  -0.081
O  O72  1  0.06406051  0.28602121  0.61122114  1  -0.571207  0.027129  1.945567  0.034  -0.553875  0.011258  2.191865  0.015  -0.581963  0.005889  2.183237  0.008  -0.296746  -0.53087  0.01805  2.195972  0.023
O  O73  1  0.93593425  0.71397963  0.38877965  1  -0.571241  0.027129  1.945474  0.034  -0.553905  0.011258  2.191856  0.015  -0.581992  0.005889  2.183227  0.008  -0.296742  -0.530892  0.01805  2.195954  0.023
O  O74  1  0.29290227  0.36697623  0.53867130  1  -0.632012  0.075628  2.122951  0.102  -0.596491  0.05021  2.392588  0.074  -0.638941  0.037455  2.383115  0.058  -0.323998  -0.566409  0.058608  2.398515  0.083
O  O75  1  0.70709774  0.63301399  0.46133060  1  -0.632098  0.075624  2.122919  0.102  -0.596495  0.050209  2.392565  0.074  -0.638949  0.037455  2.383096  0.058  -0.323956  -0.566411  0.058606  2.398486  0.083
O  O76  1  0.24291523  0.03049273  0.45740246  1  -0.789555  -0.067828  1.959048  -0.087  -0.757316  -0.047107  2.180415  -0.065  -0.789379  -0.036793  2.143491  -0.054  -0.575993  -0.734349  -0.053439  2.206552  -0.071
O  O77  1  0.75707808  0.96950546  0.54259594  1  -0.789681  -0.067825  1.959071  -0.087  -0.757433  -0.047105  2.180389  -0.065  -0.789492  -0.036791  2.143463  -0.054  -0.575986  -0.734467  -0.053437  2.206531  -0.071
