# generated using pymatgen
data_Mn2H10C8O13
_symmetry_space_group_name_H-M   'P 1'
_cell_length_a   7.56507157
_cell_length_b   8.94557959
_cell_length_c   11.01524154
_cell_angle_alpha   89.99986598
_cell_angle_beta   90.00974397
_cell_angle_gamma   99.20947657
_symmetry_Int_Tables_number   1
_chemical_formula_structural   Mn2H10C8O13
_chemical_formula_sum   'Mn4 H20 C16 O26'
_cell_volume   735.83596370
_cell_formula_units_Z   2
loop_
 _symmetry_equiv_pos_site_id
 _symmetry_equiv_pos_as_xyz
  1  'x, y, z'
loop_
 _atom_site_type_symbol
 _atom_site_label
 _atom_site_symmetry_multiplicity
 _atom_site_fract_x
 _atom_site_fract_y
 _atom_site_fract_z
 _atom_site_occupancy
 _atom_site_hle17_ddec_charge
 _atom_site_hle17_ddec_spin_density
 _atom_site_hle17_ddec_sum_bond_order
 _atom_site_hle17_magmom
 _atom_site_hse06_10hf_ddec_charge
 _atom_site_hse06_10hf_ddec_spin_density
 _atom_site_hse06_10hf_ddec_sum_bond_order
 _atom_site_hse06_10hf_magmom
 _atom_site_hse06_ddec_charge
 _atom_site_hse06_ddec_spin_density
 _atom_site_hse06_ddec_sum_bond_order
 _atom_site_hse06_magmom
 _atom_site_pbe_cm5_charge
 _atom_site_pbe_ddec_charge
 _atom_site_pbe_ddec_spin_density
 _atom_site_pbe_ddec_sum_bond_order
 _atom_site_pbe_magmom
Mn  Mn0  1  0.23666308  0.23957624  0.37378103  1  1.205608  -4.795012  1.709524  -4.679  1.043494  -4.724652  2.204486  -4.544  1.105914  -4.766728  2.129938  -4.604  0.593184  0.993792  -4.681104  2.259656  -4.485
Mn  Mn1  1  0.76317602  0.76012737  0.87382182  1  1.205196  -4.796175  1.705627  -4.679  1.04336  -4.726565  2.19955  -4.546  1.10574  -4.767605  2.125196  -4.605  0.592725  0.993646  -4.685182  2.254585  -4.489
Mn  Mn2  1  0.34510625  0.21611006  0.88542574  1  1.228979  -4.798257  1.739339  -4.682  1.06634  -4.724752  2.243834  -4.547  1.125108  -4.764515  2.169173  -4.604  0.598467  1.019792  -4.685156  2.29898  -4.492
Mn  Mn3  1  0.65490006  0.78402863  0.38556017  1  1.228806  4.794835  1.742589  4.681  1.06617  4.718376  2.248066  4.545  1.124992  4.763287  2.173119  4.604  0.598723  1.019365  4.672318  2.303821  4.488
H  H4  1  0.00236846  0.04497674  0.49064206  1  0.380878  -0.000824  0.900736  0.0  0.357694  -0.001331  0.969189  0.0  0.36889  -0.001186  0.956747  0.0  0.305093  0.349689  -0.00146  0.978021  0.0
H  H5  1  0.99763024  0.95471912  0.99045000  1  0.380921  0.000236  0.90083  0.0  0.357625  -0.000367  0.969553  0.0  0.368872  -9.3e-05  0.957009  0.0  0.304663  0.349601  -0.000632  0.97842  -0.001
H  H6  1  0.50604422  0.02959228  0.76106593  1  0.385341  0.000158  0.883848  0.0  0.361777  -0.00056  0.952423  -0.001  0.37322  -0.000235  0.939412  0.0  0.308099  0.353711  -0.0009  0.961578  -0.001
H  H7  1  0.49426467  0.97079531  0.26097585  1  0.384953  0.000607  0.883935  0.0  0.361477  0.001134  0.952463  0.0  0.372897  0.000991  0.939473  0.0  0.3082  0.353488  0.001319  0.961459  0.0
H  H8  1  0.39355115  0.28841902  0.60065123  1  0.386116  0.000565  0.847293  0.0  0.36212  4.7e-05  0.919223  -0.001  0.371113  0.000287  0.908889  -0.001  0.322723  0.355492  -0.000188  0.926759  -0.001
H  H9  1  0.60707632  0.71190014  0.10068311  1  0.387059  -0.000474  0.846794  0.0  0.362877  -0.001194  0.91918  -0.001  0.371885  -0.000928  0.908832  -0.001  0.32287  0.356223  -0.001446  0.926762  -0.001
H  H10  1  0.09629324  0.30689128  0.70163663  1  0.409262  -0.000758  0.796217  -0.002  0.39501  -0.00183  0.844608  -0.002  0.403646  -0.001217  0.835679  -0.002  0.347819  0.388494  -0.002499  0.851487  -0.003
H  H11  1  0.90507507  0.69157497  0.20291618  1  0.409506  0.00097  0.796286  0.002  0.39558  0.001928  0.84399  0.002  0.40417  0.001423  0.835188  0.002  0.348246  0.389096  0.002462  0.850773  0.002
H  H12  1  0.13521849  0.36848729  0.03246692  1  0.441761  -0.000347  0.863251  -0.002  0.406691  -0.001105  0.931956  -0.003  0.41935  -0.000766  0.913714  -0.002  0.292064  0.397646  -0.001423  0.944918  -0.003
H  H13  1  0.86444458  0.63149639  0.53254807  1  0.442818  0.000438  0.861838  0.002  0.407845  0.001147  0.930389  0.003  0.420485  0.00084  0.912167  0.002  0.292812  0.398824  0.00142  0.943326  0.003
H  H14  1  0.30592938  0.33210152  0.11196407  1  0.42988  -0.000172  0.865025  -0.002  0.402405  -0.001212  0.922784  -0.003  0.412088  -0.000749  0.90865  -0.003  0.305354  0.395548  -0.001621  0.932768  -0.003
H  H15  1  0.69391594  0.66810195  0.61214412  1  0.429041  0.001193  0.866021  0.002  0.402013  0.001701  0.923027  0.003  0.411684  0.001413  0.908912  0.003  0.305502  0.395177  0.001928  0.932974  0.003
H  H16  1  0.10865561  0.85003602  0.54548472  1  0.103261  -0.000134  0.937571  0.0  0.107783  -0.000248  1.003791  0.0  0.110634  -0.000171  1.001815  0.0  0.128858  0.105824  -0.000166  1.005183  0.0
H  H17  1  0.89187385  0.14980339  0.04535363  1  0.103165  0.000303  0.9378  0.0  0.107787  4.5e-05  1.00384  0.0  0.110606  0.00021  1.001934  0.0  0.129077  0.10586  6.5e-05  1.005193  0.0
H  H18  1  0.32335641  0.84274282  0.69751118  1  0.09395  7.7e-05  0.90932  0.0  0.098381  -0.00035  0.977177  0.0  0.100896  -0.000144  0.974912  0.0  0.128425  0.096189  -0.000507  0.979506  -0.001
H  H19  1  0.67738348  0.15748644  0.19734593  1  0.093635  0.000114  0.909224  0.0  0.097975  7.7e-05  0.976795  -0.001  0.100482  0.000161  0.974533  0.0  0.1284  0.095767  -7.1e-05  0.979159  -0.001
H  H20  1  0.39920403  0.59194912  0.54617296  1  0.097499  -0.000358  0.941822  0.0  0.100099  -0.00061  1.012288  -0.001  0.102616  -0.000463  1.010502  0.0  0.126247  0.098364  -0.000689  1.013617  -0.001
H  H21  1  0.60039866  0.40812919  0.04622862  1  0.097352  0.000474  0.94259  0.0  0.099952  0.000331  1.013077  0.0  0.102502  0.000446  1.011292  0.0  0.126184  0.098191  0.00031  1.014377  0.0
H  H22  1  0.21601018  0.57859573  0.73674185  1  0.103837  -8.7e-05  0.901803  0.0  0.108261  -0.000619  0.964353  -0.001  0.111693  -0.00031  0.961335  -0.001  0.126693  0.105285  -0.000935  0.967463  -0.001
H  H23  1  0.78294729  0.42106448  0.23702310  1  0.103372  0.000151  0.902606  0.0  0.107537  0.000274  0.96514  0.0  0.110984  0.000229  0.962084  0.0  0.126563  0.104567  0.000296  0.968244  0.0
C  C24  1  0.35303509  0.95216084  0.46787276  1  0.671235  0.003428  3.807827  0.003  0.6128  0.0048  4.11322  0.004  0.648078  0.004095  4.106399  0.004  0.231499  0.587906  0.0047  4.117134  0.004
C  C25  1  0.64732618  0.04818489  0.96768696  1  0.670472  -0.007168  3.8096  -0.008  0.612652  -0.013894  4.114586  -0.013  0.647881  -0.010455  4.107765  -0.01  0.231672  0.587948  -0.01793  4.118429  -0.016
C  C26  1  0.20190315  0.95667265  0.55931267  1  0.04798  0.000701  3.636819  0.001  0.021285  -0.000628  3.89331  -0.001  0.02182  -0.000273  3.900916  0.0  -0.004576  0.020619  -0.000789  3.888257  -0.001
C  C27  1  0.79839259  0.04329464  0.05914830  1  0.048219  -0.001333  3.63708  -0.001  0.02097  -0.002267  3.893418  -0.002  0.021497  -0.001469  3.901052  -0.001  -0.00451  0.02027  -0.003085  3.888344  -0.002
C  C28  1  0.26978073  0.94983045  0.68942183  1  0.069121  -0.001922  3.603302  -0.002  0.039881  -0.003273  3.862675  -0.003  0.041486  -0.002229  3.869404  -0.002  0.003158  0.038607  -0.004315  3.858462  -0.004
C  C29  1  0.73057612  0.05019773  0.18928310  1  0.068176  -0.001027  3.60443  -0.001  0.040377  -0.000637  3.861693  -0.001  0.041987  -0.00047  3.868401  -0.001  0.003044  0.039137  -0.000841  3.857464  -0.001
C  C30  1  0.11512396  0.94072982  0.78056833  1  0.667369  -0.007113  3.806986  -0.008  0.60901  -0.013954  4.114315  -0.013  0.643925  -0.010342  4.1078  -0.011  0.232813  0.584514  -0.017838  4.117833  -0.016
C  C31  1  0.88515464  0.05893907  0.28049665  1  0.667345  -0.002294  3.806317  -0.002  0.608532  -0.003299  4.113368  -0.002  0.643562  -0.002886  4.106802  -0.002  0.233095  0.583838  -0.003575  4.116966  -0.003
C  C32  1  0.13060169  0.49315696  0.51077282  1  0.635514  -0.003782  3.896356  -0.003  0.579568  -0.007723  4.210658  -0.007  0.61332  -0.005759  4.204054  -0.005  0.206757  0.556279  -0.009068  4.213979  -0.008
C  C33  1  0.86914731  0.50671024  0.01109378  1  0.635033  -0.003496  3.896633  -0.003  0.57966  -0.007206  4.209926  -0.007  0.613426  -0.005311  4.203333  -0.005  0.206595  0.556336  -0.008604  4.213273  -0.008
C  C34  1  0.31186014  0.48725987  0.57303170  1  0.035703  -0.001137  3.636512  -0.001  0.009957  -0.002925  3.893048  -0.002  0.011332  -0.002027  3.899922  -0.002  -0.006594  0.0086  -0.003913  3.888648  -0.003
C  C35  1  0.68783462  0.51271264  0.07317896  1  0.035968  -0.001149  3.637169  -0.001  0.010309  -0.002222  3.892653  -0.002  0.01155  -0.00154  3.899752  -0.001  -0.00614  0.00907  -0.002849  3.888096  -0.002
C  C36  1  0.29123507  0.48801682  0.71081595  1  0.053618  -0.002044  3.619085  -0.003  0.02056  -0.003858  3.8798  -0.004  0.022556  -0.002513  3.884365  -0.003  0.002869  0.018761  -0.005199  3.877954  -0.004
C  C37  1  0.70823190  0.51189287  0.21098104  1  0.055293  0.000326  3.61891  0.001  0.022868  0.000902  3.878589  0.001  0.024943  0.00068  3.883124  0.001  0.003124  0.020995  0.001257  3.876761  0.002
C  C38  1  0.47719487  0.51574991  0.76911418  1  0.67448  -0.008133  3.815559  -0.008  0.620176  -0.015435  4.115343  -0.014  0.655161  -0.011442  4.108085  -0.011  0.234906  0.595628  -0.019603  4.119641  -0.017
C  C39  1  0.52219712  0.48473972  0.26912691  1  0.672714  -0.001198  3.81679  -0.001  0.618116  -0.001108  4.116597  -0.001  0.653212  -0.000853  4.109313  -0.001  0.233147  0.59336  -0.00161  4.121006  -0.001
O  O40  1  0.36562350  0.04008901  0.37546834  1  -0.64023  -0.027215  2.030887  -0.015  -0.568684  -0.031061  2.279121  -0.015  -0.599842  -0.028906  2.264093  -0.013  -0.294613  -0.54563  -0.033252  2.288587  -0.017
O  O41  1  0.63450859  0.96026997  0.87527834  1  -0.639841  -0.029932  2.030387  -0.018  -0.568566  -0.03775  2.278189  -0.023  -0.599692  -0.033715  2.263231  -0.019  -0.294392  -0.545573  -0.04206  2.287585  -0.027
O  O42  1  0.45324767  0.85476372  0.48789012  1  -0.622273  0.033875  2.067246  0.019  -0.555771  0.038125  2.340501  0.018  -0.586723  0.034788  2.32492  0.015  -0.298806  -0.533088  0.041461  2.350908  0.021
O  O43  1  0.54744844  0.14585384  0.98772957  1  -0.621745  -0.038507  2.06654  -0.024  -0.555744  -0.046247  2.339735  -0.027  -0.586581  -0.040917  2.324151  -0.023  -0.299171  -0.533247  -0.051802  2.350005  -0.033
O  O44  1  0.14081208  0.02154612  0.87739976  1  -0.651012  -0.033628  2.055712  -0.02  -0.578837  -0.041734  2.309609  -0.024  -0.609787  -0.037332  2.293648  -0.021  -0.298793  -0.555944  -0.046127  2.319887  -0.028
O  O45  1  0.85919535  0.97812777  0.37732959  1  -0.651414  0.030886  2.055976  0.017  -0.579032  0.035392  2.31003  0.017  -0.610035  0.032807  2.294005  0.015  -0.299309  -0.55603  0.037773  2.320426  0.019
O  O46  1  0.97436048  0.85050969  0.75630777  1  -0.603497  -0.035994  2.043695  -0.023  -0.541327  -0.044889  2.311053  -0.028  -0.570911  -0.039357  2.295156  -0.023  -0.293551  -0.519562  -0.050338  2.321598  -0.033
O  O47  1  0.02613411  0.14887692  0.25636246  1  -0.602614  -0.029876  2.046399  -0.016  -0.540398  -0.034681  2.314268  -0.017  -0.570134  -0.031411  2.298396  -0.014  -0.293273  -0.518493  -0.037797  2.324868  -0.019
O  O48  1  0.11136644  0.08365774  0.54024964  1  -0.574299  -0.019818  2.116831  -0.013  -0.526114  -0.027638  2.355267  -0.019  -0.545056  -0.024723  2.341356  -0.017  -0.384384  -0.511788  -0.030529  2.364648  -0.022
O  O49  1  0.88857801  0.91612277  0.04004964  1  -0.574068  -0.021782  2.11644  -0.015  -0.525872  -0.030243  2.355148  -0.022  -0.544802  -0.026738  2.341212  -0.019  -0.384236  -0.511582  -0.033739  2.364554  -0.025
O  O50  1  0.41109696  0.07338942  0.71605268  1  -0.5721  -0.023235  2.10158  -0.015  -0.517485  -0.032272  2.337232  -0.022  -0.535906  -0.028789  2.320818  -0.019  -0.376716  -0.503296  -0.035412  2.348546  -0.024
O  O51  1  0.58902810  0.92687697  0.21592478  1  -0.570593  0.022212  2.101964  0.013  -0.516681  0.030499  2.337304  0.019  -0.535088  0.027701  2.320913  0.017  -0.376405  -0.50242  0.032924  2.348462  0.021
O  O52  1  0.07160407  0.39197194  0.43344847  1  -0.62821  -0.035431  2.011562  -0.025  -0.569708  -0.039148  2.271247  -0.025  -0.600348  -0.034617  2.256435  -0.021  -0.31993  -0.546332  -0.044198  2.280208  -0.03
O  O53  1  0.92798963  0.60754730  0.93348265  1  -0.627623  -0.035389  2.012696  -0.026  -0.56943  -0.039143  2.27202  -0.025  -0.600081  -0.034538  2.25721  -0.021  -0.319659  -0.546099  -0.044304  2.281  -0.03
O  O54  1  0.05684653  0.60276180  0.54434727  1  -0.599425  -0.003306  2.012104  -0.004  -0.54736  -0.005309  2.241538  -0.006  -0.573182  -0.00407  2.230927  -0.004  -0.30301  -0.529203  -0.006718  2.248267  -0.007
O  O55  1  0.94304761  0.39729428  0.04498857  1  -0.598816  -0.003521  2.010987  -0.004  -0.547043  -0.005615  2.240208  -0.006  -0.572851  -0.004094  2.229619  -0.005  -0.302848  -0.528922  -0.007229  2.24695  -0.008
O  O56  1  0.53381140  0.40851910  0.82255361  1  -0.601955  -0.031372  2.01687  -0.022  -0.539069  -0.038689  2.264618  -0.026  -0.568321  -0.034201  2.252134  -0.022  -0.287384  -0.517734  -0.043312  2.27261  -0.03
O  O57  1  0.46602994  0.59228628  0.32241690  1  -0.60046  0.026322  2.017566  0.016  -0.537859  0.028937  2.265827  0.015  -0.567147  0.026751  2.253289  0.013  -0.286615  -0.516447  0.031155  2.273945  0.017
O  O58  1  0.56546646  0.64934577  0.75402641  1  -0.659787  -0.036041  2.037912  -0.021  -0.590302  -0.045013  2.301114  -0.025  -0.621193  -0.039894  2.284041  -0.021  -0.309447  -0.567521  -0.049672  2.312123  -0.029
O  O59  1  0.43335861  0.35134969  0.25407277  1  -0.660127  -0.030866  2.039803  -0.015  -0.589919  -0.036192  2.302747  -0.016  -0.620866  -0.033069  2.28563  -0.013  -0.309  -0.567103  -0.038834  2.313912  -0.017
O  O60  1  0.39398683  0.36086830  0.53363310  1  -0.543762  -0.023843  2.118166  -0.015  -0.489292  -0.03185  2.355489  -0.02  -0.507528  -0.028619  2.341583  -0.018  -0.372566  -0.475226  -0.034786  2.364771  -0.023
O  O61  1  0.60587851  0.63920334  0.03376587  1  -0.544705  -0.023802  2.116933  -0.015  -0.490587  -0.031947  2.354322  -0.021  -0.508797  -0.028646  2.340433  -0.018  -0.373023  -0.476538  -0.034926  2.363538  -0.023
O  O62  1  0.19941833  0.34349640  0.75296693  1  -0.560155  -0.023806  2.146751  -0.012  -0.500331  -0.032866  2.389014  -0.019  -0.518608  -0.0298  2.372218  -0.017  -0.366684  -0.486524  -0.035582  2.401132  -0.021
O  O63  1  0.80038217  0.65631313  0.25316140  1  -0.560849  0.023521  2.147873  0.012  -0.501355  0.032184  2.390083  0.017  -0.519639  0.029501  2.373254  0.016  -0.36659  -0.487537  0.034579  2.402292  0.019
O  O64  1  0.25695354  0.33329941  0.02939925  1  -0.86553  -0.040666  1.889194  -0.026  -0.799967  -0.050072  2.107262  -0.031  -0.826422  -0.044447  2.068522  -0.026  -0.578408  -0.779705  -0.055296  2.134223  -0.035
O  O65  1  0.74273803  0.66669204  0.52956503  1  -0.865346  0.041036  1.88956  0.026  -0.800244  0.050291  2.107515  0.031  -0.826665  0.044959  2.068693  0.026  -0.579036  -0.779954  0.055146  2.134544  0.035
