# generated using pymatgen
data_AlH12C33(NO10)3
_symmetry_space_group_name_H-M   'P 1'
_cell_length_a   4.39174972
_cell_length_b   27.77912855
_cell_length_c   27.78087438
_cell_angle_alpha   120.00200697
_cell_angle_beta   89.99698184
_cell_angle_gamma   90.00327382
_symmetry_Int_Tables_number   1
_chemical_formula_structural   AlH12C33(NO10)3
_chemical_formula_sum   'Al2 H24 C66 N6 O60'
_cell_volume   2935.10713046
_cell_formula_units_Z   2
loop_
 _symmetry_equiv_pos_site_id
 _symmetry_equiv_pos_as_xyz
  1  'x, y, z'
loop_
 _atom_site_type_symbol
 _atom_site_label
 _atom_site_symmetry_multiplicity
 _atom_site_fract_x
 _atom_site_fract_y
 _atom_site_fract_z
 _atom_site_occupancy
 _atom_site_pbe_bader_charge
 _atom_site_pbe_bader_spin_density
 _atom_site_pbe_cm5_charge
 _atom_site_pbe_ddec_charge
 _atom_site_pbe_ddec_spin_density
 _atom_site_pbe_ddec_sum_bond_order
 _atom_site_pbe_magmom
Al  Al0  1  0.07933480  0.49999586  0.49998994  1  2.53065  0  0.493734  1.685802  0  2.412062  0
Al  Al1  1  0.07934501  0.16667258  0.83334568  1  2.530712  0  0.493762  1.685751  0  2.412054  0
H  H2  1  0.31952203  0.37398854  0.89132832  1  0.664505  0  0.320976  0.387356  0  0.940444  0
H  H3  1  0.84066471  0.43377719  0.82393749  1  0.687123  0  0.321966  0.392991  0  0.940819  0
H  H4  1  0.83054716  0.14355463  0.68612057  1  0.692288  0  0.318363  0.383247  0  0.962277  0
H  H5  1  0.69720687  0.19800277  0.59952514  1  0.688547  0  0.319155  0.386448  0  0.936823  0
H  H6  1  0.84061098  0.23289077  0.50939508  1  0.686991  0  0.32196  0.392896  0  0.940958  0
H  H7  1  0.31948570  0.29267578  0.44200325  1  0.662825  0  0.320976  0.387395  0  0.940433  0
H  H8  1  0.69720365  0.46866127  0.73380530  1  0.689053  0  0.319192  0.386369  0  0.936954  0
H  H9  1  0.83045643  0.52311540  0.64721206  1  0.692669  0  0.318364  0.383218  0  0.962342  0
H  H10  1  0.31966072  0.01735945  0.62603562  1  0.659022  0  0.32087  0.387175  0  0.940617  0
H  H11  1  0.84078777  0.89019505  0.56625394  1  0.686353  0  0.32182  0.392545  0  0.941481  0
H  H12  1  0.82990644  0.04259008  0.85650941  1  0.688751  0  0.318102  0.382589  0  0.962961  0
H  H13  1  0.69734391  0.90149894  0.80199015  1  0.687829  0  0.319179  0.386571  0  0.93657  0
H  H14  1  0.84078993  0.77647530  0.76708529  1  0.687506  0  0.321821  0.392576  0  0.941405  0
H  H15  1  0.31964985  0.64930641  0.70729873  1  0.657803  0  0.320881  0.38712  0  0.94067  0
H  H16  1  0.69740278  0.76516830  0.53135191  1  0.686518  0  0.31921  0.386479  0  0.936651  0
H  H17  1  0.82982203  0.62407093  0.47681712  1  0.688631  0  0.317971  0.382406  0  0.963204  0
H  H18  1  0.31951037  0.10866295  0.98268925  1  0.658865  0  0.320983  0.387343  0  0.940433  0
H  H19  1  0.84072353  0.17605873  0.10985033  1  0.68749  0  0.321927  0.392971  0  0.940826  0
H  H20  1  0.83020752  0.31389299  0.95742243  1  0.693176  0  0.318299  0.383351  0  0.962091  0
H  H21  1  0.69728877  0.40046660  0.09847855  1  0.687295  0  0.319168  0.386483  0  0.93681  0
H  H22  1  0.84078422  0.49060398  0.22348261  1  0.686427  0  0.32189  0.392823  0  0.941035  0
H  H23  1  0.31958844  0.55800086  0.35064139  1  0.659156  0  0.32108  0.387554  0  0.940435  0
H  H24  1  0.69726045  0.26619361  0.23485949  1  0.686721  0  0.319203  0.386502  0  0.936738  0
H  H25  1  0.83024731  0.35277683  0.37591041  1  0.689774  0  0.318315  0.383384  0  0.962084  0
C  C26  1  0.58379809  0.46981813  0.41591086  1  1.65105  0  0.282491  0.676488  0  4.039671  0
C  C27  1  0.58378252  0.44609092  0.53017255  1  1.646059  0  0.282686  0.676949  0  4.038712  0
C  C28  1  0.58378190  0.58407765  0.55388591  1  1.649606  0  0.282532  0.67676  0  4.039146  0
C  C29  1  0.58384141  0.22057350  0.80315944  1  1.644756  0  0.282615  0.676735  0  4.03926  0
C  C30  1  0.58376916  0.08258996  0.77945010  1  1.649325  0  0.282352  0.676462  0  4.039684  0
C  C31  1  0.58376890  0.19685046  0.91742488  1  1.652215  0  0.282443  0.676495  0  4.039674  0
C  C32  1  0.57287280  0.25476675  0.77435732  1  -0.051352  0  0.014364  -0.035903  0  3.83528  0
C  C33  1  0.47689945  0.22681782  0.71826418  1  0.034198  0  -0.001708  -0.09096  0  3.958982  0
C  C34  1  0.42957491  0.25510334  0.68909993  1  0.008163  0  0.011824  -0.09392  0  3.918573  0
C  C35  1  0.46625592  0.31318255  0.71754321  1  0.436623  0  0.108874  0.145568  0  3.99512  0
C  C36  1  0.52627313  0.34213224  0.77506352  1  0.030793  0  0.013715  -0.102074  0  3.892586  0
C  C37  1  0.60033203  0.31306798  0.80280811  1  0.021378  0  0.004627  -0.069005  0  3.926306  0
C  C38  1  0.52623950  0.32453168  0.55826959  1  0.030791  0  0.013648  -0.102338  0  3.892776  0
C  C39  1  0.46622937  0.35347986  0.61579129  1  0.436436  0  0.108951  0.145873  0  3.994918  0
C  C40  1  0.42954783  0.41155814  0.64423471  1  -4.5e-05  0  0.011842  -0.09412  0  3.918522  0
C  C41  1  0.47684617  0.43984274  0.61506715  1  0.034544  0  -0.00165  -0.090729  0  3.958741  0
C  C42  1  0.57280315  0.41189567  0.55897233  1  -0.051386  0  0.014329  -0.03593  0  3.835026  0
C  C43  1  0.60028329  0.35359528  0.53052220  1  0.021404  0  0.004683  -0.06888  0  3.925921  0
C  C44  1  0.57283430  0.01959456  0.74525844  1  -0.1017  0  0.014359  -0.035794  0  3.833894  0
C  C45  1  0.47682822  0.99143746  0.77319941  1  -0.031914  0  -0.001799  -0.091071  0  3.958711  0
C  C46  1  0.42963899  0.93398535  0.74490342  1  0.00789  0  0.011719  -0.093899  0  3.918869  0
C  C47  1  0.46642371  0.90436246  0.68682750  1  0.504024  0  0.108986  0.145657  0  3.995123  0
C  C48  1  0.52637535  0.93294187  0.65788060  1  -0.019002  0  0.013819  -0.102257  0  3.892513  0
C  C49  1  0.60038270  0.98975219  0.68695746  1  0.138521  0  0.004744  -0.068652  0  3.925437  0
C  C50  1  0.52640285  0.73372586  0.67545560  1  -0.019299  0  0.013876  -0.102171  0  3.892367  0
C  C51  1  0.46644101  0.76230418  0.64650967  1  0.504301  0  0.108941  0.145636  0  3.995197  0
C  C52  1  0.42964914  0.73267973  0.58843451  1  0.00793  0  0.011781  -0.093847  0  3.918628  0
C  C53  1  0.47684597  0.67522835  0.56013645  1  -0.032101  0  -0.001737  -0.090967  0  3.958835  0
C  C54  1  0.57285531  0.64707260  0.58807512  1  -0.101704  0  0.014363  -0.035937  0  3.834008  0
C  C55  1  0.60041168  0.67691644  0.64637582  1  0.138726  0  0.004643  -0.068691  0  3.925567  0
C  C56  1  0.57279708  0.22563921  0.98041620  1  -0.015007  0  0.014381  -0.035726  0  3.834955  0
C  C57  1  0.47681281  0.28173156  0.00856219  1  0.016453  0  -0.001695  -0.091095  0  3.95922  0
C  C58  1  0.42955849  0.31089495  0.06601180  1  -0.000471  0  0.012024  -0.093695  0  3.918564  0
C  C59  1  0.46636770  0.28245461  0.09564801  1  0.51485  0  0.10904  0.145976  0  3.994515  0
C  C60  1  0.52634537  0.22493054  0.06707694  1  -0.032372  0  0.013554  -0.102555  0  3.892965  0
C  C61  1  0.60032501  0.19718310  0.01026501  1  0.021534  0  0.004549  -0.069158  0  3.925844  0
C  C62  1  0.52637882  0.44173473  0.26625857  1  -0.031542  0  0.01362  -0.102592  0  3.89286  0
C  C63  1  0.46640430  0.38420963  0.23768770  1  0.515363  0  0.108919  0.145782  0  3.994876  0
C  C64  1  0.42960731  0.35576866  0.26732518  1  -0.001079  0  0.01198  -0.093828  0  3.918745  0
C  C65  1  0.47686657  0.38493190  0.32477433  1  0.016377  0  -0.001699  -0.091097  0  3.959254  0
C  C66  1  0.57284699  0.44102629  0.35291902  1  -0.014717  0  0.014492  -0.035508  0  3.834669  0
C  C67  1  0.60037210  0.46948234  0.32306976  1  0.021354  0  0.004505  -0.069129  0  3.92552  0
C  C68  1  0.72240543  0.34754738  0.86112379  1  1.623352  0  0.250848  0.614861  0  4.096238  0
C  C69  1  0.43198814  0.40281196  0.80610070  1  1.639227  0  0.254073  0.605432  0  4.137869  0
C  C70  1  0.40247418  0.16598847  0.69006295  1  1.634225  0  0.250012  0.618591  0  4.117016  0
C  C71  1  0.29841018  0.22372733  0.63105585  1  1.60205  0  0.244073  0.596355  0  4.169619  0
C  C72  1  0.43194133  0.26385212  0.52723279  1  1.639102  0  0.254283  0.605869  0  4.137868  0
C  C73  1  0.72236771  0.31911465  0.47220655  1  1.623774  0  0.25094  0.614911  0  4.09568  0
C  C74  1  0.29839114  0.44293430  0.70227982  1  1.611347  0  0.244182  0.596432  0  4.169285  0
C  C75  1  0.40239228  0.50066955  0.64326717  1  1.633126  0  0.250005  0.618494  0  4.116984  0
C  C76  1  0.72250416  0.01359096  0.65247937  1  1.622557  0  0.250725  0.614404  0  4.096389  0
C  C77  1  0.43211043  0.90330631  0.59719647  1  1.634624  0  0.2541  0.605399  0  4.137046  0
C  C78  1  0.40200490  0.02405053  0.83401187  1  1.616563  0  0.250242  0.618451  0  4.117543  0
C  C79  1  0.29851288  0.90730006  0.77626615  1  1.6003  0  0.244215  0.596508  0  4.169806  0
C  C80  1  0.43212333  0.76336003  0.73614021  1  1.634642  0  0.254071  0.605446  0  4.137309  0
C  C81  1  0.72250807  0.65307665  0.68085114  1  1.621494  0  0.250693  0.614358  0  4.096451  0
C  C82  1  0.29854491  0.75936619  0.55707467  1  1.600185  0  0.244179  0.596346  0  4.169662  0
C  C83  1  0.40195758  0.64261607  0.49932766  1  1.617072  0  0.250164  0.618524  0  4.117432  0
C  C84  1  0.72239521  0.13886156  0.98643996  1  1.614152  0  0.251116  0.61544  0  4.095155  0
C  C85  1  0.43204901  0.19388684  0.09671740  1  1.637392  0  0.254138  0.605673  0  4.137379  0
C  C86  1  0.40220859  0.30993306  0.97594118  1  1.614851  0  0.250453  0.619087  0  4.11624  0
C  C87  1  0.29845942  0.36894296  0.09267870  1  1.602114  0  0.244124  0.596303  0  4.170118  0
C  C88  1  0.43208293  0.47277777  0.23661932  1  1.63647  0  0.254273  0.605785  0  4.137162  0
C  C89  1  0.72245534  0.52780511  0.34689294  1  1.6153  0  0.250984  0.615167  0  4.095644  0
C  C90  1  0.29845327  0.29772147  0.24066081  1  1.601509  0  0.244048  0.596249  0  4.170011  0
C  C91  1  0.40225483  0.35673112  0.35739718  1  1.614449  0  0.250145  0.619004  0  4.116502  0
N  N92  1  0.45347815  0.34660307  0.69298408  1  -0.544004  0  -0.123205  -0.084652  0  3.271214  0
N  N93  1  0.45348656  0.32005871  0.64035030  1  -0.374785  0  -0.123297  -0.084999  0  3.271251  0
N  N94  1  0.45367517  0.84638451  0.65340227  1  -0.538903  0  -0.12334  -0.08483  0  3.271001  0
N  N95  1  0.45368946  0.82028243  0.67993529  1  -0.382174  0  -0.123247  -0.084747  0  3.270862  0
N  N96  1  0.45366096  0.30701452  0.15362624  1  -0.548857  0  -0.123356  -0.085012  0  3.270985  0
N  N97  1  0.45364055  0.35964982  0.17971006  1  -0.380981  0  -0.123204  -0.084647  0  3.27089  0
O  O98  1  0.81758384  0.55798452  0.55530627  1  -1.248149  0  -0.231242  -0.592409  0  2.356227  0
O  O99  1  0.81760526  0.49733699  0.44199850  1  -1.250579  0  -0.231209  -0.592251  0  2.35589  0
O  O100  1  0.81759089  0.44467015  0.50265596  1  -1.24943  0  -0.231283  -0.59244  0  2.355571  0
O  O101  1  0.34378136  0.56314157  0.52504746  1  -1.248973  0  -0.227759  -0.603735  0  2.399529  0
O  O102  1  0.34376735  0.47492602  0.53807489  1  -1.247275  0  -0.22792  -0.603855  0  2.39926  0
O  O103  1  0.34377960  0.46191401  0.43684633  1  -1.249683  0  -0.227852  -0.60381  0  2.399771  0
O  O104  1  0.81758174  0.16933426  0.89133793  1  -1.251755  0  -0.231071  -0.59214  0  2.355949  0
O  O105  1  0.81762571  0.22199837  0.83067816  1  -1.248815  0  -0.231242  -0.592252  0  2.355751  0
O  O106  1  0.81759404  0.10868510  0.77803394  1  -1.248341  0  -0.231189  -0.592247  0  2.356428  0
O  O107  1  0.34377825  0.20475521  0.89648831  1  -1.249671  0  -0.227893  -0.603774  0  2.39965  0
O  O108  1  0.34376284  0.10352434  0.80828761  1  -1.248521  0  -0.22766  -0.603676  0  2.399634  0
O  O109  1  0.34381100  0.19173686  0.79525674  1  -1.246642  0  -0.227923  -0.603797  0  2.399495  0
O  O110  1  0.54166845  0.38388863  0.90022110  1  -1.131221  0  -0.305436  -0.438493  0  2.280158  0
O  O111  1  0.99580403  0.34429331  0.86875752  1  -1.153423  0  -0.264996  -0.478794  0  2.231118  0
O  O112  1  0.61766803  0.44471701  0.83113620  1  -1.163238  0  -0.298422  -0.429136  0  2.283722  0
O  O113  1  0.15320301  0.40885681  0.80722427  1  -1.154238  0  -0.26688  -0.485356  0  2.268097  0
O  O114  1  0.61253069  0.13060823  0.68560490  1  -1.178749  0  -0.306961  -0.454501  0  2.36972  0
O  O115  1  0.14445901  0.14984287  0.67153055  1  -1.159289  0  -0.271823  -0.476579  0  2.248495  0
O  O116  1  0.47503142  0.18942927  0.58970477  1  -1.165164  0  -0.307031  -0.438363  0  2.282406  0
O  O117  1  0.02244274  0.22751178  0.62555797  1  -1.139269  0  -0.274553  -0.495751  0  2.24964  0
O  O118  1  0.61761685  0.22194854  0.50219545  1  -1.162911  0  -0.298576  -0.429288  0  2.284008  0
O  O119  1  0.15316281  0.25780317  0.52610988  1  -1.154389  0  -0.266869  -0.48536  0  2.268058  0
O  O120  1  0.54163145  0.28277438  0.43310935  1  -1.129751  0  -0.305499  -0.438631  0  2.280242  0
O  O121  1  0.99578078  0.32236668  0.46457396  1  -1.153733  0  -0.264991  -0.478725  0  2.230586  0
O  O122  1  0.47502546  0.47723572  0.74362644  1  -1.165362  0  -0.307115  -0.438338  0  2.282532  0
O  O123  1  0.02242822  0.43914606  0.70778239  1  -1.140516  0  -0.274594  -0.495733  0  2.249372  0
O  O124  1  0.61243940  0.53605724  0.64773043  1  -1.179035  0  -0.307095  -0.454493  0  2.369615  0
O  O125  1  0.14435572  0.51680416  0.66179278  1  -1.158347  0  -0.271729  -0.47655  0  2.248416  0
O  O126  1  0.54180668  0.01634750  0.61613299  1  -1.124417  0  -0.305236  -0.438014  0  2.280276  0
O  O127  1  0.99588462  0.02449617  0.65575473  1  -1.155359  0  -0.264892  -0.478621  0  2.231  0
O  O128  1  0.61782142  0.88646141  0.55529876  1  -1.159913  0  -0.298309  -0.428726  0  2.283872  0
O  O129  1  0.15333567  0.89835556  0.59114236  1  -1.152009  0  -0.26695  -0.48525  0  2.267693  0
O  O130  1  0.61186121  0.05499340  0.86943453  1  -1.177351  0  -0.306706  -0.453189  0  2.370181  0
O  O131  1  0.14383221  0.02164705  0.85008645  1  -1.161019  0  -0.272055  -0.477049  0  2.248694  0
O  O132  1  0.47515899  0.90025450  0.81056789  1  -1.160096  0  -0.307129  -0.438643  0  2.281965  0
O  O133  1  0.02258499  0.89798377  0.77245755  1  -1.139184  0  -0.27455  -0.49571  0  2.250127  0
O  O134  1  0.61781329  0.78020964  0.77803933  1  -1.161089  0  -0.298357  -0.428831  0  2.28385  0
O  O135  1  0.15334355  0.76830534  0.74219199  1  -1.15206  0  -0.266858  -0.485225  0  2.267924  0
O  O136  1  0.54179378  0.65031557  0.71719667  1  -1.123287  0  -0.305222  -0.437937  0  2.280334  0
O  O137  1  0.99588463  0.64217133  0.67757428  1  -1.154526  0  -0.264888  -0.478628  0  2.230976  0
O  O138  1  0.47522266  0.76641319  0.52277401  1  -1.159093  0  -0.307234  -0.438551  0  2.28218  0
O  O139  1  0.02262214  0.76868404  0.56088333  1  -1.138568  0  -0.274535  -0.495667  0  2.250082  0
O  O140  1  0.61177228  0.61167344  0.46389222  1  -1.178209  0  -0.306544  -0.453021  0  2.370226  0
O  O141  1  0.14375977  0.64502471  0.48327118  1  -1.160391  0  -0.271972  -0.477048  0  2.248693  0
O  O142  1  0.54164941  0.09976428  0.98369302  1  -1.121021  0  -0.305503  -0.438665  0  2.280101  0
O  O143  1  0.99577673  0.13122058  0.97553375  1  -1.1536  0  -0.265149  -0.479045  0  2.230345  0
O  O144  1  0.61771857  0.16885690  0.11359384  1  -1.161804  0  -0.298548  -0.42933  0  2.283558  0
O  O145  1  0.15325659  0.19276415  0.10163753  1  -1.151805  0  -0.266758  -0.485244  0  2.267961  0
O  O146  1  0.61216318  0.31441817  0.94501514  1  -1.178294  0  -0.306983  -0.454365  0  2.369005  0
O  O147  1  0.14409914  0.32843206  0.97834320  1  -1.161279  0  -0.272147  -0.477159  0  2.248481  0
O  O148  1  0.47511754  0.41029105  0.09972410  1  -1.160878  0  -0.307054  -0.438375  0  2.282638  0
O  O149  1  0.02251158  0.37444946  0.10198669  1  -1.141148  0  -0.274671  -0.495861  0  2.249916  0
O  O150  1  0.61778243  0.49780361  0.21973798  1  -1.160766  0  -0.298491  -0.429156  0  2.283705  0
O  O151  1  0.15329575  0.47389914  0.23170139  1  -1.151169  0  -0.266862  -0.485296  0  2.267954  0
O  O152  1  0.54173018  0.56689931  0.34963468  1  -1.12307  0  -0.305585  -0.438823  0  2.280221  0
O  O153  1  0.99582629  0.53544988  0.35780238  1  -1.153021  0  -0.265045  -0.478873  0  2.230868  0
O  O154  1  0.47507804  0.25637208  0.23361418  1  -1.160506  0  -0.30698  -0.43829  0  2.282498  0
O  O155  1  0.02250263  0.29221850  0.23136026  1  -1.140732  0  -0.274636  -0.495794  0  2.249696  0
O  O156  1  0.61220577  0.35225502  0.38832543  1  -1.175252  0  -0.307025  -0.454518  0  2.36903  0
O  O157  1  0.14414862  0.33822593  0.35499941  1  -1.160437  0  -0.271906  -0.47702  0  2.248554  0
