# generated using pymatgen
data_GdH6C2ClO7
_symmetry_space_group_name_H-M   'P 1'
_cell_length_a   5.84562186
_cell_length_b   8.22312700
_cell_length_c   15.55590004
_cell_angle_alpha   89.99996376
_cell_angle_beta   90.00011663
_cell_angle_gamma   105.04366521
_symmetry_Int_Tables_number   1
_chemical_formula_structural   GdH6C2ClO7
_chemical_formula_sum   'Gd4 H24 C8 Cl4 O28'
_cell_volume   722.13404094
_cell_formula_units_Z   4
loop_
 _symmetry_equiv_pos_site_id
 _symmetry_equiv_pos_as_xyz
  1  'x, y, z'
loop_
 _atom_site_type_symbol
 _atom_site_label
 _atom_site_symmetry_multiplicity
 _atom_site_fract_x
 _atom_site_fract_y
 _atom_site_fract_z
 _atom_site_occupancy
 _atom_site_hle17_bader_spin_density
 _atom_site_hle17_ddec_charge
 _atom_site_hle17_ddec_spin_density
 _atom_site_hle17_ddec_sum_bond_order
 _atom_site_hle17_magmom
 _atom_site_hse06_10hf_bader_spin_density
 _atom_site_hse06_10hf_ddec_charge
 _atom_site_hse06_10hf_ddec_spin_density
 _atom_site_hse06_10hf_ddec_sum_bond_order
 _atom_site_hse06_10hf_magmom
 _atom_site_hse06_bader_spin_density
 _atom_site_hse06_ddec_charge
 _atom_site_hse06_ddec_spin_density
 _atom_site_hse06_ddec_sum_bond_order
 _atom_site_hse06_magmom
 _atom_site_pbe_bader_spin_density
 _atom_site_pbe_cm5_charge
 _atom_site_pbe_ddec_charge
 _atom_site_pbe_ddec_spin_density
 _atom_site_pbe_ddec_sum_bond_order
 _atom_site_pbe_magmom
Gd  Gd0  1  0.98120447  0.16874539  0.39185810  1  0  2.181156  0  1.706309  0  0  2.0933  0  2.041316  0  0  2.142615  0  1.993904  0  0  1.367506  2.05542  0  2.078883  0
Gd  Gd1  1  0.51879719  0.33125911  0.89185275  1  0  2.181141  0  1.706358  0  0  2.093315  0  2.041335  0  0  2.14261  0  1.993959  0  0  1.367496  2.055443  0  2.0789  0
Gd  Gd2  1  0.01879341  0.83125915  0.60814661  1  0  2.181151  0  1.706388  0  0  2.093352  0  2.041327  0  0  2.142657  0  1.993933  0  0  1.36753  2.055491  0  2.078874  0
Gd  Gd3  1  0.48120539  0.66874421  0.10814167  1  0  2.181124  0  1.706331  0  0  2.093276  0  2.041314  0  0  2.142588  0  1.993908  0  0  1.367509  2.055389  0  2.078878  0
H  H4  1  0.33997257  0.49720020  0.33293803  1  0  0.433763  0  0.861374  0  0  0.403727  0  0.924235  0  0  0.413587  0  0.909929  0  0  0.284036  0.396682  0  0.934456  0
H  H5  1  0.16004504  0.00279896  0.83293419  1  0  0.433746  0  0.861372  0  0  0.403714  0  0.924227  0  0  0.413573  0  0.909924  0  0  0.284001  0.396669  0  0.934448  0
H  H6  1  0.66004410  0.50279942  0.66706411  1  0  0.433734  0  0.861393  0  0  0.403699  0  0.924255  0  0  0.413559  0  0.90995  0  0  0.284001  0.396652  0  0.934476  0
H  H7  1  0.83996134  0.99720060  0.16706345  1  0  0.433769  0  0.861354  0  0  0.403734  0  0.924213  0  0  0.413595  0  0.909906  0  0  0.284015  0.396688  0  0.934436  0
H  H8  1  0.49800152  0.37943659  0.36829511  1  0  0.461188  0  0.808637  0  0  0.4332  0  0.871497  0  0  0.443344  0  0.856446  0  0  0.3176  0.425913  0  0.882331  0
H  H9  1  0.00200815  0.12056378  0.86828982  1  0  0.461214  0  0.808596  0  0  0.433276  0  0.871387  0  0  0.443423  0  0.85633  0  0  0.317634  0.425986  0  0.882223  0
H  H10  1  0.50200784  0.62056174  0.63170895  1  0  0.461201  0  0.808596  0  0  0.433261  0  0.871405  0  0  0.443406  0  0.856351  0  0  0.31763  0.42597  0  0.882241  0
H  H11  1  0.99800389  0.87944210  0.13170781  1  0  0.461212  0  0.808644  0  0  0.433224  0  0.871474  0  0  0.443369  0  0.856421  0  0  0.317596  0.425934  0  0.88231  0
H  H12  1  0.21217569  0.95506318  0.27785205  1  0  0.427  0  0.869202  0  0  0.397669  0  0.935233  0  0  0.407618  0  0.920686  0  0  0.279378  0.390553  0  0.945642  0
H  H13  1  0.28783342  0.54493768  0.77785215  1  0  0.426916  0  0.869337  0  0  0.397605  0  0.935308  0  0  0.407552  0  0.920765  0  0  0.27935  0.390485  0  0.945726  0
H  H14  1  0.78782868  0.04494517  0.72214687  1  0  0.427065  0  0.869145  0  0  0.397711  0  0.935198  0  0  0.40766  0  0.920657  0  0  0.279403  0.390594  0  0.945608  0
H  H15  1  0.71217729  0.45506442  0.22214742  1  0  0.4269  0  0.869349  0  0  0.397585  0  0.935339  0  0  0.407533  0  0.920793  0  0  0.279359  0.390469  0  0.945749  0
H  H16  1  0.37745933  0.13643627  0.26662307  1  0  0.436368  0  0.837048  0  0  0.407102  0  0.912106  0  0  0.416803  0  0.897808  0  0  0.297577  0.400126  0  0.922135  0
H  H17  1  0.12254979  0.36356412  0.76661522  1  0  0.436437  0  0.83691  0  0  0.407165  0  0.912004  0  0  0.416866  0  0.897705  0  0  0.297607  0.40019  0  0.922007  0
H  H18  1  0.62255226  0.86356835  0.73338356  1  0  0.43644  0  0.836928  0  0  0.407183  0  0.911979  0  0  0.416885  0  0.897678  0  0  0.297633  0.400207  0  0.92199  0
H  H19  1  0.87746046  0.63643673  0.23337727  1  0  0.436403  0  0.836949  0  0  0.407114  0  0.912069  0  0  0.416815  0  0.89777  0  0  0.297605  0.40014  0  0.922061  0
H  H20  1  0.64585201  0.83361923  0.32369915  1  0  0.422421  0  0.875147  0  0  0.392217  0  0.939331  0  0  0.401807  0  0.92542  0  0  0.283903  0.385387  0  0.949229  0
H  H21  1  0.85414756  0.66639078  0.82369861  1  0  0.422529  0  0.875012  0  0  0.392283  0  0.939278  0  0  0.401872  0  0.925367  0  0  0.283981  0.385447  0  0.949187  0
H  H22  1  0.35415496  0.16639165  0.67630106  1  0  0.422559  0  0.874953  0  0  0.392307  0  0.939229  0  0  0.401897  0  0.925317  0  0  0.283959  0.385471  0  0.949136  0
H  H23  1  0.14584913  0.33362004  0.17630159  1  0  0.422431  0  0.875114  0  0  0.392227  0  0.939301  0  0  0.401818  0  0.925389  0  0  0.283904  0.385399  0  0.949196  0
H  H24  1  0.83072107  0.79258669  0.39120545  1  0  0.446693  0  0.846903  0  0  0.417233  0  0.90704  0  0  0.429142  0  0.889648  0  0  0.30157  0.408733  0  0.919457  0
H  H25  1  0.66927021  0.70741823  0.89120347  1  0  0.446604  0  0.847021  0  0  0.417153  0  0.907143  0  0  0.429062  0  0.889751  0  0  0.301551  0.408654  0  0.919562  0
H  H26  1  0.16928284  0.20742040  0.60879348  1  0  0.446588  0  0.847039  0  0  0.417126  0  0.907174  0  0  0.429034  0  0.889784  0  0  0.30153  0.408627  0  0.919588  0
H  H27  1  0.33071999  0.29258878  0.10879417  1  0  0.446666  0  0.846928  0  0  0.417199  0  0.907082  0  0  0.429108  0  0.88969  0  0  0.301557  0.4087  0  0.919499  0
C  C28  1  0.05681084  0.46417599  0.53815202  1  0  0.579262  0  3.881865  0  0  0.533788  0  4.183863  0  0  0.564278  0  4.174042  0  0  0.224664  0.513061  0  4.189741  0
C  C29  1  0.44318314  0.03580928  0.03815096  1  0  0.579269  0  3.881685  0  0  0.533786  0  4.183702  0  0  0.564286  0  4.173861  0  0  0.224726  0.513052  0  4.189578  0
C  C30  1  0.94318333  0.53580842  0.46185011  1  0  0.579441  0  3.881301  0  0  0.533948  0  4.183334  0  0  0.564455  0  4.17349  0  0  0.224761  0.513214  0  4.189213  0
C  C31  1  0.55679344  0.96417378  0.96184925  1  0  0.579476  0  3.881547  0  0  0.533981  0  4.183559  0  0  0.564486  0  4.173717  0  0  0.224776  0.513257  0  4.189433  0
C  C32  1  0.44180834  0.04859292  0.46834272  1  0  0.601238  0  3.871049  0  0  0.557701  0  4.167127  0  0  0.588964  0  4.155284  0  0  0.238441  0.536343  0  4.174526  0
C  C33  1  0.05819151  0.45140235  0.96834379  1  0  0.600996  0  3.870845  0  0  0.557525  0  4.166907  0  0  0.588774  0  4.155075  0  0  0.238483  0.53618  0  4.174304  0
C  C34  1  0.55818508  0.95139903  0.53165556  1  0  0.601065  0  3.871317  0  0  0.557648  0  4.167298  0  0  0.588844  0  4.155545  0  0  0.238582  0.536303  0  4.174694  0
C  C35  1  0.94181435  0.54859093  0.03165578  1  0  0.601304  0  3.871053  0  0  0.557755  0  4.167178  0  0  0.588985  0  4.155359  0  0  0.238502  0.536395  0  4.174583  0
Cl  Cl36  1  0.79046835  0.21808873  0.22878420  1  0  -0.621743  0  0.869185  0  0  -0.568518  0  1.083208  0  0  -0.582635  0  1.061379  0  0  -0.238538  -0.557907  0  1.098929  0
Cl  Cl37  1  0.70953885  0.28191458  0.72878223  1  0  -0.621806  0  0.869266  0  0  -0.568543  0  1.08335  0  0  -0.582658  0  1.061526  0  0  -0.238518  -0.557917  0  1.099074  0
Cl  Cl38  1  0.20952984  0.78190702  0.77121344  1  0  -0.621761  0  0.86924  0  0  -0.568526  0  1.083279  0  0  -0.582637  0  1.061452  0  0  -0.238544  -0.557903  0  1.099004  0
Cl  Cl39  1  0.29046843  0.71808750  0.27121541  1  0  -0.621772  0  0.869173  0  0  -0.56853  0  1.083187  0  0  -0.582649  0  1.061359  0  0  -0.238548  -0.557922  0  1.098905  0
O  O40  1  0.08042005  0.31563026  0.52836413  1  0  -0.656691  0  2.112461  0  0  -0.607968  0  2.347211  0  0  -0.633815  0  2.338345  0  0  -0.349906  -0.589626  0  2.352887  0
O  O41  1  0.41957536  0.18436885  0.02836493  1  0  -0.65678  0  2.111867  0  0  -0.608054  0  2.346629  0  0  -0.633907  0  2.337758  0  0  -0.349975  -0.589715  0  2.352307  0
O  O42  1  0.91958685  0.68437559  0.47163929  1  0  -0.656881  0  2.111733  0  0  -0.608185  0  2.346526  0  0  -0.634039  0  2.337651  0  0  -0.350051  -0.589844  0  2.352206  0
O  O43  1  0.58039920  0.81562300  0.97164106  1  0  -0.656831  0  2.112218  0  0  -0.608101  0  2.346983  0  0  -0.633953  0  2.338111  0  0  -0.35005  -0.589758  0  2.352659  0
O  O44  1  0.11604023  0.55668792  0.60315373  1  0  -0.639103  0  2.098067  0  0  -0.598456  0  2.341074  0  0  -0.622681  0  2.333903  0  0  -0.349492  -0.58134  0  2.34568  0
O  O45  1  0.38394915  0.94331789  0.10314799  1  0  -0.639006  0  2.098246  0  0  -0.598358  0  2.341238  0  0  -0.622582  0  2.334062  0  0  -0.349462  -0.581235  0  2.345832  0
O  O46  1  0.88395274  0.44330277  0.39685676  1  0  -0.639071  0  2.098323  0  0  -0.598406  0  2.341317  0  0  -0.622629  0  2.33413  0  0  -0.349455  -0.581283  0  2.34592  0
O  O47  1  0.61602950  0.05669031  0.89684772  1  0  -0.639116  0  2.097895  0  0  -0.598497  0  2.340994  0  0  -0.622726  0  2.333814  0  0  -0.349494  -0.581381  0  2.345601  0
O  O48  1  0.57452348  0.14727010  0.41673275  1  0  -0.66958  0  2.182346  0  0  -0.627664  0  2.427482  0  0  -0.652554  0  2.420537  0  0  -0.361832  -0.61007  0  2.431877  0
O  O49  1  0.92545828  0.35271166  0.91672899  1  0  -0.669562  0  2.181991  0  0  -0.627636  0  2.42709  0  0  -0.652525  0  2.420153  0  0  -0.361893  -0.610048  0  2.431486  0
O  O50  1  0.42545310  0.85271296  0.58326810  1  0  -0.669527  0  2.182196  0  0  -0.627617  0  2.427241  0  0  -0.652488  0  2.420329  0  0  -0.361917  -0.610028  0  2.431637  0
O  O51  1  0.07452561  0.64727269  0.08326607  1  0  -0.669569  0  2.182302  0  0  -0.627644  0  2.427429  0  0  -0.652528  0  2.420499  0  0  -0.361846  -0.610051  0  2.431827  0
O  O52  1  0.21795974  0.02115310  0.47363259  1  0  -0.698756  0  2.162224  0  0  -0.657755  0  2.413735  0  0  -0.682982  0  2.405332  0  0  -0.37535  -0.639607  0  2.418943  0
O  O53  1  0.28203112  0.47884086  0.97363575  1  0  -0.698611  0  2.162374  0  0  -0.657701  0  2.413988  0  0  -0.682912  0  2.405563  0  0  -0.375331  -0.63952  0  2.419125  0
O  O54  1  0.78202302  0.97884256  0.52636312  1  0  -0.698642  0  2.162641  0  0  -0.657767  0  2.414216  0  0  -0.682959  0  2.405809  0  0  -0.375354  -0.639589  0  2.419362  0
O  O55  1  0.71796833  0.52115364  0.02636639  1  0  -0.698785  0  2.16229  0  0  -0.657763  0  2.413793  0  0  -0.682983  0  2.405406  0  0  -0.375343  -0.639614  0  2.419002  0
O  O56  1  0.33597462  0.39154655  0.36400279  1  0  -0.898496  0  1.884858  0  0  -0.854618  0  2.071848  0  0  -0.873353  0  2.041013  0  0  -0.635624  -0.841086  0  2.09371  0
O  O57  1  0.16403540  0.10845006  0.86400277  1  0  -0.898485  0  1.88482  0  0  -0.854651  0  2.071712  0  0  -0.873381  0  2.040878  0  0  -0.635611  -0.841104  0  2.093574  0
O  O58  1  0.66403690  0.60845305  0.63599806  1  0  -0.898451  0  1.884804  0  0  -0.854625  0  2.071712  0  0  -0.873357  0  2.040877  0  0  -0.635624  -0.841079  0  2.093573  0
O  O59  1  0.83597225  0.89154826  0.13599680  1  0  -0.898523  0  1.884848  0  0  -0.854646  0  2.071799  0  0  -0.873381  0  2.040963  0  0  -0.635596  -0.841114  0  2.093664  0
O  O60  1  0.21472257  0.07557938  0.28157298  1  0  -0.901875  0  1.963602  0  0  -0.861849  0  2.166547  0  0  -0.880741  0  2.136364  0  0  -0.641047  -0.848141  0  2.187661  0
O  O61  1  0.28528492  0.42442100  0.78157230  1  0  -0.90186  0  1.963673  0  0  -0.861837  0  2.166637  0  0  -0.880725  0  2.136457  0  0  -0.641045  -0.848123  0  2.18772  0
O  O62  1  0.78528135  0.92442771  0.71842787  1  0  -0.902027  0  1.963478  0  0  -0.861989  0  2.166422  0  0  -0.880897  0  2.136233  0  0  -0.64113  -0.848273  0  2.187519  0
O  O63  1  0.71472362  0.57557984  0.21842534  1  0  -0.901788  0  1.963626  0  0  -0.86174  0  2.166655  0  0  -0.880629  0  2.136465  0  0  -0.641052  -0.848035  0  2.187734  0
O  O64  1  0.79998411  0.88068807  0.35176572  1  0  -0.902834  0  1.912673  0  0  -0.859114  0  2.099038  0  0  -0.879398  0  2.068793  0  0  -0.642914  -0.844484  0  2.120421  0
O  O65  1  0.70001941  0.61931819  0.85176573  1  0  -0.902841  0  1.912568  0  0  -0.859114  0  2.098941  0  0  -0.879393  0  2.068699  0  0  -0.64297  -0.844473  0  2.120327  0
O  O66  1  0.20002108  0.11931778  0.64823191  1  0  -0.902873  0  1.912516  0  0  -0.859122  0  2.098896  0  0  -0.8794  0  2.068655  0  0  -0.642934  -0.844482  0  2.120281  0
O  O67  1  0.29998369  0.38069141  0.14823384  1  0  -0.902829  0  1.912662  0  0  -0.859096  0  2.099012  0  0  -0.879379  0  2.068767  0  0  -0.642908  -0.844469  0  2.120389  0
