# generated using pymatgen
data_La2H9C18(NO4)3
_symmetry_space_group_name_H-M   'P 1'
_cell_length_a   6.65703186
_cell_length_b   7.72702710
_cell_length_c   18.50993881
_cell_angle_alpha   89.99987263
_cell_angle_beta   89.91661996
_cell_angle_gamma   89.99991718
_symmetry_Int_Tables_number   1
_chemical_formula_structural   La2H9C18(NO4)3
_chemical_formula_sum   'La4 H18 C36 N6 O24'
_cell_volume   952.13294808
_cell_formula_units_Z   2
loop_
 _symmetry_equiv_pos_site_id
 _symmetry_equiv_pos_as_xyz
  1  'x, y, z'
loop_
 _atom_site_type_symbol
 _atom_site_label
 _atom_site_symmetry_multiplicity
 _atom_site_fract_x
 _atom_site_fract_y
 _atom_site_fract_z
 _atom_site_occupancy
 _atom_site_hle17_bader_spin_density
 _atom_site_hle17_ddec_charge
 _atom_site_hle17_ddec_spin_density
 _atom_site_hle17_ddec_sum_bond_order
 _atom_site_hle17_magmom
 _atom_site_hse06_10hf_bader_spin_density
 _atom_site_hse06_10hf_ddec_charge
 _atom_site_hse06_10hf_ddec_spin_density
 _atom_site_hse06_10hf_ddec_sum_bond_order
 _atom_site_hse06_10hf_magmom
 _atom_site_hse06_bader_spin_density
 _atom_site_hse06_ddec_charge
 _atom_site_hse06_ddec_spin_density
 _atom_site_hse06_ddec_sum_bond_order
 _atom_site_hse06_magmom
 _atom_site_pbe_bader_spin_density
 _atom_site_pbe_cm5_charge
 _atom_site_pbe_ddec_charge
 _atom_site_pbe_ddec_spin_density
 _atom_site_pbe_ddec_sum_bond_order
 _atom_site_pbe_magmom
La  La0  1  0.06132714  0.59947781  0.89422655  1  0  2.1347  0  1.819454  0  0  2.027323  0  2.351021  0  0  2.133396  0  2.244299  0  0  1.453151  1.946722  0  2.426336  0
La  La1  1  0.43867048  0.59948093  0.60577385  1  0  2.134719  0  1.819428  0  0  2.027366  0  2.350966  0  0  2.133431  0  2.244251  0  0  1.45315  1.946764  0  2.426289  0
La  La2  1  0.93866869  0.40052187  0.10577448  1  0  2.134691  0  1.819467  0  0  2.027324  0  2.351015  0  0  2.133398  0  2.244294  0  0  1.453145  1.946719  0  2.426336  0
La  La3  1  0.56132990  0.40052133  0.39422557  1  0  2.134636  0  1.819471  0  0  2.027281  0  2.351029  0  0  2.133352  0  2.244308  0  0  1.453127  1.946693  0  2.426333  0
H  H4  1  0.42262469  0.52483138  0.08151815  1  0  0.319039  0  0.8907  0  0  0.292413  0  0.965213  0  0  0.302652  0  0.95594  0  0  0.325932  0.285072  0  0.972027  0
H  H5  1  0.07737352  0.52483070  0.41848158  1  0  0.319032  0  0.890704  0  0  0.292409  0  0.96522  0  0  0.302649  0  0.955944  0  0  0.325928  0.285065  0  0.972037  0
H  H6  1  0.57737117  0.47516830  0.91848180  1  0  0.319072  0  0.890641  0  0  0.29245  0  0.965155  0  0  0.302689  0  0.955879  0  0  0.325954  0.28511  0  0.971968  0
H  H7  1  0.92262834  0.47517157  0.58151839  1  0  0.319039  0  0.890704  0  0  0.292426  0  0.965208  0  0  0.302667  0  0.95593  0  0  0.325922  0.285082  0  0.972027  0
H  H8  1  0.75000328  0.72584332  0.75000053  1  0  0.317932  0  0.891616  0  0  0.291607  0  0.964951  0  0  0.301744  0  0.955857  0  0  0.324271  0.284352  0  0.97164  0
H  H9  1  0.24999855  0.27415766  0.25000052  1  0  0.317919  0  0.891654  0  0  0.291586  0  0.964994  0  0  0.301725  0  0.955895  0  0  0.324234  0.284325  0  0.971689  0
H  H10  1  0.13634175  0.99322399  0.03176528  1  0  0.12982  0  0.955582  0  0  0.137596  0  1.021333  0  0  0.141778  0  1.019742  0  0  0.117303  0.134657  0  1.022651  0
H  H11  1  0.36365719  0.99322269  0.46823348  1  0  0.129777  0  0.955648  0  0  0.137588  0  1.021365  0  0  0.141769  0  1.019771  0  0  0.117311  0.134651  0  1.022682  0
H  H12  1  0.86365412  0.00677569  0.96823414  1  0  0.129759  0  0.955625  0  0  0.137588  0  1.021337  0  0  0.141769  0  1.019744  0  0  0.117279  0.134648  0  1.022655  0
H  H13  1  0.63634617  0.00678088  0.53176703  1  0  0.129751  0  0.955675  0  0  0.13756  0  1.021406  0  0  0.141741  0  1.019816  0  0  0.117289  0.134621  0  1.022725  0
H  H14  1  0.71656593  0.98871321  0.13663373  1  0  0.146748  0  0.973073  0  0  0.151215  0  1.039245  0  0  0.156793  0  1.036229  0  0  0.115581  0.14719  0  1.04166  0
H  H15  1  0.78343014  0.98871386  0.36336631  1  0  0.146693  0  0.9731  0  0  0.151174  0  1.039255  0  0  0.156753  0  1.036239  0  0  0.115567  0.147153  0  1.041669  0
H  H16  1  0.28342991  0.01128518  0.86336677  1  0  0.146714  0  0.973089  0  0  0.151183  0  1.039267  0  0  0.15676  0  1.036252  0  0  0.115556  0.147158  0  1.041682  0
H  H17  1  0.21657172  0.01128712  0.63663365  1  0  0.146696  0  0.97309  0  0  0.151174  0  1.03925  0  0  0.156752  0  1.036234  0  0  0.115551  0.147146  0  1.041668  0
H  H18  1  0.02837994  0.19208204  0.81042367  1  0  0.142469  0  0.975855  0  0  0.147106  0  1.042323  0  0  0.152312  0  1.039847  0  0  0.113212  0.143346  0  1.044332  0
H  H19  1  0.47162439  0.19208209  0.68957660  1  0  0.142496  0  0.975889  0  0  0.147138  0  1.042357  0  0  0.152344  0  1.039879  0  0  0.113223  0.143379  0  1.044364  0
H  H20  1  0.97162343  0.80791634  0.18957631  1  0  0.142485  0  0.975889  0  0  0.147132  0  1.042342  0  0  0.152338  0  1.039866  0  0  0.11324  0.143372  0  1.044351  0
H  H21  1  0.52837899  0.80791759  0.31042284  1  0  0.142473  0  0.975852  0  0  0.147096  0  1.042345  0  0  0.1523  0  1.039869  0  0  0.113205  0.143338  0  1.044352  0
C  C22  1  0.26027727  0.74152809  0.05370020  1  0  0.559342  0  3.866108  0  0  0.522753  0  4.147787  0  0  0.548596  0  4.15717  0  0  0.213211  0.505223  0  4.140644  0
C  C23  1  0.23971906  0.74152835  0.44629985  1  0  0.559345  0  3.866207  0  0  0.522747  0  4.147906  0  0  0.548588  0  4.157292  0  0  0.213235  0.505215  0  4.140766  0
C  C24  1  0.73971708  0.25847159  0.94629974  1  0  0.559275  0  3.866296  0  0  0.522672  0  4.148012  0  0  0.548513  0  4.157398  0  0  0.213217  0.505136  0  4.140874  0
C  C25  1  0.76028279  0.25847521  0.55370065  1  0  0.559379  0  3.866237  0  0  0.522755  0  4.147965  0  0  0.548598  0  4.15735  0  0  0.213217  0.505222  0  4.140831  0
C  C26  1  0.26199122  0.92214736  0.05435793  1  0  -0.292455  0  3.707282  0  0  -0.328259  0  3.975552  0  0  -0.343482  0  3.996513  0  0  -0.106421  -0.318447  0  3.961712  0
C  C27  1  0.23800482  0.92214633  0.44564142  1  0  -0.292483  0  3.707403  0  0  -0.328284  0  3.975745  0  0  -0.343497  0  3.996698  0  0  -0.106463  -0.318474  0  3.961905  0
C  C28  1  0.73800464  0.07785103  0.94564202  1  0  -0.292432  0  3.707226  0  0  -0.328255  0  3.975572  0  0  -0.343467  0  3.996527  0  0  -0.106454  -0.318441  0  3.961728  0
C  C29  1  0.76199552  0.07785335  0.55435909  1  0  -0.292385  0  3.707295  0  0  -0.328169  0  3.975665  0  0  -0.343382  0  3.996621  0  0  -0.10642  -0.318357  0  3.961828  0
C  C30  1  0.42770735  0.00886062  0.08393143  1  0  0.027229  0  3.789781  0  0  0.041683  0  4.026942  0  0  0.045759  0  4.046523  0  0  -0.000421  0.039387  0  4.013651  0
C  C31  1  0.07229027  0.00885995  0.41606769  1  0  0.027391  0  3.789634  0  0  0.041692  0  4.026976  0  0  0.045768  0  4.046553  0  0  -0.00039  0.039396  0  4.013684  0
C  C32  1  0.57228852  0.99113777  0.91606799  1  0  0.027321  0  3.789708  0  0  0.041638  0  4.027045  0  0  0.045705  0  4.046622  0  0  -0.000372  0.039344  0  4.013746  0
C  C33  1  0.92771159  0.99114102  0.58393282  1  0  0.027313  0  3.78966  0  0  0.041571  0  4.027044  0  0  0.045644  0  4.046637  0  0  -0.00042  0.03928  0  4.013749  0
C  C34  1  0.43215743  0.20366775  0.08434723  1  0  0.707719  0  3.826582  0  0  0.669416  0  4.105989  0  0  0.705963  0  4.093534  0  0  0.242946  0.644013  0  4.113945  0
C  C35  1  0.06783983  0.20366709  0.41565278  1  0  0.707621  0  3.826602  0  0  0.66942  0  4.105924  0  0  0.705956  0  4.093481  0  0  0.242952  0.644014  0  4.113884  0
C  C36  1  0.56783844  0.79633064  0.91565218  1  0  0.707736  0  3.826553  0  0  0.669563  0  4.105812  0  0  0.70611  0  4.093355  0  0  0.243003  0.644156  0  4.113771  0
C  C37  1  0.93216052  0.79633389  0.58434772  1  0  0.707674  0  3.826479  0  0  0.669538  0  4.105714  0  0  0.706064  0  4.09328  0  0  0.243002  0.644136  0  4.113672  0
C  C38  1  0.59005511  0.92002717  0.11296663  1  0  -0.275889  0  3.650232  0  0  -0.308777  0  3.910136  0  0  -0.322641  0  3.927293  0  0  -0.103505  -0.299945  0  3.899078  0
C  C39  1  0.90994110  0.92002624  0.38703293  1  0  -0.275884  0  3.650186  0  0  -0.308729  0  3.910129  0  0  -0.322587  0  3.927286  0  0  -0.10348  -0.299893  0  3.899071  0
C  C40  1  0.40994075  0.07997122  0.88703332  1  0  -0.275879  0  3.650283  0  0  -0.308759  0  3.910223  0  0  -0.322615  0  3.927379  0  0  -0.103483  -0.299928  0  3.899164  0
C  C41  1  0.09006075  0.07997473  0.61296758  1  0  -0.275858  0  3.650209  0  0  -0.308697  0  3.91017  0  0  -0.322551  0  3.927325  0  0  -0.103436  -0.299857  0  3.89911  0
C  C42  1  0.59077696  0.73780314  0.11184349  1  0  0.592136  0  3.82644  0  0  0.557623  0  4.103557  0  0  0.586186  0  4.107059  0  0  0.227329  0.538243  0  4.100612  0
C  C43  1  0.90922259  0.73780221  0.38815517  1  0  0.592161  0  3.826498  0  0  0.557624  0  4.103633  0  0  0.586182  0  4.107138  0  0  0.227308  0.538237  0  4.100696  0
C  C44  1  0.40922040  0.26219395  0.88815646  1  0  0.592139  0  3.826527  0  0  0.557682  0  4.103551  0  0  0.586241  0  4.107056  0  0  0.22735  0.538302  0  4.100607  0
C  C45  1  0.09078080  0.26219747  0.61184427  1  0  0.592258  0  3.826387  0  0  0.557731  0  4.103516  0  0  0.58629  0  4.10702  0  0  0.227347  0.538351  0  4.100577  0
C  C46  1  0.74999609  0.40415815  0.74999904  1  0  0.725876  0  3.799507  0  0  0.687403  0  4.078252  0  0  0.724982  0  4.063545  0  0  0.250538  0.66125  0  4.087811  0
C  C47  1  0.25000129  0.59584412  0.25000038  1  0  0.725965  0  3.799296  0  0  0.687384  0  4.078185  0  0  0.724954  0  4.063494  0  0  0.250509  0.661231  0  4.087745  0
C  C48  1  0.75000074  0.20977809  0.74999968  1  0  0.0195  0  3.792752  0  0  0.031173  0  4.036757  0  0  0.034917  0  4.056717  0  0  -0.006959  0.029134  0  4.023074  0
C  C49  1  0.24999815  0.79022159  0.24999920  1  0  0.019376  0  3.792768  0  0  0.031144  0  4.036698  0  0  0.034889  0  4.056659  0  0  -0.006992  0.029103  0  4.023017  0
C  C50  1  0.90687148  0.12232900  0.78417905  1  0  -0.29069  0  3.678566  0  0  -0.324416  0  3.940475  0  0  -0.339614  0  3.960019  0  0  -0.112653  -0.314541  0  3.927596  0
C  C51  1  0.59313617  0.12232420  0.71582041  1  0  -0.290841  0  3.678774  0  0  -0.324564  0  3.940682  0  0  -0.339764  0  3.960224  0  0  -0.112669  -0.314692  0  3.927804  0
C  C52  1  0.09313643  0.87767456  0.21581986  1  0  -0.290729  0  3.678831  0  0  -0.324451  0  3.940713  0  0  -0.339651  0  3.960254  0  0  -0.112646  -0.314577  0  3.927833  0
C  C53  1  0.40687024  0.87767289  0.28417849  1  0  -0.29074  0  3.678521  0  0  -0.324464  0  3.940414  0  0  -0.339663  0  3.959954  0  0  -0.112657  -0.314593  0  3.927537  0
C  C54  1  0.90565444  0.94070584  0.78559216  1  0  0.577338  0  3.844881  0  0  0.544715  0  4.121259  0  0  0.572205  0  4.126833  0  0  0.217916  0.52609  0  4.11685  0
C  C55  1  0.59434880  0.94070492  0.71440708  1  0  0.577645  0  3.844959  0  0  0.545024  0  4.121323  0  0  0.572521  0  4.126886  0  0  0.21801  0.526398  0  4.116919  0
C  C56  1  0.09434745  0.05929514  0.21440673  1  0  0.577479  0  3.844984  0  0  0.544815  0  4.121413  0  0  0.572315  0  4.126976  0  0  0.217905  0.526191  0  4.117005  0
C  C57  1  0.40565458  0.05929605  0.28559235  1  0  0.577473  0  3.84499  0  0  0.544862  0  4.121376  0  0  0.572359  0  4.126939  0  0  0.217893  0.526235  0  4.116972  0
N  N58  1  0.42491533  0.65816985  0.08196314  1  0  -0.457275  0  3.301279  0  0  -0.39281  0  3.528935  0  0  -0.413941  0  3.533622  0  0  -0.369335  -0.378668  0  3.52594  0
N  N59  1  0.07508117  0.65816917  0.41803591  1  0  -0.457302  0  3.301281  0  0  -0.392839  0  3.528958  0  0  -0.413973  0  3.53365  0  0  -0.369365  -0.378699  0  3.52597  0
N  N60  1  0.57508203  0.34182853  0.91803681  1  0  -0.457276  0  3.301238  0  0  -0.392836  0  3.528908  0  0  -0.413967  0  3.533593  0  0  -0.369363  -0.378701  0  3.525922  0
N  N61  1  0.92491919  0.34183180  0.58196405  1  0  -0.457392  0  3.301312  0  0  -0.392926  0  3.528992  0  0  -0.414061  0  3.533684  0  0  -0.369351  -0.378781  0  3.526004  0
N  N62  1  0.75000467  0.85900967  0.75000048  1  0  -0.463398  0  3.288478  0  0  -0.398104  0  3.513548  0  0  -0.419429  0  3.517912  0  0  -0.372698  -0.383809  0  3.510662  0
N  N63  1  0.25000018  0.14099131  0.25000004  1  0  -0.463454  0  3.28847  0  0  -0.398113  0  3.513506  0  0  -0.419454  0  3.517897  0  0  -0.372617  -0.383813  0  3.510621  0
O  O64  1  0.11577176  0.64418810  0.02776222  1  0  -0.78494  0  2.022885  0  0  -0.735649  0  2.29899  0  0  -0.77361  0  2.292078  0  0  -0.433689  -0.707198  0  2.302176  0
O  O65  1  0.38422473  0.64418804  0.47223792  1  0  -0.784931  0  2.022921  0  0  -0.735617  0  2.299002  0  0  -0.773578  0  2.292091  0  0  -0.433672  -0.707166  0  2.302189  0
O  O66  1  0.88422259  0.35581029  0.97223772  1  0  -0.784934  0  2.023047  0  0  -0.735611  0  2.299123  0  0  -0.773574  0  2.292216  0  0  -0.433674  -0.707157  0  2.302309  0
O  O67  1  0.61577712  0.35581423  0.52776259  1  0  -0.784981  0  2.022959  0  0  -0.735677  0  2.299103  0  0  -0.773638  0  2.292194  0  0  -0.433671  -0.707222  0  2.30229  0
O  O68  1  0.26970197  0.28530342  0.07193122  1  0  -0.708439  0  2.029494  0  0  -0.664113  0  2.290888  0  0  -0.696713  0  2.278722  0  0  -0.381464  -0.640319  0  2.298494  0
O  O69  1  0.23029663  0.28530249  0.42806926  1  0  -0.708395  0  2.02943  0  0  -0.664098  0  2.290788  0  0  -0.696695  0  2.278626  0  0  -0.381473  -0.640306  0  2.298397  0
O  O70  1  0.73029540  0.71469497  0.92806819  1  0  -0.708447  0  2.029451  0  0  -0.664165  0  2.290788  0  0  -0.696764  0  2.278618  0  0  -0.381524  -0.640377  0  2.2984  0
O  O71  1  0.76970822  0.71469719  0.57193126  1  0  -0.708411  0  2.029461  0  0  -0.664137  0  2.29079  0  0  -0.696728  0  2.27863  0  0  -0.381494  -0.640347  0  2.298401  0
O  O72  1  0.59752492  0.28043194  0.09634673  1  0  -0.705053  0  2.025421  0  0  -0.65581  0  2.277838  0  0  -0.68866  0  2.265755  0  0  -0.38158  -0.631963  0  2.285462  0
O  O73  1  0.90247537  0.28043352  0.40365343  1  0  -0.705037  0  2.025473  0  0  -0.655803  0  2.277834  0  0  -0.688646  0  2.265756  0  0  -0.381581  -0.631955  0  2.28546  0
O  O74  1  0.40247245  0.71956645  0.90365268  1  0  -0.70509  0  2.025456  0  0  -0.655871  0  2.277809  0  0  -0.688719  0  2.265726  0  0  -0.381595  -0.632024  0  2.285434  0
O  O75  1  0.09753099  0.71956875  0.59634709  1  0  -0.705049  0  2.025302  0  0  -0.655841  0  2.277647  0  0  -0.688683  0  2.265571  0  0  -0.381601  -0.631993  0  2.285273  0
O  O76  1  0.73361778  0.64223842  0.13592557  1  0  -0.699825  0  2.004618  0  0  -0.656748  0  2.262922  0  0  -0.689595  0  2.252377  0  0  -0.418911  -0.63242  0  2.269026  0
O  O77  1  0.76638346  0.64223779  0.36407211  1  0  -0.699873  0  2.004712  0  0  -0.656747  0  2.262984  0  0  -0.689592  0  2.252439  0  0  -0.418899  -0.632417  0  2.269089  0
O  O78  1  0.26637959  0.35776126  0.86407385  1  0  -0.699843  0  2.004704  0  0  -0.656778  0  2.262975  0  0  -0.689623  0  2.252434  0  0  -0.418931  -0.632447  0  2.269078  0
O  O79  1  0.23362142  0.35776318  0.63592733  1  0  -0.699906  0  2.004632  0  0  -0.656818  0  2.26293  0  0  -0.689663  0  2.252386  0  0  -0.418929  -0.632488  0  2.269037  0
O  O80  1  0.85705418  0.48374355  0.79623491  1  0  -0.70862  0  2.011784  0  0  -0.660123  0  2.266592  0  0  -0.69345  0  2.252737  0  0  -0.388131  -0.635887  0  2.275435  0
O  O81  1  0.64294228  0.48374004  0.70376635  1  0  -0.708505  0  2.011986  0  0  -0.660008  0  2.266786  0  0  -0.693334  0  2.252931  0  0  -0.388047  -0.635772  0  2.275627  0
O  O82  1  0.14294015  0.51625872  0.20376612  1  0  -0.708585  0  2.011723  0  0  -0.66007  0  2.266593  0  0  -0.693394  0  2.252743  0  0  -0.388087  -0.635832  0  2.275435  0
O  O83  1  0.35705811  0.51625964  0.29623253  1  0  -0.708556  0  2.011831  0  0  -0.660034  0  2.266693  0  0  -0.693357  0  2.252844  0  0  -0.388047  -0.635799  0  2.275536  0
O  O84  1  0.03678651  0.84601010  0.81842962  1  0  -0.713366  0  2.013797  0  0  -0.671239  0  2.274298  0  0  -0.705107  0  2.264833  0  0  -0.428107  -0.646075  0  2.279382  0
O  O85  1  0.46321968  0.84601020  0.68157166  1  0  -0.713498  0  2.013957  0  0  -0.671395  0  2.274488  0  0  -0.705263  0  2.265011  0  0  -0.428158  -0.646235  0  2.279584  0
O  O86  1  0.96321533  0.15399088  0.18157143  1  0  -0.713384  0  2.013901  0  0  -0.671261  0  2.274433  0  0  -0.70513  0  2.26496  0  0  -0.428084  -0.6461  0  2.279523  0
O  O87  1  0.53678368  0.15398948  0.31842885  1  0  -0.713321  0  2.01392  0  0  -0.671297  0  2.274514  0  0  -0.705162  0  2.265037  0  0  -0.4281  -0.646136  0  2.279605  0
