# generated using pymatgen
data_MgH9(C5O)3
_symmetry_space_group_name_H-M   'P 1'
_cell_length_a   6.89197646
_cell_length_b   42.42567441
_cell_length_c   42.42615869
_cell_angle_alpha   119.71040058
_cell_angle_beta   93.10116507
_cell_angle_gamma   93.10636507
_symmetry_Int_Tables_number   1
_chemical_formula_structural   MgH9(C5O)3
_chemical_formula_sum   'Mg6 H54 C90 O18'
_cell_volume   10711.68590971
_cell_formula_units_Z   6
loop_
 _symmetry_equiv_pos_site_id
 _symmetry_equiv_pos_as_xyz
  1  'x, y, z'
loop_
 _atom_site_type_symbol
 _atom_site_label
 _atom_site_symmetry_multiplicity
 _atom_site_fract_x
 _atom_site_fract_y
 _atom_site_fract_z
 _atom_site_occupancy
 _atom_site_pbe_bader_charge
 _atom_site_pbe_bader_spin_density
 _atom_site_pbe_cm5_charge
 _atom_site_pbe_ddec_charge
 _atom_site_pbe_ddec_spin_density
 _atom_site_pbe_ddec_sum_bond_order
 _atom_site_pbe_magmom
Mg  Mg0  1  0.88637984  0.69002652  0.33085076  1  1.68332  0  0.909566  1.411264  0  1.3247  0
Mg  Mg1  1  0.36097766  0.31094040  0.67075812  1  1.683111  0  0.910702  1.409459  0  1.328605  0
Mg  Mg2  1  0.19632394  0.64083255  0.30998500  1  1.680967  0  0.909539  1.410255  0  1.325916  0
Mg  Mg3  1  0.05002058  0.35981687  0.68906445  1  1.681203  0  0.910741  1.4094  0  1.328157  0
Mg  Mg4  1  0.55553934  0.66915023  0.35916877  1  1.683884  0  0.909474  1.410544  0  1.325439  0
Mg  Mg5  1  0.69020535  0.32924714  0.64018253  1  1.683493  0  0.910559  1.408854  0  1.329119  0
H  H6  1  0.43081561  0.59501845  0.20743060  1  0.077659  0  0.103511  0.106634  0  1.017492  0
H  H7  1  0.41597179  0.57022592  0.14458179  1  0.015845  0  0.096885  0.093484  0  1.013092  0
H  H8  1  0.24866673  0.56023034  0.09672178  1  0.04313  0  0.096287  0.091984  0  1.018121  0
H  H9  1  0.05822851  0.52982854  0.03735095  1  0.030663  0  0.094712  0.088272  0  1.046813  0
H  H10  1  0.96705884  0.52679689  0.98658357  1  0.060825  0  0.100679  0.100223  0  1.007646  0
H  H11  1  0.77083254  0.49611596  0.92768626  1  0.057984  0  0.101532  0.101606  0  1.001087  0
H  H12  1  0.57354100  0.45491647  0.87893677  1  0.046048  0  0.098942  0.098387  0  1.008989  0
H  H13  1  0.81733476  0.41042357  0.79172182  1  0.091298  0  0.104203  0.106975  0  1.023062  0
H  H14  1  0.97271857  0.59380574  0.16077930  1  0.047988  0  0.101929  0.096659  0  1.00193  0
H  H15  1  0.14285816  0.62857691  0.22278577  1  0.077718  0  0.105529  0.121907  0  1.00967  0
H  H16  1  0.80092487  0.55878387  0.10836404  1  0.039432  0  0.096001  0.094145  0  1.012602  0
H  H17  1  0.17253097  0.41315660  0.88529966  1  0.055896  0  0.099249  0.097775  0  1.007305  0
H  H18  1  0.36934313  0.44383834  0.94447241  1  0.041817  0  0.102222  0.103096  0  1.003844  0
H  H19  1  0.92205937  0.41189380  0.84433982  1  0.039129  0  0.096222  0.094624  0  1.017716  0
H  H20  1  0.10100588  0.38122250  0.77741642  1  0.070045  0  0.103433  0.118612  0  1.023288  0
H  H21  1  0.27243667  0.42084951  0.83934290  1  0.070544  0  0.098189  0.09242  0  1.034235  0
H  H22  1  0.57766898  0.48818796  0.98443102  1  0.071702  0  0.097406  0.094967  0  1.028462  0
H  H23  1  0.76742239  0.51755790  0.04422462  1  0.021601  0  0.095177  0.091741  0  1.03178  0
H  H24  1  0.83582200  0.61238119  0.40498002  1  0.069113  0  0.10336  0.10656  0  1.017181  0
H  H25  1  0.84567940  0.57436606  0.42975470  1  0.035542  0  0.096901  0.093668  0  1.012787  0
H  H26  1  0.68837912  0.53650029  0.43978640  1  0.033679  0  0.09623  0.091957  0  1.018125  0
H  H27  1  0.52832394  0.50753131  0.47019090  1  0.010684  0  0.094674  0.087779  0  1.047161  0
H  H28  1  0.44017269  0.45978732  0.47320397  1  0.05806  0  0.100974  0.100256  0  1.007354  0
H  H29  1  0.27451071  0.43156356  0.50387260  1  0.081256  0  0.101663  0.10192  0  1.000847  0
H  H30  1  0.11831849  0.42402401  0.54509210  1  0.051815  0  0.098997  0.098415  0  1.008865  0
H  H31  1  0.40678510  0.38129384  0.58956585  1  0.095549  0  0.10415  0.107287  0  1.022201  0
H  H32  1  0.37910724  0.56699383  0.40621600  1  0.045679  0  0.101857  0.096726  0  1.002028  0
H  H33  1  0.51438383  0.59423818  0.37142964  1  0.068401  0  0.105381  0.121543  0  1.009001  0
H  H34  1  0.24202160  0.54961906  0.44125121  1  0.017891  0  0.095852  0.093995  0  1.012668  0
H  H35  1  0.75911423  0.47213501  0.58684225  1  0.052679  0  0.099073  0.097046  0  1.007694  0
H  H36  1  0.92532826  0.50062862  0.55617293  1  0.062424  0  0.102208  0.103054  0  1.003414  0
H  H37  1  0.50987768  0.43245619  0.58810619  1  0.04919  0  0.096176  0.094457  0  1.017703  0
H  H38  1  0.71966674  0.39619267  0.61879038  1  0.078356  0  0.103445  0.11878  0  1.023397  0
H  H39  1  0.85148329  0.41849418  0.57915976  1  0.059034  0  0.098337  0.092693  0  1.033943  0
H  H40  1  0.08947733  0.49623499  0.51179676  1  0.06243  0  0.09756  0.094816  0  1.029154  0
H  H41  1  0.24981234  0.52669085  0.48244676  1  0.010441  0  0.095321  0.092344  0  1.031633  0
H  H42  1  0.22337247  0.79259280  0.38759305  1  0.066899  0  0.103588  0.106472  0  1.017436  0
H  H43  1  0.27122907  0.85541388  0.42563984  1  0.02396  0  0.096955  0.093482  0  1.012876  0
H  H44  1  0.15185221  0.90329552  0.46351171  1  0.057114  0  0.096109  0.092105  0  1.0178  0
H  H45  1  0.02084635  0.96267289  0.49246155  1  0.030044  0  0.094497  0.087896  0  1.046874  0
H  H46  1  0.98045851  0.01342332  0.54021275  1  0.055759  0  0.100841  0.100372  0  1.007385  0
H  H47  1  0.84309424  0.07231850  0.56843089  1  0.061188  0  0.101615  0.101916  0  1.001235  0
H  H48  1  0.69446703  0.12106220  0.57595836  1  0.052597  0  0.099284  0.099025  0  1.00849  0
H  H49  1  0.02560939  0.20827006  0.61869327  1  0.077476  0  0.103913  0.106893  0  1.022885  0
H  H50  1  0.81192340  0.83924627  0.43304668  1  0.044354  0  0.101865  0.096716  0  1.001758  0
H  H51  1  0.92000900  0.77723227  0.40579442  1  0.078576  0  0.105519  0.121541  0  1.00955  0
H  H52  1  0.69240904  0.89163051  0.45039518  1  0.017028  0  0.096008  0.093963  0  1.012528  0
H  H53  1  0.28711526  0.11470672  0.52784855  1  0.04467  0  0.09929  0.097616  0  1.007001  0
H  H54  1  0.42479676  0.05553624  0.49935275  1  0.081882  0  0.102261  0.10292  0  1.002724  0
H  H55  1  0.07761591  0.15566324  0.56754797  1  0.033757  0  0.096115  0.09389  0  1.017696  0
H  H56  1  0.32364699  0.22259448  0.60379760  1  0.053595  0  0.103187  0.118391  0  1.023321  0
H  H57  1  0.43309591  0.16066744  0.58150143  1  0.046162  0  0.098116  0.092566  0  1.03407  0
H  H58  1  0.59334222  0.01556562  0.50375578  1  0.056345  0  0.097674  0.095373  0  1.029024  0
H  H59  1  0.72316347  0.95575362  0.47331219  1  0.058268  0  0.095229  0.091904  0  1.031237  0
C  C60  1  0.88660886  0.63274468  0.25060775  1  0.590566  0  0.0969  0.37078  0  4.069925  0
C  C61  1  0.58747579  0.60237299  0.21015886  1  -0.008936  0  -0.082093  -0.116959  0  3.95325  0
C  C62  1  0.68544789  0.59173730  0.17890956  1  1.3e-05  0  -0.025209  0.080608  0  4.08355  0
C  C63  1  0.57399571  0.57266079  0.14339561  1  0.021449  0  -0.096179  -0.130862  0  4.023585  0
C  C64  1  0.64303935  0.55819759  0.11020455  1  -0.11322  0  -0.099734  -0.144784  0  4.018474  0
C  C65  1  0.52414907  0.54092605  0.07539523  1  0.019713  0  -0.015853  0.10855  0  4.05501  0
C  C66  1  0.32208073  0.54401479  0.07229692  1  -0.102731  0  -0.094342  -0.125665  0  3.984603  0
C  C67  1  0.21436430  0.52707744  0.03859327  1  0.044362  0  -0.094148  -0.130901  0  4.009249  0
C  C68  1  0.30118474  0.50613140  0.00600318  1  -0.008749  0  -0.011492  0.063853  0  4.008104  0
C  C69  1  0.18406619  0.48779727  0.97044339  1  -0.044172  0  -0.011895  0.062484  0  4.009453  0
C  C70  1  0.01158762  0.50145615  0.96467532  1  -0.015718  0  -0.092266  -0.130125  0  3.997643  0
C  C71  1  0.90034191  0.48409653  0.93125325  1  -0.090305  0  -0.091665  -0.127299  0  3.978908  0
C  C72  1  0.95550376  0.45193380  0.90169289  1  -0.012713  0  -0.017496  0.106561  0  4.064361  0
C  C73  1  0.23945385  0.45575774  0.94092604  1  -0.080108  0  -0.094058  -0.130671  0  4.004886  0
C  C74  1  0.66039012  0.43678067  0.85737738  1  -0.069612  0  -0.093968  -0.12831  0  4.005103  0
C  C75  1  0.66091118  0.40327809  0.78944810  1  -0.028952  0  -0.081274  -0.110777  0  3.943152  0
C  C76  1  0.56690176  0.38146253  0.75419061  1  -0.038291  0  -0.041291  -0.20507  0  3.973154  0
C  C77  1  0.68637784  0.37053004  0.72319680  1  1.516139  0  0.238255  0.678381  0  4.120622  0
C  C78  1  0.50322222  0.50337001  0.00896128  1  -0.05957  0  -0.093935  -0.12852  0  3.9971  0
C  C79  1  0.61120764  0.52038041  0.04276432  1  -0.013705  0  -0.094162  -0.13163  0  3.987704  0
C  C80  1  0.88950678  0.60135155  0.18429568  1  0.036786  0  -0.079017  -0.080271  0  3.965891  0
C  C81  1  0.98613942  0.62095110  0.21886880  1  -0.129924  0  -0.106271  -0.217318  0  3.986354  0
C  C82  1  0.68114046  0.62241929  0.24567561  1  -0.040207  0  -0.042843  -0.206236  0  3.976731  0
C  C83  1  0.12803929  0.43837336  0.90749015  1  0.037175  0  -0.094396  -0.137391  0  4.000006  0
C  C84  1  0.84564347  0.43266403  0.86603047  1  -0.072279  0  -0.099957  -0.147666  0  4.026836  0
C  C85  1  0.56080826  0.41666894  0.82071733  1  0.033973  0  -0.02569  0.081104  0  4.078161  0
C  C86  1  0.36034026  0.37190933  0.74960139  1  0.577181  0  0.095219  0.367927  0  4.073912  0
C  C87  1  0.25887848  0.38745514  0.78116534  1  0.012274  0  -0.11143  -0.220488  0  3.991375  0
C  C88  1  0.35549402  0.40940481  0.81550483  1  -0.091075  0  -0.081878  -0.089679  0  3.979881  0
C  C89  1  0.56118238  0.63166481  0.27632975  1  1.519879  0  0.239192  0.680793  0  4.120076  0
C  C90  1  0.25386274  0.61786792  0.36726380  1  0.623311  0  0.096374  0.369805  0  4.070884  0
C  C91  1  0.98513750  0.60776948  0.39761989  1  -0.058063  0  -0.081804  -0.116761  0  3.953546  0
C  C92  1  0.09377725  0.58717031  0.40826345  1  0.020706  0  -0.025386  0.080484  0  4.083947  0
C  C93  1  0.00127478  0.57074223  0.42734019  1  -0.0375  0  -0.096678  -0.132008  0  4.02417  0
C  C94  1  0.08474321  0.55203707  0.44183181  1  -0.045229  0  -0.099156  -0.144416  0  4.018304  0
C  C95  1  0.98313680  0.53450091  0.45910435  1  0.009985  0  -0.015995  0.110347  0  4.054242  0
C  C96  1  0.77798520  0.52830173  0.45601018  1  -0.075573  0  -0.094123  -0.12612  0  3.984618  0
C  C97  1  0.68720624  0.51152612  0.47294052  1  -0.020262  0  -0.094049  -0.130287  0  4.008759  0
C  C98  1  0.79498437  0.49987820  0.49388162  1  0.041704  0  -0.01182  0.063985  0  4.006707  0
C  C99  1  0.69613464  0.48265910  0.51221796  1  0.036109  0  -0.011637  0.062401  0  4.008801  0
C  C100  1  0.50997781  0.46323388  0.49855591  1  -0.055541  0  -0.092183  -0.129623  0  3.996559  0
C  C101  1  0.41599782  0.44717350  0.51591201  1  -0.063656  0  -0.092372  -0.128204  0  3.978632  0
C  C102  1  0.50327435  0.44978630  0.54808198  1  -0.050495  0  -0.017579  0.105643  0  4.065061  0
C  C103  1  0.78348175  0.48517759  0.54425837  1  -0.09905  0  -0.093711  -0.129886  0  4.004315  0
C  C104  1  0.22334033  0.42059905  0.56321916  1  -0.074411  0  -0.09412  -0.128104  0  4.004693  0
C  C105  1  0.25745630  0.38613723  0.59669419  1  -0.080604  0  -0.081379  -0.111419  0  3.942945  0
C  C106  1  0.18527095  0.37269168  0.61850743  1  0.016152  0  -0.0413  -0.204079  0  3.971719  0
C  C107  1  0.31574270  0.35265562  0.62946414  1  1.490325  0  0.238502  0.677974  0  4.119798  0
C  C108  1  0.99978869  0.50559492  0.49663321  1  -0.061908  0  -0.09386  -0.128024  0  3.996695  0
C  C109  1  0.09076200  0.52240657  0.47963563  1  -0.023818  0  -0.094277  -0.133454  0  3.988441  0
C  C110  1  0.28826323  0.58295908  0.39866833  1  -0.053913  0  -0.078537  -0.080106  0  3.965799  0
C  C111  1  0.36526929  0.59794195  0.37906917  1  -0.008604  0  -0.106259  -0.2168  0  3.985719  0
C  C112  1  0.05872782  0.62324576  0.37758176  1  -0.005128  0  -0.042659  -0.205373  0  3.976228  0
C  C113  1  0.68938242  0.46913138  0.56164000  1  -0.021447  0  -0.094728  -0.136917  0  4.000795  0
C  C114  1  0.41268517  0.43338657  0.56734659  1  -0.050961  0  -0.099604  -0.147036  0  4.026494  0
C  C115  1  0.14392546  0.40402299  0.58331640  1  0.011583  0  -0.025241  0.080649  0  4.078099  0
C  C116  1  0.98828861  0.37767069  0.62807625  1  0.566672  0  0.095027  0.368126  0  4.074274  0
C  C117  1  0.87127663  0.39369640  0.61254483  1  0.022353  0  -0.111055  -0.220943  0  3.992164  0
C  C118  1  0.94591325  0.40608438  0.59059295  1  -0.070335  0  -0.082562  -0.089902  0  3.979508  0
C  C119  1  0.92948808  0.64466072  0.36834277  1  1.502523  0  0.238319  0.67968  0  4.11937  0
C  C120  1  0.63597211  0.74941300  0.38213459  1  0.581016  0  0.095942  0.369164  0  4.072168  0
C  C121  1  0.37729314  0.78985260  0.39222036  1  0.037615  0  -0.082178  -0.116113  0  3.95293  0
C  C122  1  0.50647358  0.82110495  0.41284480  1  0.028401  0  -0.025637  0.079688  0  4.084011  0
C  C123  1  0.43045232  0.85661155  0.42927083  1  -0.0073  0  -0.096574  -0.131062  0  4.023822  0
C  C124  1  0.53269375  0.88979911  0.44798140  1  -0.060541  0  -0.099263  -0.143933  0  4.01803  0
C  C125  1  0.44865814  0.92460874  0.46551552  1  -0.029064  0  -0.016031  0.108162  0  4.055596  0
C  C126  1  0.24968904  0.92771222  0.47170434  1  -0.041819  0  -0.094376  -0.126037  0  3.985244  0
C  C127  1  0.17572872  0.96141930  0.48846440  1  -0.042881  0  -0.093433  -0.130059  0  4.008075  0
C  C128  1  0.29517494  0.99400749  0.50010838  1  -0.003318  0  -0.012098  0.064087  0  4.006215  0
C  C129  1  0.21354489  0.02956138  0.51733328  1  0.02264  0  -0.012383  0.061449  0  4.009518  0
C  C130  1  0.04685239  0.03532497  0.53676476  1  -0.084467  0  -0.091648  -0.129612  0  3.998285  0
C  C131  1  0.96899803  0.06874525  0.55283111  1  -0.074915  0  -0.092716  -0.128625  0  3.979273  0
C  C132  1  0.05370154  0.09830213  0.55021987  1  -0.002969  0  -0.017295  0.10575  0  4.063619  0
C  C133  1  0.29840896  0.05908006  0.51481018  1  -0.098255  0  -0.093391  -0.129089  0  4.002673  0
C  C134  1  0.80290186  0.14262016  0.57938242  1  -0.090014  0  -0.094418  -0.13016  0  4.00564  0
C  C135  1  0.87146876  0.21055092  0.61382513  1  -0.123866  0  -0.080956  -0.110512  0  3.941742  0
C  C136  1  0.81272798  0.24580814  0.62727656  1  0.044186  0  -0.041172  -0.204612  0  3.971823  0
C  C137  1  0.96323365  0.27680348  0.64733812  1  1.488206  0  0.238101  0.678099  0  4.120938  0
C  C138  1  0.49427624  0.99104384  0.49439709  1  -0.067123  0  -0.094144  -0.129642  0  3.997854  0
C  C139  1  0.56840127  0.95723318  0.47759916  1  -0.027832  0  -0.093963  -0.131179  0  3.986371  0
C  C140  1  0.70516084  0.81572632  0.41707706  1  -0.049608  0  -0.078251  -0.079811  0  3.964718  0
C  C141  1  0.76721186  0.78115026  0.40209117  1  -0.001839  0  -0.106378  -0.21652  0  3.985759  0
C  C142  1  0.43545075  0.75433970  0.37674462  1  -0.081943  0  -0.042351  -0.205788  0  3.97724  0
C  C143  1  0.22043177  0.09251238  0.53086225  1  -0.013245  0  -0.094718  -0.137358  0  3.999188  0
C  C144  1  0.97950926  0.13396841  0.56661651  1  0.010746  0  -0.0995  -0.144935  0  4.024157  0
C  C145  1  0.74005252  0.17928495  0.59593953  1  0.026079  0  -0.025862  0.080523  0  4.078847  0
C  C146  1  0.61076635  0.25040366  0.62230964  1  0.543352  0  0.094864  0.368233  0  4.074168  0
C  C147  1  0.47774489  0.21884713  0.60628471  1  0.102316  0  -0.110538  -0.219851  0  3.99089  0
C  C148  1  0.53998731  0.18450521  0.59388908  1  -0.102408  0  -0.082221  -0.090027  0  3.980049  0
C  C149  1  0.28485706  0.72367826  0.35533620  1  1.498881  0  0.237986  0.678352  0  4.12188  0
O  O150  1  0.98862427  0.65299678  0.28324057  1  -1.307293  0  -0.445441  -0.775551  0  2.308416  0
O  O151  1  0.86457540  0.38285526  0.72796197  1  -1.246411  0  -0.35516  -0.6443  0  2.153377  0
O  O152  1  0.60498579  0.34788697  0.69081989  1  -1.302466  0  -0.402569  -0.765774  0  2.417928  0
O  O153  1  0.38246965  0.61943036  0.27093941  1  -1.241597  0  -0.355586  -0.645418  0  2.148595  0
O  O154  1  0.64249470  0.65293194  0.30907080  1  -1.304775  0  -0.403677  -0.769047  0  2.416574  0
O  O155  1  0.25908599  0.34967618  0.71728558  1  -1.313969  0  -0.446891  -0.774141  0  2.310039  0
O  O156  1  0.33557844  0.63024228  0.34700256  1  -1.310104  0  -0.445036  -0.774952  0  2.308494  0
O  O157  1  0.48162649  0.34509688  0.61714412  1  -1.239294  0  -0.355394  -0.644195  0  2.153203  0
O  O158  1  0.25706313  0.34295034  0.65213364  1  -1.291404  0  -0.402991  -0.766076  0  2.417496  0
O  O159  1  0.76303289  0.65151295  0.38058904  1  -1.239876  0  -0.355338  -0.645678  0  2.148697  0
O  O160  1  0.98948528  0.65613555  0.34707122  1  -1.297038  0  -0.40324  -0.768004  0  2.415924  0
O  O161  1  0.90932568  0.36760858  0.65032840  1  -1.310456  0  -0.446583  -0.773789  0  2.309996  0
O  O162  1  0.70534613  0.71677850  0.36974000  1  -1.310333  0  -0.444912  -0.774891  0  2.308837  0
O  O163  1  0.13664262  0.27203679  0.65490759  1  -1.24286  0  -0.355227  -0.644258  0  2.153931  0
O  O164  1  0.91423460  0.30917607  0.65704997  1  -1.290053  0  -0.402521  -0.765636  0  2.417525  0
O  O165  1  0.11154762  0.72906483  0.34848276  1  -1.24262  0  -0.355598  -0.64523  0  2.149105  0
O  O166  1  0.33339535  0.69093769  0.34388157  1  -1.296061  0  -0.402733  -0.76686  0  2.416544  0
O  O167  1  0.54186508  0.28272607  0.63239986  1  -1.304787  0  -0.446594  -0.77445  0  2.310782  0
