# generated using pymatgen
data_CaH17C15N3O11
_symmetry_space_group_name_H-M   'P 1'
_cell_length_a   8.60299921
_cell_length_b   8.79396819
_cell_length_c   13.12050692
_cell_angle_alpha   108.46117478
_cell_angle_beta   95.29043778
_cell_angle_gamma   100.53764923
_symmetry_Int_Tables_number   1
_chemical_formula_structural   CaH17C15N3O11
_chemical_formula_sum   'Ca2 H34 C30 N6 O22'
_cell_volume   913.59209169
_cell_formula_units_Z   2
loop_
 _symmetry_equiv_pos_site_id
 _symmetry_equiv_pos_as_xyz
  1  'x, y, z'
loop_
 _atom_site_type_symbol
 _atom_site_label
 _atom_site_symmetry_multiplicity
 _atom_site_fract_x
 _atom_site_fract_y
 _atom_site_fract_z
 _atom_site_occupancy
 _atom_site_hle17_bader_spin_density
 _atom_site_hle17_ddec_charge
 _atom_site_hle17_ddec_spin_density
 _atom_site_hle17_ddec_sum_bond_order
 _atom_site_hle17_magmom
 _atom_site_hse06_10hf_bader_spin_density
 _atom_site_hse06_10hf_ddec_charge
 _atom_site_hse06_10hf_ddec_spin_density
 _atom_site_hse06_10hf_ddec_sum_bond_order
 _atom_site_hse06_10hf_magmom
 _atom_site_hse06_bader_spin_density
 _atom_site_hse06_ddec_charge
 _atom_site_hse06_ddec_spin_density
 _atom_site_hse06_ddec_sum_bond_order
 _atom_site_hse06_magmom
 _atom_site_pbe_bader_spin_density
 _atom_site_pbe_cm5_charge
 _atom_site_pbe_ddec_charge
 _atom_site_pbe_ddec_spin_density
 _atom_site_pbe_ddec_sum_bond_order
 _atom_site_pbe_magmom
Ca  Ca0  1  0.49839405  0.85413200  0.34471856  1  0  1.566394  0  1.068091  0  0  1.431776  0  1.420321  0  0  1.475129  0  1.373977  0  0  0.872178  1.398533  0  1.45417  0
Ca  Ca1  1  0.50160610  0.14586633  0.65528110  1  0  1.56642  0  1.06807  0  0  1.431802  0  1.420302  0  0  1.475161  0  1.373956  0  0  0.872195  1.398561  0  1.454148  0
H  H2  1  0.19271600  0.86637088  0.12482276  1  0  0.097973  0  1.012712  0  0  0.106686  0  1.079374  0  0  0.11144  0  1.073947  0  0  0.116923  0.103227  0  1.083465  0
H  H3  1  0.80728638  0.13363238  0.87517733  1  0  0.09799  0  1.012696  0  0  0.106728  0  1.079321  0  0  0.11149  0  1.073886  0  0  0.116939  0.103255  0  1.083448  0
H  H4  1  0.81521463  0.61057135  0.85359194  1  0  0.11131  0  0.941148  0  0  0.119933  0  1.004175  0  0  0.124624  0  0.999765  0  0  0.116065  0.116541  0  1.007104  0
H  H5  1  0.18478525  0.38942575  0.14640745  1  0  0.111337  0  0.941157  0  0  0.119949  0  1.004197  0  0  0.124647  0  0.999767  0  0  0.11607  0.116554  0  1.007125  0
H  H6  1  0.20109563  0.98923490  0.83541699  1  0  0.116833  0  0.965845  0  0  0.120909  0  1.037583  0  0  0.126099  0  1.032588  0  0  0.115612  0.117417  0  1.040449  0
H  H7  1  0.79890219  0.01076343  0.16458101  1  0  0.116846  0  0.965859  0  0  0.120938  0  1.037554  0  0  0.126106  0  1.032621  0  0  0.115611  0.117446  0  1.04042  0
H  H8  1  0.46965192  0.37576717  0.22644962  1  0  0.113796  0  0.9191  0  0  0.126776  0  0.978939  0  0  0.128754  0  0.977176  0  0  0.124684  0.125665  0  0.979655  0
H  H9  1  0.53034967  0.62423240  0.77354887  1  0  0.113774  0  0.91912  0  0  0.126737  0  0.978965  0  0  0.128712  0  0.977198  0  0  0.124687  0.125626  0  0.97968  0
H  H10  1  0.61023919  0.28540095  0.15303018  1  0  0.11373  0  0.9256  0  0  0.125313  0  0.990255  0  0  0.126924  0  0.989245  0  0  0.123754  0.124085  0  0.991096  0
H  H11  1  0.38976239  0.71459862  0.84697059  1  0  0.113671  0  0.925619  0  0  0.125225  0  0.990303  0  0  0.126834  0  0.989289  0  0  0.123728  0.123996  0  0.991145  0
H  H12  1  0.97959467  0.61448145  0.30608326  1  0  0.110028  0  0.901495  0  0  0.125986  0  0.956069  0  0  0.128259  0  0.954135  0  0  0.122559  0.124284  0  0.957628  0
H  H13  1  0.02040744  0.38552057  0.69391808  1  0  0.110034  0  0.90152  0  0  0.126  0  0.95607  0  0  0.128275  0  0.954134  0  0  0.122564  0.124298  0  0.957631  0
H  H14  1  0.82954468  0.48512940  0.19450967  1  0  0.09898  0  0.945931  0  0  0.108625  0  1.015225  0  0  0.109981  0  1.015098  0  0  0.115777  0.107489  0  1.015669  0
H  H15  1  0.17045600  0.51487139  0.80549055  1  0  0.098982  0  0.945959  0  0  0.108622  0  1.015259  0  0  0.109974  0  1.015146  0  0  0.115768  0.107488  0  1.015702  0
H  H16  1  0.81044108  0.73867358  0.52214358  1  0  0.118061  0  0.927913  0  0  0.130746  0  0.98718  0  0  0.133919  0  0.984176  0  0  0.124822  0.12839  0  0.98942  0
H  H17  1  0.18955583  0.26132596  0.47785614  1  0  0.118083  0  0.927924  0  0  0.130789  0  0.987162  0  0  0.133962  0  0.984156  0  0  0.124826  0.128435  0  0.9894  0
H  H18  1  0.95204819  0.91052657  0.51984755  1  0  0.096005  0  0.936524  0  0  0.113211  0  0.991854  0  0  0.114741  0  0.990913  0  0  0.118754  0.112103  0  0.992738  0
H  H19  1  0.04794962  0.08947175  0.48015273  1  0  0.096033  0  0.936497  0  0  0.113225  0  0.991837  0  0  0.114749  0  0.990905  0  0  0.118754  0.112118  0  0.992722  0
H  H20  1  0.34657073  0.05306776  0.18778724  1  0  0.289758  0  0.927324  0  0  0.269784  0  0.99606  0  0  0.276971  0  0.991349  0  0  0.314906  0.264875  0  0.999031  0
H  H21  1  0.65342825  0.94693057  0.81221158  1  0  0.289733  0  0.927353  0  0  0.269761  0  0.996094  0  0  0.276949  0  0.991382  0  0  0.314907  0.264855  0  0.99906  0
H  H22  1  0.06855503  0.77801764  0.20329293  1  0  0.292235  0  0.940092  0  0  0.273869  0  1.005426  0  0  0.281557  0  1.000037  0  0  0.30585  0.268502  0  1.0091  0
H  H23  1  0.93144592  0.22198438  0.79670833  1  0  0.292265  0  0.940078  0  0  0.273906  0  1.005414  0  0  0.281593  0  1.000028  0  0  0.305858  0.268538  0  1.009087  0
H  H24  1  0.07201612  0.95851192  0.69934533  1  0  0.299856  0  0.929106  0  0  0.280624  0  0.996286  0  0  0.288549  0  0.990315  0  0  0.30754  0.275073  0  1.000456  0
H  H25  1  0.92798025  0.04148517  0.30065459  1  0  0.299842  0  0.929127  0  0  0.280628  0  0.996272  0  0  0.288558  0  0.990301  0  0  0.307535  0.275059  0  1.000464  0
H  H26  1  0.68035227  0.49405210  0.35737458  1  0  0.401276  0  0.902905  0  0  0.369906  0  0.980326  0  0  0.382599  0  0.963153  0  0  0.299322  0.360924  0  0.988795  0
H  H27  1  0.31964554  0.50594622  0.64262570  1  0  0.401278  0  0.902909  0  0  0.369911  0  0.980324  0  0  0.382604  0  0.963147  0  0  0.299318  0.360929  0  0.988794  0
H  H28  1  0.31437047  0.68551202  0.47572012  1  0  0.430134  0  0.850389  0  0  0.400913  0  0.912965  0  0  0.411333  0  0.897354  0  0  0.311883  0.393337  0  0.924361  0
H  H29  1  0.68562761  0.31448754  0.52427968  1  0  0.430148  0  0.850386  0  0  0.400927  0  0.912949  0  0  0.411347  0  0.897338  0  0  0.311881  0.393352  0  0.924345  0
H  H30  1  0.27963242  0.54280212  0.36400430  1  0  0.43514  0  0.866241  0  0  0.403847  0  0.930058  0  0  0.414378  0  0.914535  0  0  0.295399  0.396019  0  0.941566  0
H  H31  1  0.72036656  0.45719620  0.63599528  1  0  0.435186  0  0.866178  0  0  0.403887  0  0.930003  0  0  0.414419  0  0.914479  0  0  0.295428  0.39606  0  0.94151  0
H  H32  1  0.34837405  0.61355456  0.09966080  1  0  0.442948  0  0.847192  0  0  0.413798  0  0.907535  0  0  0.424275  0  0.891972  0  0  0.299259  0.406374  0  0.918488  0
H  H33  1  0.65162546  0.38644622  0.90033935  1  0  0.44293  0  0.847217  0  0  0.41378  0  0.90756  0  0  0.424258  0  0.891995  0  0  0.299251  0.406356  0  0.918514  0
H  H34  1  0.49814091  0.74802479  0.10643797  1  0  0.449715  0  0.840401  0  0  0.419801  0  0.902211  0  0  0.430147  0  0.886846  0  0  0.304977  0.412529  0  0.912921  0
H  H35  1  0.50185834  0.25197477  0.89356113  1  0  0.449701  0  0.840428  0  0  0.419782  0  0.902247  0  0  0.430128  0  0.886884  0  0  0.304957  0.412509  0  0.912957  0
C  C36  1  0.21003487  0.94024688  0.98458079  1  0  -0.04954  0  3.761289  0  0  -0.022667  0  3.998659  0  0  -0.03184  0  4.021531  0  0  -0.009602  -0.017819  0  3.984243  0
C  C37  1  0.78996735  0.05975024  0.01541721  1  0  -0.049454  0  3.761259  0  0  -0.0226  0  3.998623  0  0  -0.031765  0  4.021494  0  0  -0.00956  -0.017752  0  3.984203  0
C  C38  1  0.13784424  0.84616981  0.04243441  1  0  -0.059645  0  3.673961  0  0  -0.102626  0  3.925836  0  0  -0.097315  0  3.941382  0  0  -0.066375  -0.106454  0  3.917469  0
C  C39  1  0.86215762  0.15383099  0.95756435  1  0  -0.059722  0  3.67406  0  0  -0.102738  0  3.925981  0  0  -0.097416  0  3.941489  0  0  -0.06643  -0.106564  0  3.917603  0
C  C40  1  0.99542474  0.72778472  0.99646676  1  0  -0.049427  0  3.760949  0  0  -0.023294  0  3.999676  0  0  -0.032583  0  4.022273  0  0  -0.009121  -0.018696  0  3.986662  0
C  C41  1  0.00457568  0.27221485  0.00353165  1  0  -0.049364  0  3.761029  0  0  -0.023233  0  3.999749  0  0  -0.032524  0  4.022358  0  0  -0.009116  -0.018641  0  3.986741  0
C  C42  1  0.92800184  0.69989297  0.88963771  1  0  -0.046849  0  3.66992  0  0  -0.090792  0  3.925872  0  0  -0.085189  0  3.941004  0  0  -0.066296  -0.092972  0  3.914989  0
C  C43  1  0.07199832  0.30010537  0.11036119  1  0  -0.046911  0  3.670041  0  0  -0.090838  0  3.925967  0  0  -0.085234  0  3.941103  0  0  -0.066305  -0.093012  0  3.91508  0
C  C44  1  0.00141164  0.79028926  0.82939214  1  0  -0.074013  0  3.778915  0  0  -0.048432  0  4.02378  0  0  -0.058216  0  4.046742  0  0  -0.016748  -0.042678  0  4.00812  0
C  C45  1  0.99859059  0.20970785  0.17060586  1  0  -0.074005  0  3.779029  0  0  -0.048406  0  4.023862  0  0  -0.058186  0  4.046819  0  0  -0.016734  -0.042655  0  4.008201  0
C  C46  1  0.14249385  0.91120861  0.87726429  1  0  -0.071845  0  3.670221  0  0  -0.112617  0  3.923923  0  0  -0.10815  0  3.940536  0  0  -0.070268  -0.113654  0  3.911396  0
C  C47  1  0.85750540  0.08879095  0.12273482  1  0  -0.071951  0  3.670334  0  0  -0.112732  0  3.924065  0  0  -0.10827  0  3.94066  0  0  -0.070313  -0.11377  0  3.91154  0
C  C48  1  0.34959206  0.08274551  0.03695985  1  0  0.543163  0  3.849255  0  0  0.492124  0  4.137497  0  0  0.52074  0  4.138765  0  0  0.24158  0.472913  0  4.136495  0
C  C49  1  0.65040953  0.91725406  0.96303864  1  0  0.543117  0  3.849327  0  0  0.492113  0  4.137531  0  0  0.520726  0  4.138798  0  0  0.241566  0.472903  0  4.136527  0
C  C50  1  0.52018969  0.26545937  0.20474047  1  0  -0.125089  0  3.700683  0  0  -0.186879  0  3.958553  0  0  -0.185831  0  3.964782  0  0  -0.054489  -0.187555  0  3.954075  0
C  C51  1  0.47981163  0.73453897  0.79525926  1  0  -0.125001  0  3.700722  0  0  -0.186722  0  3.958494  0  0  -0.185647  0  3.964691  0  0  -0.05446  -0.187399  0  3.954014  0
C  C52  1  0.60139184  0.25084061  0.30766548  1  0  0.7102  0  3.75474  0  0  0.663791  0  4.05645  0  0  0.696395  0  4.046875  0  0  0.251937  0.641206  0  4.063143  0
C  C53  1  0.39860650  0.74916018  0.69233460  1  0  0.710187  0  3.75483  0  0  0.663787  0  4.056491  0  0  0.696379  0  4.04692  0  0  0.251945  0.641201  0  4.063186  0
C  C54  1  0.90868960  0.63723655  0.06104767  1  0  0.543721  0  3.833001  0  0  0.493015  0  4.122963  0  0  0.522241  0  4.123461  0  0  0.243271  0.473123  0  4.121949  0
C  C55  1  0.09131225  0.36276424  0.93895262  1  0  0.543763  0  3.832918  0  0  0.493059  0  4.122897  0  0  0.522282  0  4.123401  0  0  0.243308  0.473166  0  4.12188  0
C  C56  1  0.89132272  0.61335628  0.23929161  1  0  -0.10398  0  3.685241  0  0  -0.161809  0  3.942535  0  0  -0.160639  0  3.949065  0  0  -0.0561  -0.162544  0  3.938187  0
C  C57  1  0.10867732  0.38664697  0.76070986  1  0  -0.103975  0  3.685315  0  0  -0.161793  0  3.942554  0  0  -0.16063  0  3.949087  0  0  -0.056083  -0.162537  0  3.938213  0
C  C58  1  0.76809726  0.70798526  0.28829753  1  0  0.674748  0  3.838421  0  0  0.624538  0  4.144083  0  0  0.656691  0  4.137585  0  0  0.221035  0.602687  0  4.147431  0
C  C59  1  0.23190342  0.29201552  0.71170422  1  0  0.67473  0  3.838446  0  0  0.624606  0  4.143975  0  0  0.656761  0  4.137474  0  0  0.221079  0.602756  0  4.147323  0
C  C60  1  0.91364843  0.76485371  0.71982673  1  0  0.544109  0  3.839115  0  0  0.491355  0  4.129145  0  0  0.521468  0  4.128265  0  0  0.24087  0.470744  0  4.129403  0
C  C61  1  0.08635108  0.23514708  0.28017266  1  0  0.544203  0  3.838937  0  0  0.491448  0  4.128989  0  0  0.521561  0  4.128109  0  0  0.240935  0.470844  0  4.129236  0
C  C62  1  0.87628153  0.86373666  0.57098607  1  0  -0.100244  0  3.666633  0  0  -0.16254  0  3.927739  0  0  -0.161133  0  3.932145  0  0  -0.056564  -0.163478  0  3.925016  0
C  C63  1  0.12371538  0.13626289  0.42901365  1  0  -0.100358  0  3.666474  0  0  -0.162639  0  3.927609  0  0  -0.161225  0  3.932012  0  0  -0.056601  -0.163584  0  3.924891  0
C  C64  1  0.75197390  0.96841633  0.60026708  1  0  0.695117  0  3.8484  0  0  0.648558  0  4.148142  0  0  0.681509  0  4.140955  0  0  0.222146  0.625913  0  4.15255  0
C  C65  1  0.24802768  0.03158323  0.39973446  1  0  0.695137  0  3.848214  0  0  0.648531  0  4.148024  0  0  0.681473  0  4.140849  0  0  0.222139  0.625893  0  4.152426  0
N  N66  1  0.39940286  0.11994552  0.14440507  1  0  -0.396974  0  3.367828  0  0  -0.340273  0  3.621035  0  0  -0.36233  0  3.632471  0  0  -0.417463  -0.324849  0  3.612317  0
N  N67  1  0.60059613  0.88005281  0.85559376  1  0  -0.396942  0  3.367869  0  0  -0.340273  0  3.621049  0  0  -0.362338  0  3.632484  0  0  -0.417492  -0.324847  0  3.612324  0
N  N68  1  0.97345176  0.68010702  0.16711578  1  0  -0.402743  0  3.344909  0  0  -0.347132  0  3.597159  0  0  -0.369343  0  3.60769  0  0  -0.423216  -0.331712  0  3.58895  0
N  N69  1  0.02654972  0.31989747  0.83288527  1  0  -0.402798  0  3.344895  0  0  -0.347233  0  3.597185  0  0  -0.369446  0  3.607727  0  0  -0.423253  -0.331799  0  3.588964  0
N  N70  1  0.97486657  0.86179122  0.66508444  1  0  -0.396509  0  3.342916  0  0  -0.340439  0  3.593926  0  0  -0.361362  0  3.601932  0  0  -0.419614  -0.326226  0  3.588306  0
N  N71  1  0.02513215  0.13820588  0.33491334  1  0  -0.396474  0  3.342737  0  0  -0.340431  0  3.593779  0  0  -0.361358  0  3.601779  0  0  -0.419608  -0.326203  0  3.588181  0
O  O72  1  0.41224905  0.16726642  0.98484200  1  0  -0.563023  0  1.962101  0  0  -0.513405  0  2.185181  0  0  -0.533948  0  2.177731  0  0  -0.291134  -0.499662  0  2.189739  0
O  O73  1  0.58775164  0.83273438  0.01515594  1  0  -0.563026  0  1.962175  0  0  -0.513419  0  2.185219  0  0  -0.533968  0  2.177786  0  0  -0.291131  -0.499679  0  2.189777  0
O  O74  1  0.68883779  0.38835000  0.37984627  1  0  -0.56053  0  2.057199  0  0  -0.509209  0  2.268652  0  0  -0.53174  0  2.249823  0  0  -0.323138  -0.493658  0  2.279173  0
O  O75  1  0.31116171  0.61165078  0.62015616  1  0  -0.560555  0  2.057254  0  0  -0.509244  0  2.268697  0  0  -0.531772  0  2.249868  0  0  -0.323151  -0.493693  0  2.27922  0
O  O76  1  0.58853165  0.11893255  0.32457124  1  0  -0.61388  0  1.982171  0  0  -0.564023  0  2.222568  0  0  -0.587361  0  2.212474  0  0  -0.313083  -0.54796  0  2.22949  0
O  O77  1  0.41146760  0.88106701  0.67542786  1  0  -0.613852  0  1.982219  0  0  -0.563989  0  2.222583  0  0  -0.587341  0  2.212517  0  0  -0.313065  -0.547928  0  2.229505  0
O  O78  1  0.78357381  0.52809768  0.01986571  1  0  -0.563083  0  1.951469  0  0  -0.513893  0  2.171011  0  0  -0.53482  0  2.163631  0  0  -0.291495  -0.499174  0  2.175428  0
O  O79  1  0.21642660  0.47190188  0.98013499  1  0  -0.563103  0  1.951463  0  0  -0.513902  0  2.171  0  0  -0.534827  0  2.163622  0  0  -0.291508  -0.499185  0  2.175417  0
O  O80  1  0.66523047  0.63838009  0.33440782  1  0  -0.680627  0  2.064816  0  0  -0.618927  0  2.299704  0  0  -0.647376  0  2.29014  0  0  -0.331384  -0.598439  0  2.30403  0
O  O81  1  0.33476877  0.36161947  0.66559205  1  0  -0.680637  0  2.064836  0  0  -0.618975  0  2.299697  0  0  -0.647423  0  2.29013  0  0  -0.331408  -0.598486  0  2.304021  0
O  O82  1  0.76781693  0.84895737  0.28394512  1  0  -0.643221  0  1.969614  0  0  -0.585399  0  2.202611  0  0  -0.610431  0  2.194332  0  0  -0.325741  -0.567593  0  2.207325  0
O  O83  1  0.23218284  0.15104464  0.71605759  1  0  -0.643224  0  1.969613  0  0  -0.585439  0  2.202578  0  0  -0.610475  0  2.194298  0  0  -0.325771  -0.567638  0  2.207295  0
O  O84  1  0.78258617  0.66158431  0.68176591  1  0  -0.584809  0  1.974712  0  0  -0.531174  0  2.196221  0  0  -0.552532  0  2.187099  0  0  -0.300028  -0.51598  0  2.20223  0
O  O85  1  0.21741658  0.33841526  0.31823341  1  0  -0.584825  0  1.97464  0  0  -0.531213  0  2.196172  0  0  -0.552572  0  2.187051  0  0  -0.30005  -0.51602  0  2.202178  0
O  O86  1  0.75507676  0.05531980  0.69895237  1  0  -0.690887  0  2.002739  0  0  -0.629734  0  2.236644  0  0  -0.65616  0  2.227371  0  0  -0.340401  -0.611074  0  2.242867  0
O  O87  1  0.24492249  0.94467976  0.30104673  1  0  -0.690899  0  2.002728  0  0  -0.62972  0  2.236636  0  0  -0.656142  0  2.227368  0  0  -0.340382  -0.611064  0  2.242855  0
O  O88  1  0.64779122  0.96345242  0.52366508  1  0  -0.733789  0  2.024303  0  0  -0.673736  0  2.278485  0  0  -0.703246  0  2.269874  0  0  -0.378041  -0.652162  0  2.284168  0
O  O89  1  0.35220855  0.03654960  0.47633686  1  0  -0.73378  0  2.024252  0  0  -0.673708  0  2.278458  0  0  -0.703215  0  2.269849  0  0  -0.378037  -0.652138  0  2.284138  0
O  O90  1  0.31267583  0.66466046  0.39782331  1  0  -0.881973  0  1.769881  0  0  -0.828691  0  1.939242  0  0  -0.848653  0  1.907691  0  0  -0.620277  -0.814466  0  1.962464  0
O  O91  1  0.68732315  0.33533787  0.60217628  1  0  -0.882023  0  1.769834  0  0  -0.82874  0  1.939198  0  0  -0.848704  0  1.907648  0  0  -0.620292  -0.814517  0  1.96242  0
O  O92  1  0.43078774  0.70487296  0.15253627  1  0  -0.902543  0  1.735837  0  0  -0.848189  0  1.906856  0  0  -0.868513  0  1.875672  0  0  -0.630519  -0.833132  0  1.927746  0
O  O93  1  0.56921294  0.29512784  0.84746318  1  0  -0.902518  0  1.735858  0  0  -0.848159  0  1.906882  0  0  -0.868487  0  1.875696  0  0  -0.630506  -0.8331  0  1.927772  0
