# generated using pymatgen
data_FeMo4H24C36N12O13
_symmetry_space_group_name_H-M   'P 1'
_cell_length_a   8.12201152
_cell_length_b   8.64875960
_cell_length_c   13.66640907
_cell_angle_alpha   80.85628530
_cell_angle_beta   84.54470632
_cell_angle_gamma   82.38220666
_symmetry_Int_Tables_number   1
_chemical_formula_structural   FeMo4H24C36N12O13
_chemical_formula_sum   'Fe1 Mo4 H24 C36 N12 O13'
_cell_volume   936.74746551
_cell_formula_units_Z   1
loop_
 _symmetry_equiv_pos_site_id
 _symmetry_equiv_pos_as_xyz
  1  'x, y, z'
loop_
 _atom_site_type_symbol
 _atom_site_label
 _atom_site_symmetry_multiplicity
 _atom_site_fract_x
 _atom_site_fract_y
 _atom_site_fract_z
 _atom_site_occupancy
 _atom_site_hle17_ddec_charge
 _atom_site_hle17_ddec_spin_density
 _atom_site_hle17_ddec_sum_bond_order
 _atom_site_hle17_magmom
 _atom_site_hse06_10hf_ddec_charge
 _atom_site_hse06_10hf_ddec_spin_density
 _atom_site_hse06_10hf_ddec_sum_bond_order
 _atom_site_hse06_10hf_magmom
 _atom_site_hse06_ddec_charge
 _atom_site_hse06_ddec_spin_density
 _atom_site_hse06_ddec_sum_bond_order
 _atom_site_hse06_magmom
 _atom_site_pbe_cm5_charge
 _atom_site_pbe_ddec_charge
 _atom_site_pbe_ddec_spin_density
 _atom_site_pbe_ddec_sum_bond_order
 _atom_site_pbe_magmom
Fe  Fe0  1  0.49999798  0.00000079  0.99999933  1  0.954388  -0.019282  2.512105  -0.022  0.941763  -0.000645  2.968278  -0.002  0.992478  -0.003682  2.891766  -0.004  0.68345  0.909309  0.003491  3.015729  0.002
Mo  Mo1  1  0.14505172  0.31628039  0.92403688  1  2.186438  -0.002125  4.115902  -0.003  2.172117  0.00055  4.709706  0.0  2.277987  0.002044  4.665661  0.001  1.541616  2.097303  -0.000824  4.740564  -0.002
Mo  Mo2  1  0.85494528  0.68372007  0.07596310  1  2.186409  -0.002118  4.115804  -0.003  2.172071  0.000549  4.709629  0.0  2.277946  0.002044  4.665574  0.001  1.541587  2.097263  -0.000824  4.740487  -0.002
Mo  Mo3  1  0.31036511  0.63009437  0.04612928  1  2.207341  0.006072  4.014336  0.006  2.215127  -0.00228  4.547351  -0.003  2.324882  -0.001548  4.512039  -0.002  1.542311  2.136792  -0.002828  4.575749  -0.003
Mo  Mo4  1  0.68963066  0.36990608  0.95387077  1  2.207283  0.006089  4.014622  0.006  2.215191  -0.002282  4.547423  -0.003  2.324951  -0.001548  4.512108  -0.002  1.542282  2.136839  -0.002829  4.575849  -0.003
H  H5  1  0.58273335  0.39189871  0.20292911  1  0.08156  -2e-06  0.956554  0.0  0.089245  3e-06  1.023057  0.0  0.091947  5e-06  1.019822  0.0  0.114311  0.087187  1e-06  1.025483  0.0
H  H6  1  0.41726523  0.60809941  0.79707103  1  0.081569  6e-06  0.956535  0.0  0.089268  3e-06  1.023031  0.0  0.09197  5e-06  1.019795  0.0  0.114316  0.087207  1e-06  1.025454  0.0
H  H7  1  0.62093291  0.22706529  0.37086185  1  0.120003  2e-06  0.967137  0.0  0.119557  3e-06  1.045879  0.0  0.12423  3e-06  1.042618  0.0  0.109944  0.116319  3e-06  1.048187  0.0
H  H8  1  0.37907060  0.77293294  0.62913875  1  0.119981  0.0  0.967183  0.0  0.119536  3e-06  1.045926  0.0  0.124207  3e-06  1.042668  0.0  0.109934  0.116298  3e-06  1.048234  0.0
H  H9  1  0.99669229  0.92179654  0.22578628  1  0.119477  -3e-06  0.949689  0.0  0.125623  -3e-06  1.014361  0.0  0.130214  2e-06  1.011272  0.0  0.112991  0.122337  -6e-06  1.016709  0.0
H  H10  1  0.00330843  0.07820395  0.77421129  1  0.119535  -6e-06  0.949677  0.0  0.125648  -3e-06  1.014376  0.0  0.130237  2e-06  1.011293  0.0  0.113017  0.122361  -6e-06  1.016723  0.0
H  H11  1  0.93670069  0.09091081  0.06515574  1  0.084864  4e-05  0.962396  0.0  0.092357  5.6e-05  1.026462  0.0  0.095483  5.4e-05  1.023276  0.0  0.115046  0.089773  5.2e-05  1.029141  0.0
H  H12  1  0.06329773  0.90908847  0.93484283  1  0.084873  4.4e-05  0.962449  0.0  0.092363  5.6e-05  1.026516  0.0  0.095488  5.4e-05  1.023331  0.0  0.115032  0.089778  5.2e-05  1.029197  0.0
H  H13  1  0.66498222  0.73706842  0.90645508  1  0.080724  2.9e-05  1.01517  0.0  0.081884  2.5e-05  1.09013  0.0  0.083488  8.8e-05  1.088177  0.0  0.114205  0.080443  -2e-05  1.091885  0.0
H  H14  1  0.33501198  0.26293435  0.09354408  1  0.080666  2.9e-05  1.015273  0.0  0.081869  2.5e-05  1.090198  0.0  0.083474  8.8e-05  1.088243  0.0  0.1142  0.080427  -2e-05  1.091953  0.0
H  H15  1  0.80968322  0.69221749  0.74392975  1  0.128886  -6.6e-05  0.94208  0.0  0.133755  -6.6e-05  1.005948  0.0  0.136937  -4.5e-05  1.004154  0.0  0.116174  0.131404  -7.8e-05  1.00749  0.0
H  H16  1  0.19031239  0.30778413  0.25607018  1  0.128855  -6.3e-05  0.942083  0.0  0.133696  -6.6e-05  1.005983  0.0  0.136876  -4.5e-05  1.004195  0.0  0.11616  0.131346  -7.8e-05  1.007523  0.0
H  H17  1  0.58596800  0.15359553  0.62041429  1  0.125006  6.3e-05  0.95553  0.0  0.125733  5e-05  1.030124  0.0  0.128652  2.6e-05  1.029036  0.0  0.113778  0.12369  6.1e-05  1.030988  0.0
H  H18  1  0.41403113  0.84640732  0.37958459  1  0.124949  6.5e-05  0.955489  0.0  0.125652  5e-05  1.030147  0.0  0.128576  2.6e-05  1.02904  0.0  0.113775  0.123612  6.1e-05  1.031009  0.0
H  H19  1  0.46805428  0.19085592  0.79346629  1  0.088527  3.6e-05  0.955791  0.0  0.090794  6.7e-05  1.029323  0.0  0.092541  7.4e-05  1.027074  0.0  0.120242  0.089296  5e-05  1.031286  0.0
H  H20  1  0.53194537  0.80914338  0.20653220  1  0.088523  4.3e-05  0.955761  0.0  0.090794  6.8e-05  1.029293  0.0  0.092539  7.4e-05  1.027047  0.0  0.120238  0.089295  5e-05  1.03126  0.0
H  H21  1  0.12583750  0.54671023  0.64755959  1  0.119773  0.0  0.955089  0.0  0.127366  -0.0  1.018108  0.0  0.131338  -3e-06  1.015576  0.0  0.107171  0.124371  4e-06  1.020166  0.0
H  H22  1  0.87416268  0.45329387  0.35244202  1  0.119781  3e-06  0.955137  0.0  0.127389  -0.0  1.018155  0.0  0.131361  -4e-06  1.015623  0.0  0.107182  0.124394  4e-06  1.020217  0.0
H  H23  1  0.34666986  0.32305586  0.63852520  1  0.069108  1.3e-05  0.950569  0.0  0.080978  9e-06  1.011353  0.0  0.083182  4e-06  1.00997  0.0  0.106765  0.07929  1.4e-05  1.012447  0.0
H  H24  1  0.65332819  0.67694586  0.36147824  1  0.069067  2e-05  0.95059  0.0  0.080941  9e-06  1.011373  0.0  0.083142  3e-06  1.009987  0.0  0.106749  0.079254  1.4e-05  1.012466  0.0
H  H25  1  0.41631407  0.43126754  0.33171284  1  0.065518  -6e-06  0.969081  0.0  0.076545  -1e-06  1.03247  0.0  0.078156  -3e-06  1.031474  0.0  0.10637  0.075292  -1e-06  1.033286  0.0
H  H26  1  0.58368872  0.56872715  0.66828963  1  0.065461  3e-06  0.969019  0.0  0.07649  -1e-06  1.032423  0.0  0.078101  -3e-06  1.031426  0.0  0.106333  0.075236  -1e-06  1.033239  0.0
H  H27  1  0.19444561  0.65625571  0.32770881  1  0.116389  -6e-06  0.953423  0.0  0.123675  -3e-06  1.017032  0.0  0.127514  -4e-06  1.014397  0.0  0.108127  0.120772  -2e-06  1.019262  0.0
H  H28  1  0.80556161  0.34374259  0.67229230  1  0.116359  -4e-06  0.953381  0.0  0.123651  -3e-06  1.016983  0.0  0.127491  -3e-06  1.014345  0.0  0.108145  0.120748  -2e-06  1.019206  0.0
C  C29  1  0.67267019  0.28619764  0.21131697  1  0.137418  -9.3e-05  3.682567  0.0  0.112938  -3.2e-05  3.939392  0.0  0.120513  -2.2e-05  3.956269  0.0  0.046975  0.107993  -5e-05  3.927957  0.0
C  C30  1  0.32732963  0.71380050  0.78868310  1  0.137464  -0.000121  3.682526  0.0  0.112944  -3.3e-05  3.939394  0.0  0.120519  -2e-05  3.956269  0.0  0.046983  0.107999  -5e-05  3.927956  0.0
C  C31  1  0.69426715  0.19541735  0.30424925  1  -0.121904  3.9e-05  3.648645  0.0  -0.139919  2.9e-05  3.893635  0.0  -0.145806  3e-05  3.913336  0.0  -0.071031  -0.13592  2.1e-05  3.880038  0.0
C  C32  1  0.30573496  0.80458201  0.69574983  1  -0.121905  4.5e-05  3.64865  0.0  -0.139917  2.9e-05  3.893647  0.0  -0.145801  2.9e-05  3.913348  0.0  -0.071024  -0.13592  2.1e-05  3.880051  0.0
C  C33  1  0.81293681  0.06171485  0.31079826  1  0.038298  -9.2e-05  3.722418  0.0  0.0524  -5.9e-05  3.949722  0.0  0.053531  -4.2e-05  3.969893  0.0  0.014555  0.052091  -7.6e-05  3.93572  0.0
C  C34  1  0.18706548  0.93828333  0.68920094  1  0.038304  -7.6e-05  3.722435  0.0  0.052432  -5.9e-05  3.949695  0.0  0.05357  -4.1e-05  3.969868  0.0  0.014537  0.052122  -7.6e-05  3.935692  0.0
C  C35  1  0.90368898  0.02487705  0.22354418  1  -0.129561  4.7e-05  3.69571  0.0  -0.152695  2.8e-05  3.947331  0.0  -0.158616  4.6e-05  3.966136  0.0  -0.076928  -0.14898  1.4e-05  3.935005  0.0
C  C36  1  0.09631543  0.97512354  0.77645538  1  -0.129608  3.6e-05  3.695835  0.0  -0.152717  2.8e-05  3.947435  0.0  -0.158637  4.3e-05  3.966239  0.0  -0.076894  -0.149002  1.4e-05  3.935108  0.0
C  C37  1  0.87150585  0.11989060  0.13428224  1  0.139621  7e-06  3.701542  0.0  0.112281  4.8e-05  3.961753  0.0  0.120164  9e-06  3.977298  0.0  0.041356  0.10667  7.7e-05  3.95213  0.0
C  C38  1  0.12849504  0.88010873  0.86571691  1  0.139604  1.2e-05  3.701683  0.0  0.112269  4.7e-05  3.961861  0.0  0.120151  1.1e-05  3.977405  0.0  0.041368  0.106654  7.7e-05  3.952243  0.0
C  C39  1  0.65524645  0.82891038  0.84263523  1  0.116278  -0.000894  3.687835  -0.001  0.086527  -0.000737  3.945623  -0.001  0.094298  -0.000288  3.964975  0.0  0.04142  0.080082  -0.000951  3.934842  -0.001
C  C40  1  0.34474809  0.17109002  0.15736343  1  0.11628  -0.000879  3.687848  -0.001  0.086474  -0.000738  3.945629  -0.001  0.094246  -0.00029  3.964983  0.0  0.041413  0.080028  -0.000951  3.934858  -0.001
C  C41  1  0.73388589  0.80371562  0.75132856  1  -0.125638  -9.6e-05  3.696916  0.0  -0.147684  -0.000325  3.950639  0.0  -0.154799  -0.000156  3.972087  0.0  -0.07176  -0.143076  -0.000381  3.936952  0.0
C  C42  1  0.26611095  0.19628603  0.24867203  1  -0.125528  -0.000119  3.696905  0.0  -0.147553  -0.000324  3.950589  0.0  -0.154671  -0.000157  3.97204  0.0  -0.071737  -0.142944  -0.000381  3.936899  0.0
C  C43  1  0.71244818  0.92172622  0.66926295  1  0.042829  6.9e-05  3.720726  0.0  0.050475  1.6e-05  3.956332  0.0  0.051854  -1.3e-05  3.976419  0.0  0.015056  0.049371  1.4e-05  3.942959  0.0
C  C44  1  0.28754972  0.07827661  0.33073599  1  0.042653  7.8e-05  3.720895  0.0  0.05037  1.5e-05  3.956421  0.0  0.051749  -9e-06  3.976511  0.0  0.015039  0.049267  1.4e-05  3.943052  0.0
C  C45  1  0.60948784  0.06108526  0.68331321  1  -0.119567  0.000164  3.650478  0.0  -0.140735  0.00023  3.904202  0.0  -0.147502  0.000161  3.925138  0.0  -0.066745  -0.136241  0.000239  3.890375  0.0
C  C46  1  0.39051271  0.93891642  0.31668498  1  -0.119451  0.000153  3.650291  0.0  -0.140626  0.00023  3.904022  0.0  -0.147374  0.00016  3.924924  0.0  -0.066739  -0.136132  0.000239  3.890198  0.0
C  C47  1  0.54220805  0.08132170  0.77868910  1  0.129648  0.001068  3.627081  0.001  0.100878  0.001005  3.884221  0.001  0.10903  0.000541  3.903468  0.0  0.052707  0.094979  0.001103  3.872308  0.001
C  C48  1  0.45779389  0.91867885  0.22131060  1  0.129667  0.001064  3.626995  0.001  0.10087  0.001005  3.884159  0.001  0.109029  0.000538  3.903403  0.0  0.052709  0.094976  0.001103  3.872248  0.001
C  C49  1  0.80087762  0.89566198  0.57266655  1  0.407393  5.9e-05  3.749475  0.0  0.385779  -7e-06  4.015549  0.0  0.404126  5e-06  4.023543  0.0  0.262634  0.373269  -1.6e-05  4.010538  0.0
C  C50  1  0.19912555  0.10433860  0.42733381  1  0.407416  5e-05  3.749426  0.0  0.385714  -8e-06  4.01561  0.0  0.40406  5e-06  4.023607  0.0  0.262558  0.3732  -1.6e-05  4.010605  0.0
C  C51  1  0.84694685  0.95945482  0.40612379  1  0.404891  -1.3e-05  3.741202  0.0  0.384692  -1e-06  4.002553  0.0  0.40209  2e-06  4.012152  0.0  0.260841  0.373036  -1.2e-05  3.99618  0.0
C  C52  1  0.15305650  0.04054457  0.59387595  1  0.404885  -1.9e-05  3.741159  0.0  0.384676  -2e-06  4.002517  0.0  0.402054  3e-06  4.012144  0.0  0.260844  0.37302  -1.2e-05  3.99614  0.0
C  C53  1  0.00605500  0.75224993  0.48875326  1  0.40928  1.1e-05  3.767428  0.0  0.389952  1e-06  4.027011  0.0  0.407505  1e-06  4.037916  0.0  0.264094  0.378308  -2e-06  4.019678  0.0
C  C54  1  0.99394553  0.24775180  0.51124785  1  0.409147  6e-06  3.767505  0.0  0.389841  1e-06  4.02707  0.0  0.407393  1e-06  4.037978  0.0  0.264104  0.378197  -2e-06  4.019735  0.0
C  C55  1  0.14280208  0.62164385  0.48794701  1  0.017391  3e-06  3.750258  0.0  0.029338  1e-06  3.983195  0.0  0.028148  -3e-06  4.00525  0.0  0.006111  0.030453  -0.0  3.967959  0.0
C  C56  1  0.85720074  0.37835910  0.51205384  1  0.017459  6e-06  3.750179  0.0  0.029397  0.0  3.983159  0.0  0.028205  -2e-06  4.005213  0.0  0.006081  0.030509  -0.0  3.967925  0.0
C  C57  1  0.18820639  0.52595922  0.57603923  1  -0.117485  -3e-06  3.672207  0.0  -0.139425  -7e-06  3.920203  0.0  -0.144252  -6e-06  3.940485  0.0  -0.075858  -0.136277  -6e-06  3.906659  0.0
C  C58  1  0.81179520  0.47404371  0.42396169  1  -0.117533  -6e-06  3.672252  0.0  -0.139513  -6e-06  3.920268  0.0  -0.144351  -6e-06  3.940576  0.0  -0.075867  -0.136365  -6e-06  3.906728  0.0
C  C59  1  0.31295246  0.39983178  0.57027449  1  0.116126  -2e-06  3.728821  0.0  0.093042  3e-06  3.988169  0.0  0.097257  7e-06  4.006224  0.0  0.036419  0.09034  7e-06  3.975932  0.0
C  C60  1  0.68704717  0.60016760  0.42972839  1  0.116257  -1.7e-05  3.728902  0.0  0.093188  2e-06  3.988252  0.0  0.097407  6e-06  4.006301  0.0  0.036468  0.090483  7e-06  3.976019  0.0
C  C61  1  0.35070715  0.45922124  0.40118353  1  0.110661  6e-06  3.739066  0.0  0.088101  -1e-06  3.997498  0.0  0.092077  6e-06  4.016343  0.0  0.036261  0.085577  3e-06  3.984654  0.0
C  C62  1  0.64929635  0.54077703  0.59881999  1  0.110927  -3e-06  3.73918  0.0  0.088366  -1e-06  3.997611  0.0  0.092343  4e-06  4.016454  0.0  0.036387  0.08584  3e-06  3.984763  0.0
C  C63  1  0.22674408  0.58698015  0.39834344  1  -0.119631  7e-06  3.678115  0.0  -0.140727  -0.0  3.925964  0.0  -0.145341  2e-06  3.945838  0.0  -0.076664  -0.137679  -3e-06  3.912608  0.0
C  C64  1  0.77326155  0.41302051  0.60165897  1  -0.11972  -0.0  3.678061  0.0  -0.140816  -0.0  3.925938  0.0  -0.145427  3e-06  3.945806  0.0  -0.076715  -0.137767  -3e-06  3.912583  0.0
N  N65  1  0.75865708  0.24940126  0.12707675  1  -0.35632  0.000283  3.220467  0.0  -0.313688  0.00021  3.494079  0.0  -0.33254  0.000193  3.516064  0.0  -0.327134  -0.301209  0.000201  3.479924  0.0
N  N66  1  0.24134415  0.75059572  0.87292264  1  -0.356404  0.000285  3.220485  0.0  -0.313745  0.000211  3.494116  0.0  -0.332597  0.000191  3.516101  0.0  -0.3272  -0.301267  0.000201  3.479962  0.0
N  N67  1  0.56606899  0.96728527  0.85805306  1  -0.237791  0.000782  3.273139  0.001  -0.189091  -0.000135  3.544446  0.0  -0.215186  -0.000117  3.56528  0.0  -0.323549  -0.171988  -0.000161  3.530676  0.0
N  N68  1  0.43392925  0.03271520  0.14194612  1  -0.237762  0.000777  3.273062  0.001  -0.189037  -0.000135  3.544373  0.0  -0.215137  -0.000116  3.56521  0.0  -0.323514  -0.171934  -0.000161  3.530602  0.0
N  N69  1  0.75700902  0.99226959  0.48970816  1  -0.41831  2.8e-05  2.91962  0.0  -0.388241  -6e-06  3.184872  0.0  -0.403562  -7e-06  3.193019  0.0  -0.295007  -0.378411  -3e-06  3.179841  0.0
N  N70  1  0.24299293  0.00773095  0.51029081  1  -0.418266  3.5e-05  2.919618  0.0  -0.388177  -5e-06  3.184909  0.0  -0.403494  -7e-06  3.193063  0.0  -0.294986  -0.378347  -3e-06  3.179879  0.0
N  N71  1  0.97060246  0.84065773  0.40161679  1  -0.443161  2.1e-05  2.990223  0.0  -0.409565  -2.6e-05  3.251904  0.0  -0.426853  -2.8e-05  3.263496  0.0  -0.298935  -0.398777  -2.8e-05  3.244644  0.0
N  N72  1  0.02940071  0.15934285  0.59838357  1  -0.443069  2.9e-05  2.990148  0.0  -0.409479  -2.6e-05  3.251821  0.0  -0.426759  -3.1e-05  3.26342  0.0  -0.298907  -0.398689  -2.8e-05  3.244556  0.0
N  N73  1  0.92505850  0.77590922  0.57624781  1  -0.443645  -1.1e-05  2.999983  0.0  -0.409943  -2.8e-05  3.262676  0.0  -0.427449  -2.4e-05  3.275179  0.0  -0.299422  -0.398746  -3.9e-05  3.254765  0.0
N  N74  1  0.07494204  0.22409250  0.42375257  1  -0.443621  -6e-06  2.999929  0.0  -0.409884  -2.7e-05  3.262617  0.0  -0.427387  -2.4e-05  3.275122  0.0  -0.299395  -0.398687  -3.9e-05  3.254707  0.0
N  N75  1  0.39425129  0.36471137  0.48489093  1  -0.312254  1.2e-05  3.071056  0.0  -0.279529  1.1e-05  3.34715  0.0  -0.289694  1e-06  3.363834  0.0  -0.322501  -0.272297  1.2e-05  3.335499  0.0
N  N76  1  0.60575097  0.63528689  0.51511266  1  -0.312458  9e-06  3.071433  0.0  -0.279734  1.2e-05  3.347528  0.0  -0.289902  3e-06  3.364211  0.0  -0.32258  -0.272501  1.2e-05  3.335877  0.0
O  O77  1  0.26476677  0.13428509  0.95919806  1  -0.773496  0.00133  1.630796  0.002  -0.764317  -0.000362  1.932336  -0.001  -0.802137  -0.001251  1.919465  -0.003  -0.520159  -0.735035  0.000313  1.938784  0.0
O  O78  1  0.73523148  0.86571538  0.04080112  1  -0.773486  0.001337  1.630726  0.002  -0.764316  -0.000361  1.932274  -0.001  -0.802141  -0.00125  1.919415  -0.003  -0.520121  -0.735035  0.000313  1.938723  0.0
O  O79  1  0.92692959  0.27586976  0.93387371  1  -0.913545  0.001212  1.774509  0.001  -0.901615  0.000975  2.076161  0.001  -0.943272  0.001083  2.063745  0.001  -0.596746  -0.871157  0.000766  2.084132  0.001
O  O80  1  0.07306849  0.72413189  0.06612535  1  -0.913508  0.001221  1.774394  0.001  -0.901555  0.000974  2.076054  0.001  -0.943214  0.001082  2.063646  0.001  -0.596748  -0.8711  0.000766  2.084023  0.001
O  O81  1  0.20695754  0.38648306  0.80311110  1  -0.72364  0.003659  1.416412  0.005  -0.71212  0.002176  1.669712  0.003  -0.742323  0.00093  1.657788  0.001  -0.524059  -0.689369  0.00297  1.677497  0.004
O  O82  1  0.79304176  0.61351864  0.19688936  1  -0.723632  0.003638  1.416391  0.005  -0.712102  0.002176  1.669693  0.003  -0.742306  0.00093  1.657768  0.001  -0.524066  -0.689354  0.00297  1.677479  0.004
O  O83  1  0.18480234  0.45187316  0.00430693  1  -0.923392  -0.000872  1.768503  -0.001  -0.91881  -0.0005  2.08441  -0.001  -0.961989  0.000417  2.073967  0.0  -0.583949  -0.886767  -0.001135  2.090639  -0.001
O  O84  1  0.81519343  0.54812730  0.99569385  1  -0.923413  -0.000869  1.768573  -0.001  -0.918837  -0.000499  2.084461  -0.001  -0.962015  0.000417  2.074012  0.0  -0.583942  -0.886796  -0.001135  2.090698  -0.001
O  O85  1  0.49999883  0.50000004  0.00000012  1  -0.917982  0.000673  1.838717  0.0  -0.921571  -0.001543  2.162771  -0.002  -0.96464  -0.001626  2.155326  -0.002  -0.599854  -0.890632  -0.001025  2.167651  -0.001
O  O86  1  0.40188504  0.80862365  0.03079464  1  -0.75158  0.00254  1.853302  0.003  -0.760745  0.002153  2.184626  0.003  -0.795473  0.002439  2.168597  0.003  -0.524559  -0.736823  0.001668  2.194252  0.002
O  O87  1  0.59811197  0.19137680  0.96920461  1  -0.751536  0.002548  1.853262  0.003  -0.760745  0.002153  2.184589  0.003  -0.79547  0.002437  2.168551  0.003  -0.524561  -0.736819  0.001667  2.194216  0.002
O  O88  1  0.32032636  0.56025569  0.17019668  1  -0.650708  -0.004005  1.439237  -0.005  -0.642402  -0.001973  1.681121  -0.003  -0.66427  -0.001954  1.670889  -0.003  -0.494256  -0.62701  -0.0022  1.688926  -0.003
O  O89  1  0.67966925  0.43974592  0.82980252  1  -0.6507  -0.004025  1.43923  -0.005  -0.642448  -0.001973  1.681117  -0.003  -0.664323  -0.001955  1.670888  -0.003  -0.494261  -0.627047  -0.0022  1.688921  -0.003
