# generated using pymatgen
data_CdH8C12(NO2)2
_symmetry_space_group_name_H-M   'P 1'
_cell_length_a   10.12427343
_cell_length_b   10.85877450
_cell_length_c   13.50239552
_cell_angle_alpha   90.00066265
_cell_angle_beta   89.99967939
_cell_angle_gamma   100.68762957
_symmetry_Int_Tables_number   1
_chemical_formula_structural   CdH8C12(NO2)2
_chemical_formula_sum   'Cd4 H32 C48 N8 O16'
_cell_volume   1458.66522070
_cell_formula_units_Z   4
loop_
 _symmetry_equiv_pos_site_id
 _symmetry_equiv_pos_as_xyz
  1  'x, y, z'
loop_
 _atom_site_type_symbol
 _atom_site_label
 _atom_site_symmetry_multiplicity
 _atom_site_fract_x
 _atom_site_fract_y
 _atom_site_fract_z
 _atom_site_occupancy
 _atom_site_pbe_bader_charge
 _atom_site_pbe_bader_spin_density
 _atom_site_pbe_cm5_charge
 _atom_site_pbe_ddec_charge
 _atom_site_pbe_ddec_spin_density
 _atom_site_pbe_ddec_sum_bond_order
 _atom_site_pbe_magmom
Cd  Cd0  1  0.74466713  0.50788872  0.00445469  1  1.325727  0  0.79687  0.949722  0  2.201952  0
Cd  Cd1  1  0.25533136  0.99212473  0.50445579  1  1.325552  0  0.79687  0.949615  0  2.202091  0
Cd  Cd2  1  0.25532905  0.49212016  0.99554571  1  1.325583  0  0.796903  0.949741  0  2.201933  0
Cd  Cd3  1  0.74467527  0.00788683  0.49554313  1  1.32568  0  0.796892  0.949658  0  2.202129  0
H  H4  1  0.50532840  0.40456017  0.30859188  1  0.103476  0  0.112263  0.121922  0  0.99225  0
H  H5  1  0.31078025  0.10850216  0.11686946  1  0.101692  0  0.115758  0.129591  0  0.974184  0
H  H6  1  0.41813703  0.26854344  0.45348946  1  0.100583  0  0.12004  0.093519  0  0.985538  0
H  H7  1  0.24129415  0.97946762  0.27018104  1  0.144078  0  0.117242  0.092183  0  1.020264  0
H  H8  1  0.88390497  0.75735026  0.75552370  1  0.087876  0  0.101945  0.108812  0  1.043488  0
H  H9  1  0.28799819  0.72367188  0.83196754  1  0.146883  0  0.100696  0.115017  0  1.067268  0
H  H10  1  0.97813577  0.88497240  0.60653495  1  0.179618  0  0.11191  0.090159  0  1.059905  0
H  H11  1  0.36713390  0.85707670  0.68271518  1  0.081185  0  0.109562  0.079931  0  1.026073  0
H  H12  1  0.49468090  0.09543562  0.80858035  1  0.103609  0  0.112256  0.121929  0  0.992032  0
H  H13  1  0.68922269  0.39150788  0.61687229  1  0.101766  0  0.115749  0.129604  0  0.974258  0
H  H14  1  0.58185486  0.23145465  0.95348690  1  0.100679  0  0.120044  0.093559  0  0.985376  0
H  H15  1  0.75869660  0.52054222  0.77018773  1  0.144063  0  0.117225  0.092133  0  1.020183  0
H  H16  1  0.11609909  0.74261033  0.25554804  1  0.087995  0  0.101956  0.108915  0  1.043367  0
H  H17  1  0.71200699  0.77631986  0.33197560  1  0.14689  0  0.100662  0.114996  0  1.067314  0
H  H18  1  0.02187399  0.61501418  0.10654153  1  0.179449  0  0.111905  0.090208  0  1.05984  0
H  H19  1  0.63287226  0.64294203  0.18270685  1  0.081293  0  0.109587  0.079912  0  1.02603  0
H  H20  1  0.49466308  0.59545441  0.69141000  1  0.102903  0  0.112287  0.121959  0  0.99208  0
H  H21  1  0.68921849  0.89150480  0.88313835  1  0.101591  0  0.115718  0.129518  0  0.974224  0
H  H22  1  0.58185624  0.73147957  0.54651316  1  0.100805  0  0.120072  0.093553  0  0.985475  0
H  H23  1  0.75870875  0.02054494  0.72982973  1  0.143844  0  0.117235  0.092121  0  1.020254  0
H  H24  1  0.11609405  0.24262100  0.24444930  1  0.088067  0  0.101958  0.10889  0  1.043407  0
H  H25  1  0.71200426  0.27632470  0.16802176  1  0.146786  0  0.10068  0.114985  0  1.067285  0
H  H26  1  0.02186465  0.11500542  0.39344916  1  0.179541  0  0.111923  0.090173  0  1.059726  0
H  H27  1  0.63286324  0.14292278  0.31727485  1  0.081032  0  0.109561  0.079904  0  1.026159  0
H  H28  1  0.50534359  0.90455316  0.19141635  1  0.102932  0  0.112273  0.121899  0  0.992044  0
H  H29  1  0.31079022  0.60849608  0.38313922  1  0.101581  0  0.115714  0.129517  0  0.974219  0
H  H30  1  0.41813872  0.76853735  0.04651795  1  0.100663  0  0.120075  0.09353  0  0.985557  0
H  H31  1  0.24128698  0.47946776  0.22982526  1  0.143982  0  0.117249  0.092157  0  1.020231  0
H  H32  1  0.88390052  0.25735904  0.74446347  1  0.087693  0  0.101956  0.108947  0  1.043369  0
H  H33  1  0.28799704  0.22367482  0.66802851  1  0.146855  0  0.1007  0.115059  0  1.067253  0
H  H34  1  0.97812844  0.38497301  0.89346110  1  0.179572  0  0.111882  0.090185  0  1.059931  0
H  H35  1  0.36712885  0.35706679  0.81728837  1  0.081289  0  0.109602  0.080009  0  1.025999  0
C  C36  1  0.46473360  0.34455313  0.11054685  1  1.624179  0  0.204986  0.569022  0  4.248566  0
C  C37  1  0.41473662  0.26656459  0.20097945  1  0.045421  0  0.009332  0.028106  0  3.922314  0
C  C38  1  0.44487740  0.31166344  0.29712771  1  -0.050417  0  -0.077494  -0.153203  0  3.950809  0
C  C39  1  0.33895091  0.14571246  0.19044095  1  -0.070106  0  -0.076669  -0.149057  0  3.942008  0
C  C40  1  0.39792734  0.23608966  0.37767319  1  0.476051  0  0.051474  0.099127  0  3.952956  0
C  C41  1  0.29969574  0.07435181  0.27473835  1  0.43544  0  0.045967  0.085675  0  3.949121  0
C  C42  1  0.02584508  0.65463596  0.89439671  1  1.626956  0  0.211549  0.590535  0  4.211347  0
C  C43  1  0.07951491  0.73259743  0.80523794  1  -0.066142  0  0.000439  0.016939  0  3.936857  0
C  C44  1  0.99147367  0.77806512  0.74110094  1  -0.006014  0  -0.083918  -0.141028  0  3.946415  0
C  C45  1  0.21718106  0.76068740  0.78496063  1  0.025501  0  -0.085802  -0.149488  0  3.942774  0
C  C46  1  0.04294297  0.84970817  0.65985915  1  0.402087  0  0.040562  0.089679  0  3.928624  0
C  C47  1  0.26101233  0.83275441  0.70208297  1  0.462592  0  0.043609  0.096823  0  3.946801  0
C  C48  1  0.53526485  0.15545876  0.61054307  1  1.624179  0  0.204977  0.5691  0  4.248377  0
C  C49  1  0.58527264  0.23345034  0.70097689  1  0.045497  0  0.009508  0.028292  0  3.922788  0
C  C50  1  0.55512824  0.18834257  0.79711525  1  -0.050026  0  -0.077637  -0.153325  0  3.95086  0
C  C51  1  0.66104734  0.35429212  0.69043839  1  -0.070718  0  -0.076756  -0.149276  0  3.942562  0
C  C52  1  0.60207004  0.26391291  0.87766564  1  0.47583  0  0.051382  0.098956  0  3.952854  0
C  C53  1  0.70029541  0.42565032  0.77473848  1  0.435514  0  0.046108  0.085952  0  3.94913  0
C  C54  1  0.97415489  0.84535674  0.39440057  1  1.626845  0  0.211494  0.590437  0  4.211412  0
C  C55  1  0.92048309  0.76738744  0.30525024  1  -0.066146  0  0.000349  0.016915  0  3.936989  0
C  C56  1  0.00852893  0.72191126  0.24111815  1  -0.006252  0  -0.083942  -0.141165  0  3.946183  0
C  C57  1  0.78283006  0.73930735  0.28496956  1  0.02595  0  -0.085738  -0.149433  0  3.942868  0
C  C58  1  0.95706300  0.65028110  0.15986952  1  0.40226  0  0.040629  0.089674  0  3.928462  0
C  C59  1  0.73900039  0.66724947  0.20208182  1  0.461933  0  0.043679  0.096909  0  3.946733  0
C  C60  1  0.53525925  0.65545861  0.88945282  1  1.62442  0  0.204954  0.569109  0  4.248713  0
C  C61  1  0.58526393  0.73345551  0.79902614  1  0.045459  0  0.00943  0.028158  0  3.922758  0
C  C62  1  0.55512000  0.68835576  0.70288158  1  -0.048918  0  -0.077541  -0.153181  0  3.950928  0
C  C63  1  0.66104901  0.85429543  0.80956686  1  -0.070733  0  -0.076738  -0.149134  0  3.942362  0
C  C64  1  0.60206888  0.76392861  0.62233536  1  0.475761  0  0.051263  0.09883  0  3.952437  0
C  C65  1  0.70030715  0.92566075  0.72527168  1  0.436018  0  0.046048  0.08588  0  3.949208  0
C  C66  1  0.97415186  0.34536257  0.10560073  1  1.627168  0  0.21151  0.590579  0  4.211413  0
C  C67  1  0.92047945  0.26739361  0.19474320  1  -0.066649  0  0.000324  0.016861  0  3.937181  0
C  C68  1  0.00852381  0.22191744  0.25887428  1  -0.005766  0  -0.083915  -0.141135  0  3.946203  0
C  C69  1  0.78282119  0.23930824  0.21502422  1  0.025801  0  -0.085717  -0.149356  0  3.94305  0
C  C70  1  0.95705373  0.15027534  0.34012052  1  0.401521  0  0.040609  0.08972  0  3.928272  0
C  C71  1  0.73898796  0.16724126  0.29790336  1  0.462426  0  0.04353  0.096695  0  3.946962  0
C  C72  1  0.46474588  0.84453959  0.38946326  1  1.62475  0  0.204915  0.568907  0  4.248609  0
C  C73  1  0.41474144  0.76654985  0.29903092  1  0.045515  0  0.009437  0.028053  0  3.922692  0
C  C74  1  0.44488523  0.81165011  0.20288589  1  -0.04987  0  -0.077606  -0.153175  0  3.950832  0
C  C75  1  0.33895630  0.64570539  0.30956645  1  -0.070625  0  -0.076694  -0.149065  0  3.942361  0
C  C76  1  0.39792669  0.73607998  0.12233773  1  0.476429  0  0.051347  0.098922  0  3.952768  0
C  C77  1  0.29969168  0.57434835  0.22526933  1  0.435691  0  0.046091  0.085893  0  3.94917  0
C  C78  1  0.02584381  0.15463613  0.60559391  1  1.627544  0  0.211556  0.590568  0  4.211202  0
C  C79  1  0.07951579  0.23260167  0.69475683  1  -0.066478  0  0.000358  0.016762  0  3.936953  0
C  C80  1  0.99146874  0.27806753  0.75888966  1  -0.005983  0  -0.083872  -0.141081  0  3.946232  0
C  C81  1  0.21717869  0.26068633  0.71503159  1  0.025328  0  -0.085766  -0.149407  0  3.942904  0
C  C82  1  0.04293686  0.34970800  0.84013533  1  0.402305  0  0.040631  0.089739  0  3.928524  0
C  C83  1  0.26100344  0.33274898  0.79791414  1  0.46234  0  0.04357  0.096748  0  3.946788  0
N  N84  1  0.32809565  0.11868957  0.36703396  1  -1.218286  0  -0.323778  -0.236499  0  3.488398  0
N  N85  1  0.17564864  0.87638734  0.64083347  1  -1.21951  0  -0.330098  -0.228374  0  3.508677  0
N  N86  1  0.67189588  0.38131763  0.86703530  1  -1.218352  0  -0.323739  -0.236528  0  3.488475  0
N  N87  1  0.82435529  0.62361484  0.14083454  1  -1.219317  0  -0.330177  -0.228442  0  3.508743  0
N  N88  1  0.67190846  0.88133330  0.63297607  1  -1.21891  0  -0.323674  -0.236384  0  3.487791  0
N  N89  1  0.82434254  0.12359812  0.35915730  1  -1.21905  0  -0.330077  -0.228313  0  3.508486  0
N  N90  1  0.32808944  0.61868200  0.13297695  1  -1.218532  0  -0.323742  -0.236411  0  3.488122  0
N  N91  1  0.17564225  0.37638651  0.85916809  1  -1.219289  0  -0.33013  -0.228501  0  3.508716  0
O  O92  1  0.58360595  0.40710339  0.11806554  1  -1.170144  0  -0.319132  -0.564144  0  2.3029  0
O  O93  1  0.38699394  0.33814551  0.03673415  1  -1.185339  0  -0.334975  -0.578147  0  2.256595  0
O  O94  1  0.89892623  0.61870401  0.89598332  1  -1.185552  0  -0.327234  -0.570406  0  2.308481  0
O  O95  1  0.10923305  0.63380949  0.95935973  1  -1.197609  0  -0.335115  -0.586344  0  2.300262  0
O  O96  1  0.41638836  0.09292182  0.61805505  1  -1.170039  0  -0.319191  -0.564217  0  2.303001  0
O  O97  1  0.61300325  0.16185782  0.53672715  1  -1.185474  0  -0.334905  -0.578105  0  2.256273  0
O  O98  1  0.10107160  0.88129720  0.39599191  1  -1.185496  0  -0.327147  -0.570274  0  2.308688  0
O  O99  1  0.89076211  0.86619079  0.45936561  1  -1.197646  0  -0.335157  -0.586418  0  2.300097  0
O  O100  1  0.41638514  0.59291402  0.88194005  1  -1.17016  0  -0.319102  -0.564193  0  2.303211  0
O  O101  1  0.61299929  0.66186341  0.96326773  1  -1.185541  0  -0.334974  -0.578201  0  2.256502  0
O  O102  1  0.10106915  0.38129642  0.10401041  1  -1.185478  0  -0.32718  -0.570345  0  2.308555  0
O  O103  1  0.89076768  0.36620215  0.04063475  1  -1.197698  0  -0.335108  -0.586469  0  2.300233  0
O  O104  1  0.58363023  0.90707173  0.38195128  1  -1.170272  0  -0.31907  -0.564015  0  2.303007  0
O  O105  1  0.38700416  0.83814809  0.46327103  1  -1.185664  0  -0.334964  -0.578106  0  2.256699  0
O  O106  1  0.89892279  0.11870325  0.60401146  1  -1.185609  0  -0.327174  -0.570332  0  2.308447  0
O  O107  1  0.10923307  0.13381341  0.54062887  1  -1.197712  0  -0.335189  -0.586421  0  2.300356  0
