# generated using pymatgen
data_DyH12C11O8
_symmetry_space_group_name_H-M   'P 1'
_cell_length_a   5.79620294
_cell_length_b   13.27169185
_cell_length_c   15.53010000
_cell_angle_alpha   94.20945502
_cell_angle_beta   90.00000000
_cell_angle_gamma   90.00000000
_symmetry_Int_Tables_number   1
_chemical_formula_structural   DyH12C11O8
_chemical_formula_sum   'Dy4 H48 C44 O32'
_cell_volume   1191.43671526
_cell_formula_units_Z   4
loop_
 _symmetry_equiv_pos_site_id
 _symmetry_equiv_pos_as_xyz
  1  'x, y, z'
loop_
 _atom_site_type_symbol
 _atom_site_label
 _atom_site_symmetry_multiplicity
 _atom_site_fract_x
 _atom_site_fract_y
 _atom_site_fract_z
 _atom_site_occupancy
 _atom_site_hle17_bader_spin_density
 _atom_site_hle17_ddec_charge
 _atom_site_hle17_ddec_spin_density
 _atom_site_hle17_ddec_sum_bond_order
 _atom_site_hle17_magmom
 _atom_site_hse06_10hf_bader_spin_density
 _atom_site_hse06_10hf_ddec_charge
 _atom_site_hse06_10hf_ddec_spin_density
 _atom_site_hse06_10hf_ddec_sum_bond_order
 _atom_site_hse06_10hf_magmom
 _atom_site_hse06_bader_spin_density
 _atom_site_hse06_ddec_charge
 _atom_site_hse06_ddec_spin_density
 _atom_site_hse06_ddec_sum_bond_order
 _atom_site_hse06_magmom
 _atom_site_pbe_bader_charge
 _atom_site_pbe_bader_spin_density
 _atom_site_pbe_cm5_charge
 _atom_site_pbe_ddec_charge
 _atom_site_pbe_ddec_spin_density
 _atom_site_pbe_ddec_sum_bond_order
 _atom_site_pbe_magmom
Dy  Dy0  1  0.43996217  0.63387880  0.58287850  1  0  2.237111  0  1.60937  0  0  2.088895  0  2.076836  0  0  2.217728  0  1.886758  0  2.163225  0  1.512022  2.051611  0  2.109122  0
Dy  Dy1  1  0.93996364  0.86612084  0.91712138  1  0  2.237149  0  1.609337  0  0  2.088934  0  2.076815  0  0  2.217774  0  1.886721  0  2.163247  0  1.512033  2.051686  0  2.109037  0
Dy  Dy2  1  0.56003733  0.36612574  0.41711850  1  0  2.237127  0  1.60945  0  0  2.088831  0  2.07704  0  0  2.217729  0  1.886845  0  2.163155  0  1.512062  2.051604  0  2.109223  0
Dy  Dy3  1  0.06004103  0.13387540  0.08288154  1  0  2.237094  0  1.609494  0  0  2.088815  0  2.077055  0  0  2.217696  0  1.886885  0  2.163113  0  1.512046  2.05159  0  2.109239  0
H  H4  1  0.69016217  0.71414541  0.74280755  1  0  0.449821  0  0.839219  0  0  0.422222  0  0.895403  0  0  0.432776  0  0.880339  0  0.651275  0  0.310505  0.415041  0  0.905843  0
H  H5  1  0.19016070  0.78585272  0.75719224  1  0  0.449809  0  0.839233  0  0  0.422202  0  0.895429  0  0  0.432757  0  0.880366  0  0.651265  0  0.31048  0.415022  0  0.905868  0
H  H6  1  0.30984077  0.28585309  0.25719423  1  0  0.449792  0  0.839284  0  0  0.422181  0  0.895483  0  0  0.432734  0  0.880421  0  0.651282  0  0.310487  0.415  0  0.905922  0
H  H7  1  0.80984742  0.21414729  0.24280834  1  0  0.449779  0  0.839283  0  0  0.422174  0  0.895473  0  0  0.432729  0  0.88041  0  0.651251  0  0.310498  0.414993  0  0.905915  0
H  H8  1  0.87479684  0.71785653  0.66668346  1  0  0.450475  0  0.84256  0  0  0.419214  0  0.905433  0  0  0.431115  0  0.888303  0  0.66063  0  0.305076  0.41112  0  0.917195  0
H  H9  1  0.37479882  0.78214084  0.83331693  1  0  0.450446  0  0.842603  0  0  0.419185  0  0.905477  0  0  0.431085  0  0.888348  0  0.661949  0  0.305044  0.411089  0  0.917241  0
H  H10  1  0.12520093  0.28214650  0.33331731  1  0  0.45045  0  0.842584  0  0  0.419178  0  0.905467  0  0  0.431075  0  0.888343  0  0.660602  0  0.305042  0.41108  0  0.917233  0
H  H11  1  0.62521103  0.21785388  0.16668461  1  0  0.45054  0  0.842467  0  0  0.419252  0  0.905377  0  0  0.431151  0  0.88825  0  0.660646  0  0.305085  0.411158  0  0.917138  0
H  H12  1  0.89961136  0.68902961  0.49506366  1  0  0.451123  0  0.82678  0  0  0.42798  0  0.880208  0  0  0.437742  0  0.866304  0  0.639025  0  0.31979  0.421408  0  0.889731  0
H  H13  1  0.39961161  0.81097230  0.00493765  1  0  0.451203  0  0.826811  0  0  0.428066  0  0.880114  0  0  0.437828  0  0.866211  0  0.639028  0  0.319801  0.421495  0  0.889638  0
H  H14  1  0.10039158  0.31097418  0.50493651  1  0  0.451107  0  0.826711  0  0  0.427962  0  0.880213  0  0  0.437723  0  0.86631  0  0.639043  0  0.31976  0.421391  0  0.889735  0
H  H15  1  0.60039133  0.18902545  0.99506343  1  0  0.451086  0  0.826753  0  0  0.427943  0  0.880244  0  0  0.437705  0  0.86634  0  0.639036  0  0.319747  0.421372  0  0.889766  0
H  H16  1  0.79600387  0.58800051  0.45911538  1  0  0.438372  0  0.868769  0  0  0.405685  0  0.935816  0  0  0.41636  0  0.920741  0  0.647865  0  0.304878  0.398141  0  0.946705  0
H  H17  1  0.29600240  0.91200140  0.04088400  1  0  0.438324  0  0.868851  0  0  0.405649  0  0.935877  0  0  0.416322  0  0.920806  0  0.647849  0  0.304866  0.398105  0  0.946765  0
H  H18  1  0.20399907  0.41200177  0.54088277  1  0  0.438347  0  0.868811  0  0  0.405686  0  0.935817  0  0  0.416359  0  0.920746  0  0.647853  0  0.304877  0.398142  0  0.946705  0
H  H19  1  0.70400054  0.08799786  0.95911846  1  0  0.438346  0  0.868806  0  0  0.405681  0  0.93582  0  0  0.416355  0  0.920748  0  0.647799  0  0.304881  0.398137  0  0.946708  0
H  H20  1  0.08558189  0.96382488  0.64637304  1  0  0.11853  0  0.933571  0  0  0.133174  0  0.995004  0  0  0.134475  0  0.995947  0  0.093539  0  0.107307  0.132324  0  0.994204  0
H  H21  1  0.58557991  0.53617476  0.85362426  1  0  0.11854  0  0.933631  0  0  0.133176  0  0.995035  0  0  0.134475  0  0.995977  0  0.093491  0  0.107314  0.132308  0  0.994253  0
H  H22  1  0.91441760  0.03617815  0.35362644  1  0  0.118461  0  0.933635  0  0  0.13308  0  0.995065  0  0  0.134365  0  0.996017  0  0.093578  0  0.107265  0.132265  0  0.994228  0
H  H23  1  0.41442476  0.46382072  0.14637346  1  0  0.118492  0  0.933706  0  0  0.133127  0  0.995109  0  0  0.134416  0  0.99605  0  0.093591  0  0.107286  0.132285  0  0.994301  0
H  H24  1  0.88359570  0.88075151  0.59613329  1  0  0.116834  0  0.919007  0  0  0.133475  0  0.974071  0  0  0.136222  0  0.972042  0  0.082937  0  0.107962  0.131651  0  0.97523  0
H  H25  1  0.38359078  0.61924737  0.90386332  1  0  0.116832  0  0.919039  0  0  0.133463  0  0.974085  0  0  0.136199  0  0.972071  0  0.08307  0  0.107959  0.131638  0  0.975245  0
H  H26  1  0.11640552  0.11925152  0.40386490  1  0  0.116906  0  0.918965  0  0  0.133515  0  0.974031  0  0  0.136265  0  0.97198  0  0.082858  0  0.107979  0.131689  0  0.9752  0
H  H27  1  0.61640871  0.38074811  0.09613375  1  0  0.116894  0  0.918965  0  0  0.133517  0  0.974017  0  0  0.136254  0  0.971981  0  0.082829  0  0.10797  0.131691  0  0.97518  0
H  H28  1  0.51292545  0.30723964  0.71088379  1  0  0.094275  0  0.979472  0  0  0.105581  0  1.039427  0  0  0.107594  0  1.040596  0  0.129243  0  0.100881  0.104015  0  1.038917  0
H  H29  1  0.01292743  0.19276075  0.78911877  1  0  0.094337  0  0.979338  0  0  0.105586  0  1.039356  0  0  0.107597  0  1.040531  0  0.129229  0  0.100897  0.104019  0  1.038847  0
H  H30  1  0.48707232  0.69276037  0.28911164  1  0  0.094218  0  0.979441  0  0  0.105538  0  1.039392  0  0  0.107542  0  1.040584  0  0.129386  0  0.100883  0.103973  0  1.038882  0
H  H31  1  0.98706861  0.80723473  0.21088603  1  0  0.094236  0  0.979502  0  0  0.105525  0  1.039476  0  0  0.107529  0  1.040668  0  0.129364  0  0.100881  0.103963  0  1.038963  0
H  H32  1  0.08750384  0.90243196  0.45146717  1  0  0.060045  0  0.947977  0  0  0.080738  0  1.008791  0  0  0.080927  0  1.009807  0  0.033142  0  0.089086  0.080586  0  1.008051  0
H  H33  1  0.58750531  0.59756693  0.04853009  1  0  0.060041  0  0.947973  0  0  0.080746  0  1.008748  0  0  0.080939  0  1.009757  0  0.033236  0  0.08908  0.080594  0  1.008009  0
H  H34  1  0.91249220  0.09757410  0.54853057  1  0  0.060093  0  0.947987  0  0  0.080773  0  1.008764  0  0  0.080971  0  1.009782  0  0.033252  0  0.089075  0.080622  0  1.008022  0
H  H35  1  0.41248728  0.40242402  0.95146863  1  0  0.060094  0  0.947935  0  0  0.080783  0  1.008737  0  0  0.080994  0  1.009731  0  0.03326  0  0.089044  0.080632  0  1.007996  0
H  H36  1  0.26476644  0.99482998  0.50476188  1  0  0.066766  0  0.944447  0  0  0.085796  0  1.007646  0  0  0.086414  0  1.008103  0  0.040509  0  0.091529  0.085278  0  1.007424  0
H  H37  1  0.76475928  0.50516815  0.99523404  1  0  0.066793  0  0.944471  0  0  0.085823  0  1.007647  0  0  0.086444  0  1.008109  0  0.040306  0  0.091533  0.085305  0  1.007424  0
H  H38  1  0.73523133  0.00517532  0.49523774  1  0  0.066769  0  0.944496  0  0  0.085761  0  1.007716  0  0  0.086383  0  1.008181  0  0.0405  0  0.091503  0.085244  0  1.00749  0
H  H39  1  0.23522641  0.49482355  0.00476344  1  0  0.066752  0  0.944524  0  0  0.085798  0  1.007706  0  0  0.086415  0  1.008172  0  0.040484  0  0.091507  0.08528  0  1.007482  0
H  H40  1  0.20520158  0.47484076  0.84212400  1  0  0.09778  0  0.978273  0  0  0.106103  0  1.046717  0  0  0.109204  0  1.044719  0  0.100398  0  0.106022  0.103869  0  1.048172  0
H  H41  1  0.70520133  0.02515660  0.65787902  1  0  0.097784  0  0.978266  0  0  0.106107  0  1.046709  0  0  0.109209  0  1.044708  0  0.100496  0  0.106024  0.103871  0  1.048168  0
H  H42  1  0.79478929  0.52516076  0.15787346  1  0  0.097787  0  0.978161  0  0  0.106138  0  1.046601  0  0  0.109239  0  1.044603  0  0.10034  0  0.106035  0.10391  0  1.048047  0
H  H43  1  0.29480162  0.97484341  0.34212413  1  0  0.097782  0  0.978262  0  0  0.10611  0  1.046689  0  0  0.10921  0  1.044691  0  0.100405  0  0.10603  0.103874  0  1.048149  0
H  H44  1  0.60870712  0.28379203  0.86291551  1  0  0.092842  0  0.959445  0  0  0.10116  0  1.02432  0  0  0.104586  0  1.021841  0  0.066896  0  0.102524  0.098782  0  1.025902  0
H  H45  1  0.10870565  0.21620534  0.63708686  1  0  0.092813  0  0.959493  0  0  0.101144  0  1.024368  0  0  0.10457  0  1.021887  0  0.066906  0  0.102513  0.098767  0  1.025949  0
H  H46  1  0.39129065  0.71620270  0.13708023  1  0  0.092814  0  0.959533  0  0  0.101157  0  1.024398  0  0  0.104583  0  1.021918  0  0.067048  0  0.102503  0.098782  0  1.025979  0
H  H47  1  0.89128694  0.78379165  0.36291739  1  0  0.092797  0  0.95944  0  0  0.101126  0  1.024329  0  0  0.104554  0  1.021844  0  0.066952  0  0.102493  0.098748  0  1.025904  0
H  H48  1  0.96437617  0.36357964  0.92950990  1  0  0.110981  0  0.961009  0  0  0.118584  0  1.02488  0  0  0.122656  0  1.022272  0  0.115006  0  0.107927  0.115748  0  1.026713  0
H  H49  1  0.46437642  0.13641773  0.57048991  1  0  0.1109  0  0.961027  0  0  0.118503  0  1.024899  0  0  0.122574  0  1.022295  0  0.114718  0  0.107896  0.115667  0  1.026729  0
H  H50  1  0.03562332  0.63641735  0.07048405  1  0  0.110923  0  0.961114  0  0  0.118538  0  1.024996  0  0  0.122611  0  1.02239  0  0.114592  0  0.107913  0.115703  0  1.026825  0
H  H51  1  0.53562479  0.86358153  0.42951320  1  0  0.110927  0  0.961143  0  0  0.118539  0  1.025006  0  0  0.122612  0  1.0224  0  0.114935  0  0.10792  0.115704  0  1.026834  0
C  C52  1  0.74046579  0.40448131  0.59646668  1  0  0.735463  0  3.831413  0  0  0.683805  0  4.125903  0  0  0.720613  0  4.118641  0  1.585991  0  0.234864  0.658849  0  4.135107  0
C  C53  1  0.24046950  0.09552059  0.90353469  1  0  0.735554  0  3.831139  0  0  0.683904  0  4.1257  0  0  0.720709  0  4.118433  0  1.585603  0  0.234918  0.658947  0  4.134903  0
C  C54  1  0.25952507  0.59552551  0.40353111  1  0  0.735301  0  3.831386  0  0  0.683745  0  4.125798  0  0  0.720553  0  4.11853  0  1.586112  0  0.234868  0.658765  0  4.135039  0
C  C55  1  0.75953517  0.90447867  0.09646841  1  0  0.73517  0  3.831579  0  0  0.683627  0  4.125925  0  0  0.720433  0  4.118662  0  1.586092  0  0.234813  0.658648  0  4.135166  0
C  C56  1  0.22402252  0.82340969  0.60071722  1  0  0.715967  0  3.808942  0  0  0.668279  0  4.107301  0  0  0.700526  0  4.10645  0  1.501734  0  0.20762  0.645658  0  4.112505  0
C  C57  1  0.72401537  0.67658995  0.89928073  1  0  0.715914  0  3.808971  0  0  0.668165  0  4.107398  0  0  0.700412  0  4.106546  0  1.501479  0  0.207525  0.645541  0  4.112605  0
C  C58  1  0.77598215  0.17659485  0.39927785  1  0  0.715841  0  3.809181  0  0  0.66814  0  4.107506  0  0  0.700376  0  4.106664  0  1.501555  0  0.207519  0.64551  0  4.112732  0
C  C59  1  0.27598758  0.32340629  0.10072154  1  0  0.715964  0  3.808707  0  0  0.668158  0  4.107184  0  0  0.700394  0  4.106332  0  1.501752  0  0.207497  0.645533  0  4.112402  0
C  C60  1  0.80777365  0.40121821  0.68953892  1  0  -0.045607  0  3.68067  0  0  -0.032213  0  3.913736  0  0  -0.03405  0  3.930666  0  -0.052971  0  0.002169  -0.030548  0  3.901122  0
C  C61  1  0.30777735  0.09878293  0.81046177  1  0  -0.045636  0  3.680622  0  0  -0.032343  0  3.913838  0  0  -0.034178  0  3.930764  0  -0.052926  0  0.002133  -0.030678  0  3.901223  0
C  C62  1  0.19222239  0.59878709  0.31045491  1  0  -0.045442  0  3.680518  0  0  -0.032197  0  3.913743  0  0  -0.034029  0  3.930667  0  -0.052898  0  0.002218  -0.030527  0  3.901137  0
C  C63  1  0.69223249  0.90121708  0.18954203  1  0  -0.045409  0  3.680472  0  0  -0.032092  0  3.913571  0  0  -0.033923  0  3.930497  0  -0.052852  0  0.002212  -0.030424  0  3.900966  0
C  C64  1  0.06058276  0.90933063  0.58998015  1  0  -0.272266  0  3.665459  0  0  -0.306684  0  3.910704  0  0  -0.311772  0  3.917103  0  -0.093589  0  -0.161682  -0.302759  0  3.905279  0
C  C65  1  0.56057906  0.59066675  0.91001830  1  0  -0.272267  0  3.665605  0  0  -0.306613  0  3.910757  0  0  -0.311696  0  3.917158  0  -0.093425  0  -0.161644  -0.302677  0  3.905335  0
C  C66  1  0.93941155  0.09067467  0.41001883  1  0  -0.272228  0  3.665564  0  0  -0.306572  0  3.910707  0  0  -0.311619  0  3.917065  0  -0.093242  0  -0.161643  -0.302673  0  3.905273  0
C  C67  1  0.43941526  0.40932571  0.08998181  1  0  -0.272352  0  3.665608  0  0  -0.306627  0  3.910706  0  0  -0.31167  0  3.917057  0  -0.093286  0  -0.161625  -0.302707  0  3.905277  0
C  C68  1  0.00136641  0.45039964  0.72781630  1  0  -0.079476  0  3.728853  0  0  -0.065304  0  3.960916  0  0  -0.071942  0  3.981107  0  0.002519  0  -0.011991  -0.06048  0  3.94643  0
C  C69  1  0.50136788  0.04959999  0.77218622  1  0  -0.079571  0  3.728831  0  0  -0.065394  0  3.960959  0  0  -0.072032  0  3.981148  0  0.002499  0  -0.012038  -0.060569  0  3.946473  0
C  C70  1  0.99862100  0.54960188  0.27217987  1  0  -0.07967  0  3.729206  0  0  -0.065473  0  3.961314  0  0  -0.072113  0  3.981504  0  0.00246  0  -0.012039  -0.060648  0  3.946829  0
C  C71  1  0.49863678  0.95040229  0.22781901  1  0  -0.079623  0  3.72893  0  0  -0.065458  0  3.961024  0  0  -0.072101  0  3.981214  0  0.002263  0  -0.011988  -0.060632  0  3.946541  0
C  C72  1  0.66546152  0.34355983  0.73977623  1  0  -0.085862  0  3.716433  0  0  -0.108319  0  3.963246  0  0  -0.111409  0  3.984376  0  -0.07553  0  -0.083019  -0.106191  0  3.948811  0
C  C73  1  0.16546177  0.15643905  0.76022560  1  0  -0.085904  0  3.716334  0  0  -0.108272  0  3.963186  0  0  -0.111361  0  3.98431  0  -0.075648  0  -0.083022  -0.106144  0  3.948752  0
C  C74  1  0.33453107  0.65644170  0.26022059  1  0  -0.085787  0  3.71664  0  0  -0.108224  0  3.963509  0  0  -0.111314  0  3.984633  0  -0.075722  0  -0.083048  -0.106098  0  3.949075  0
C  C75  1  0.83453772  0.84356021  0.23977879  1  0  -0.085898  0  3.71655  0  0  -0.10833  0  3.963419  0  0  -0.111422  0  3.984542  0  -0.075767  0  -0.083074  -0.106207  0  3.948987  0
C  C76  1  0.09249676  0.96026185  0.50598367  1  0  -0.082504  0  3.688132  0  0  -0.126028  0  3.947848  0  0  -0.12629  0  3.962274  0  -0.020302  0  -0.16624  -0.125442  0  3.937368  0
C  C77  1  0.59249651  0.53973780  0.99401364  1  0  -0.082528  0  3.688024  0  0  -0.12602  0  3.947712  0  0  -0.126294  0  3.962143  0  -0.020267  0  -0.166231  -0.12543  0  3.937225  0
C  C78  1  0.90750101  0.03974346  0.49401596  1  0  -0.082626  0  3.688199  0  0  -0.126068  0  3.947831  0  0  -0.126378  0  3.962277  0  0.010527  0  -0.166183  -0.125481  0  3.93736  0
C  C79  1  0.40749608  0.46025617  0.00598463  1  0  -0.082579  0  3.688082  0  0  -0.126149  0  3.947848  0  0  -0.126449  0  3.962261  0  0.010567  0  -0.16619  -0.12556  0  3.937368  0
C  C80  1  0.15470818  0.51546591  0.67879254  1  0  0.647662  0  3.899686  0  0  0.600571  0  4.189352  0  0  0.633843  0  4.188242  0  1.545483  0  0.200377  0.577345  0  4.194594  0
C  C81  1  0.65471138  0.98453373  0.82120798  1  0  0.647676  0  3.89984  0  0  0.600601  0  4.189495  0  0  0.633872  0  4.188384  0  1.545546  0  0.200366  0.577374  0  4.194742  0
C  C82  1  0.84529131  0.48453637  0.32120496  1  0  0.647479  0  3.900153  0  0  0.600386  0  4.189803  0  0  0.633656  0  4.188702  0  1.545296  0  0.20028  0.577159  0  4.195054  0
C  C83  1  0.34530364  0.01546553  0.17879384  1  0  0.647577  0  3.899896  0  0  0.600492  0  4.18953  0  0  0.633761  0  4.18843  0  1.545437  0  0.200361  0.577264  0  4.194777  0
C  C84  1  0.05333664  0.43694078  0.81446150  1  0  -0.054565  0  3.706347  0  0  -0.080269  0  3.956995  0  0  -0.079464  0  3.976392  0  -0.02639  0  -0.075245  -0.080585  0  3.943723  0
C  C85  1  0.55333639  0.06305885  0.68554038  1  0  -0.054471  0  3.706311  0  0  -0.080169  0  3.956948  0  0  -0.079364  0  3.976345  0  -0.026413  0  -0.075217  -0.080487  0  3.943676  0
C  C86  1  0.94665595  0.56306301  0.18553739  1  0  -0.054501  0  3.706378  0  0  -0.080213  0  3.956986  0  0  -0.079408  0  3.97638  0  -0.026299  0  -0.075253  -0.08053  0  3.943718  0
C  C87  1  0.44667173  0.93694267  0.31446287  1  0  -0.054429  0  3.706374  0  0  -0.080114  0  3.956986  0  0  -0.079309  0  3.976387  0  -0.026216  0  -0.075241  -0.080432  0  3.943714  0
C  C88  1  0.71957625  0.33095395  0.82582780  1  0  -0.049015  0  3.739797  0  0  -0.063464  0  3.99342  0  0  -0.062939  0  4.01097  0  -0.012413  0  -0.079857  -0.063492  0  3.98126  0
C  C89  1  0.21957478  0.16904568  0.67417536  1  0  -0.048894  0  3.739863  0  0  -0.063372  0  3.993473  0  0  -0.062846  0  4.011026  0  -0.012364  0  -0.079796  -0.063402  0  3.981315  0
C  C90  1  0.28043014  0.66904909  0.17417168  1  0  -0.049055  0  3.739589  0  0  -0.063513  0  3.99323  0  0  -0.062984  0  4.010773  0  -0.010813  0  -0.079851  -0.063547  0  3.98108  0
C  C91  1  0.78042298  0.83095282  0.32582706  1  0  -0.048888  0  3.739688  0  0  -0.063367  0  3.993334  0  0  -0.062836  0  4.010877  0  -0.012392  0  -0.079791  -0.063394  0  3.981177  0
C  C92  1  0.91683125  0.37628600  0.86322882  1  0  -0.071891  0  3.73068  0  0  -0.087008  0  3.986147  0  0  -0.089442  0  4.004459  0  -0.091066  0  -0.084233  -0.085466  0  3.973577  0
C  C93  1  0.41683323  0.12371288  0.63677365  1  0  -0.071873  0  3.730714  0  0  -0.086973  0  3.986176  0  0  -0.089409  0  4.004494  0  -0.090734  0  -0.084215  -0.08543  0  3.973604  0
C  C94  1  0.08315271  0.62371553  0.13676541  1  0  -0.071757  0  3.730376  0  0  -0.086923  0  3.985894  0  0  -0.089355  0  4.004202  0  -0.092422  0  -0.084162  -0.085383  0  3.973328  0
C  C95  1  0.58316454  0.87628865  0.36323217  1  0  -0.07192  0  3.73065  0  0  -0.08705  0  3.986137  0  0  -0.089484  0  4.004443  0  -0.091141  0  -0.084225  -0.085507  0  3.973569  0
O  O96  1  0.61283051  0.47526310  0.57239627  1  0  -0.792503  0  2.156401  0  0  -0.73435  0  2.419231  0  0  -0.779107  0  2.409012  0  -1.206614  0  -0.410162  -0.714913  0  2.425098  0
O  O97  1  0.11282904  0.02473729  0.92760436  1  0  -0.79253  0  2.156312  0  0  -0.734348  0  2.419123  0  0  -0.779102  0  2.408904  0  -1.206537  0  -0.410173  -0.714916  0  2.424987  0
O  O98  1  0.38717416  0.52473843  0.42760247  1  0  -0.792524  0  2.15631  0  0  -0.734372  0  2.419073  0  0  -0.779134  0  2.408846  0  -1.206333  0  -0.410245  -0.714931  0  2.424946  0
O  O99  1  0.88717391  0.97525970  0.07239538  1  0  -0.792404  0  2.156576  0  0  -0.734246  0  2.419285  0  0  -0.779003  0  2.409058  0  -1.206402  0  -0.410167  -0.714809  0  2.425158  0
O  O100  1  0.42241102  0.81822077  0.56774158  1  0  -0.652533  0  1.94451  0  0  -0.605748  0  2.182229  0  0  -0.638363  0  2.174092  0  -1.172899  0  -0.347344  -0.588807  0  2.187135  0
O  O101  1  0.92241077  0.68177736  0.93225756  1  0  -0.652539  0  1.944419  0  0  -0.605738  0  2.182165  0  0  -0.638355  0  2.174027  0  -1.172818  0  -0.347328  -0.588801  0  2.187073  0
O  O102  1  0.57757985  0.18178302  0.43225409  1  0  -0.652552  0  1.944525  0  0  -0.605744  0  2.182239  0  0  -0.63835  0  2.174062  0  -1.172854  0  -0.347366  -0.588809  0  2.187145  0
O  O103  1  0.07758873  0.31821510  0.06774576  1  0  -0.652627  0  1.944321  0  0  -0.605819  0  2.182137  0  0  -0.638416  0  2.173942  0  -1.173023  0  -0.347403  -0.588885  0  2.187044  0
O  O104  1  0.72067697  0.69052252  0.68197967  1  0  -0.925801  0  1.825328  0  0  -0.878424  0  2.026575  0  0  -0.909331  0  1.985484  0  -1.294409  0  -0.655095  -0.864858  0  2.049468  0
O  O105  1  0.22067378  0.80947334  0.81802061  1  0  -0.925776  0  1.825336  0  0  -0.878393  0  2.026584  0  0  -0.909303  0  1.985499  0  -1.295713  0  -0.655058  -0.864836  0  2.049484  0
O  O106  1  0.27932252  0.30947976  0.31802040  1  0  -0.925763  0  1.825389  0  0  -0.878337  0  2.026664  0  0  -0.90927  0  1.985599  0  -1.294428  0  -0.655062  -0.864781  0  2.049559  0
O  O107  1  0.77933089  0.19052138  0.18198157  1  0  -0.925813  0  1.825255  0  0  -0.878405  0  2.026568  0  0  -0.909315  0  1.985465  0  -1.294364  0  -0.655095  -0.864846  0  2.049454  0
O  O108  1  0.15300189  0.74861230  0.64497218  1  0  -0.780954  0  2.043428  0  0  -0.709412  0  2.270009  0  0  -0.744932  0  2.258521  0  -1.205979  0  -0.386156  -0.690332  0  2.276729  0
O  O109  1  0.65299818  0.75138809  0.85502840  1  0  -0.78092  0  2.043491  0  0  -0.70939  0  2.270126  0  0  -0.744909  0  2.258636  0  -1.206016  0  -0.386104  -0.690303  0  2.276837  0
O  O110  1  0.84699760  0.25139148  0.35502607  1  0  -0.780845  0  2.043595  0  0  -0.709323  0  2.270195  0  0  -0.744852  0  2.258712  0  -1.205969  0  -0.386063  -0.690232  0  2.2769  0
O  O111  1  0.34700648  0.24861041  0.14497788  1  0  -0.780818  0  2.04344  0  0  -0.709255  0  2.27009  0  0  -0.744777  0  2.258599  0  -1.205991  0  -0.386006  -0.69018  0  2.276808  0
O  O112  1  0.75033605  0.65440103  0.48947165  1  0  -0.907042  0  1.849067  0  0  -0.857668  0  2.045928  0  0  -0.88828  0  2.010476  0  -1.262605  0  -0.651135  -0.843376  0  2.065686  0
O  O113  1  0.25033803  0.84560012  0.01052961  1  0  -0.907096  0  1.849202  0  0  -0.857742  0  2.045968  0  0  -0.888357  0  2.010515  0  -1.262594  0  -0.651145  -0.843457  0  2.065729  0
O  O114  1  0.24966690  0.34559973  0.51052833  1  0  -0.906999  0  1.849028  0  0  -0.857629  0  2.045936  0  0  -0.888255  0  2.010479  0  -1.262621  0  -0.651095  -0.843347  0  2.065691  0
O  O115  1  0.74966664  0.15439989  0.98947290  1  0  -0.906981  0  1.849041  0  0  -0.857608  0  2.045933  0  0  -0.888228  0  2.010476  0  -1.262555  0  -0.651093  -0.843326  0  2.065688  0
O  O116  1  0.12640344  0.51749449  0.59603945  1  0  -0.715239  0  2.05116  0  0  -0.654711  0  2.287142  0  0  -0.687832  0  2.276975  0  -1.202337  0  -0.373002  -0.637059  0  2.293296  0
O  O117  1  0.62640491  0.98250289  0.90396093  1  0  -0.715251  0  2.051221  0  0  -0.654717  0  2.287182  0  0  -0.687836  0  2.277013  0  -1.202414  0  -0.372994  -0.63707  0  2.293336  0
O  O118  1  0.87360123  0.48250628  0.40395603  1  0  -0.715123  0  2.051308  0  0  -0.654526  0  2.287222  0  0  -0.687656  0  2.277056  0  -1.202305  0  -0.372935  -0.636882  0  2.293376  0
O  O119  1  0.37361183  0.01749486  0.09604079  1  0  -0.715214  0  2.051203  0  0  -0.654604  0  2.287084  0  0  -0.687721  0  2.276915  0  -1.20234  0  -0.372982  -0.63696  0  2.293237  0
O  O120  1  0.31247008  0.56826327  0.71647962  1  0  -0.660273  0  1.961423  0  0  -0.614624  0  2.202523  0  0  -0.647028  0  2.194417  0  -1.173162  0  -0.364976  -0.597885  0  2.207153  0
O  O121  1  0.81247155  0.93173788  0.78352164  1  0  -0.660315  0  1.961578  0  0  -0.61467  0  2.202671  0  0  -0.647074  0  2.194565  0  -1.173188  0  -0.364994  -0.597936  0  2.207304  0
O  O122  1  0.68753286  0.43173977  0.28351986  1  0  -0.660217  0  1.961608  0  0  -0.614565  0  2.202711  0  0  -0.646975  0  2.194609  0  -1.173124  0  -0.364986  -0.597836  0  2.207346  0
O  O123  1  0.18753829  0.06826288  0.21647963  1  0  -0.660246  0  1.961549  0  0  -0.614602  0  2.202637  0  0  -0.647013  0  2.194537  0  -1.173059  0  -0.365022  -0.597871  0  2.207271  0
O  O124  1  0.79130942  0.32995817  0.54346838  1  0  -0.708478  0  1.997772  0  0  -0.657027  0  2.240253  0  0  -0.690579  0  2.228232  0  -1.184667  0  -0.360406  -0.63923  0  2.246827  0
O  O125  1  0.29130795  0.17004524  0.95653502  1  0  -0.708497  0  1.997702  0  0  -0.657052  0  2.24017  0  0  -0.690641  0  2.228238  0  -1.184382  0  -0.360425  -0.639254  0  2.246744  0
O  O126  1  0.20869007  0.67004789  0.45652936  1  0  -0.708349  0  1.998002  0  0  -0.656925  0  2.240408  0  0  -0.690485  0  2.228436  0  -1.184885  0  -0.360328  -0.639113  0  2.246994  0
O  O127  1  0.70868982  0.82995251  0.04347121  1  0  -0.708388  0  1.997824  0  0  -0.657002  0  2.240241  0  0  -0.690555  0  2.228249  0  -1.184865  0  -0.360374  -0.639193  0  2.246825  0
