# generated using pymatgen
data_GdH10C16N5O8
_symmetry_space_group_name_H-M   'P 1'
_cell_length_a   9.54964135
_cell_length_b   10.18987462
_cell_length_c   11.63110756
_cell_angle_alpha   66.37817835
_cell_angle_beta   65.76764173
_cell_angle_gamma   62.06007292
_symmetry_Int_Tables_number   1
_chemical_formula_structural   GdH10C16N5O8
_chemical_formula_sum   'Gd2 H20 C32 N10 O16'
_cell_volume   880.75761944
_cell_formula_units_Z   2
loop_
 _symmetry_equiv_pos_site_id
 _symmetry_equiv_pos_as_xyz
  1  'x, y, z'
loop_
 _atom_site_type_symbol
 _atom_site_label
 _atom_site_symmetry_multiplicity
 _atom_site_fract_x
 _atom_site_fract_y
 _atom_site_fract_z
 _atom_site_occupancy
 _atom_site_hle17_bader_spin_density
 _atom_site_hle17_ddec_charge
 _atom_site_hle17_ddec_spin_density
 _atom_site_hle17_ddec_sum_bond_order
 _atom_site_hle17_magmom
 _atom_site_hse06_10hf_bader_spin_density
 _atom_site_hse06_10hf_ddec_charge
 _atom_site_hse06_10hf_ddec_spin_density
 _atom_site_hse06_10hf_ddec_sum_bond_order
 _atom_site_hse06_10hf_magmom
 _atom_site_hse06_bader_spin_density
 _atom_site_hse06_ddec_charge
 _atom_site_hse06_ddec_spin_density
 _atom_site_hse06_ddec_sum_bond_order
 _atom_site_hse06_magmom
 _atom_site_pbe_bader_spin_density
 _atom_site_pbe_cm5_charge
 _atom_site_pbe_ddec_charge
 _atom_site_pbe_ddec_spin_density
 _atom_site_pbe_ddec_sum_bond_order
 _atom_site_pbe_magmom
Gd  Gd0  1  0.34267934  0.25000851  0.74999479  1  0  1.878216  0  1.986017  0  0  1.725272  0  2.414152  0  0  1.789766  0  2.352354  0  0  1.538662  1.677061  0  2.46077  0
Gd  Gd1  1  0.65732040  0.74999182  0.25000566  1  0  1.8782  0  1.986021  0  0  1.725287  0  2.414123  0  0  1.789785  0  2.352317  0  0  1.538664  1.677064  0  2.460758  0
H  H2  1  0.55079375  0.89119261  0.86373192  1  0  0.091117  0  0.922443  0  0  0.10038  0  0.98221  0  0  0.103013  0  0.979796  0  0  0.130209  0.098307  0  0.984089  0
H  H3  1  0.30574606  0.60879778  0.63625720  1  0  0.091292  0  0.921906  0  0  0.100389  0  0.981661  0  0  0.103137  0  0.979119  0  0  0.130436  0.098063  0  0.984346  0
H  H4  1  0.44920640  0.10880887  0.13626742  1  0  0.09112  0  0.922437  0  0  0.100385  0  0.982203  0  0  0.103018  0  0.979791  0  0  0.130215  0.098311  0  0.98408  0
H  H5  1  0.69425292  0.39120255  0.36374286  1  0  0.091278  0  0.92191  0  0  0.100375  0  0.981668  0  0  0.103123  0  0.979126  0  0  0.130428  0.098048  0  0.984359  0
H  H6  1  0.55029270  0.62454606  0.94468420  1  0  0.100799  0  0.965888  0  0  0.109499  0  1.028866  0  0  0.112287  0  1.028603  0  0  0.10722  0.10741  0  1.029415  0
H  H7  1  0.11954400  0.87547196  0.55529719  1  0  0.100539  0  0.966628  0  0  0.108542  0  1.031028  0  0  0.111266  0  1.030865  0  0  0.107264  0.107632  0  1.028893  0
H  H8  1  0.44970703  0.37545427  0.05531625  1  0  0.100796  0  0.965883  0  0  0.109493  0  1.028866  0  0  0.112281  0  1.028602  0  0  0.107225  0.107405  0  1.029417  0
H  H9  1  0.88045619  0.12452722  0.44470351  1  0  0.100541  0  0.966638  0  0  0.108547  0  1.031032  0  0  0.111271  0  1.030869  0  0  0.107265  0.107631  0  1.028902  0
H  H10  1  0.29802358  0.58820639  0.95577155  1  0  0.099391  0  0.971281  0  0  0.105887  0  1.037157  0  0  0.109762  0  1.033163  0  0  0.10509  0.1027  0  1.040696  0
H  H11  1  0.84201727  0.91180700  0.54421774  1  0  0.099439  0  0.970342  0  0  0.105885  0  1.036574  0  0  0.109841  0  1.032435  0  0  0.105656  0.102808  0  1.039735  0
H  H12  1  0.70197702  0.41179395  0.04422804  1  0  0.099389  0  0.971269  0  0  0.105884  0  1.037149  0  0  0.109758  0  1.033156  0  0  0.105089  0.102697  0  1.040683  0
H  H13  1  0.15798216  0.08819219  0.45578257  1  0  0.099407  0  0.970349  0  0  0.105862  0  1.036571  0  0  0.109818  0  1.032432  0  0  0.105644  0.102783  0  1.039732  0
H  H14  1  0.06442723  0.81529629  0.89316594  1  0  0.11895  0  0.969214  0  0  0.126392  0  1.032393  0  0  0.130419  0  1.030086  0  0  0.110137  0.123313  0  1.034379  0
H  H15  1  0.77286402  0.68472950  0.60684437  1  0  0.118624  0  0.970988  0  0  0.125829  0  1.034024  0  0  0.129966  0  1.03164  0  0  0.109955  0.122675  0  1.036048  0
H  H16  1  0.93557219  0.18470289  0.10683437  1  0  0.118951  0  0.969275  0  0  0.126396  0  1.032449  0  0  0.130422  0  1.030145  0  0  0.110131  0.123315  0  1.034436  0
H  H17  1  0.22713572  0.31527083  0.39315608  1  0  0.118624  0  0.970979  0  0  0.125829  0  1.034014  0  0  0.129967  0  1.03163  0  0  0.109956  0.122672  0  1.036044  0
H  H18  1  0.87768835  0.00800711  0.84078109  1  0  0.13254  0  0.946152  0  0  0.138945  0  1.01061  0  0  0.143586  0  1.007239  0  0  0.118106  0.136589  0  1.010466  0
H  H19  1  0.72648155  0.49199003  0.65920825  1  0  0.134187  0  0.944484  0  0  0.141025  0  1.007653  0  0  0.14568  0  1.004269  0  0  0.118149  0.137601  0  1.010176  0
H  H20  1  0.12231280  0.99199208  0.15921750  1  0  0.132493  0  0.946183  0  0  0.138896  0  1.01065  0  0  0.14354  0  1.00727  0  0  0.118089  0.136542  0  1.010503  0
H  H21  1  0.27351905  0.50801031  0.34079134  1  0  0.134193  0  0.944478  0  0  0.141037  0  1.007635  0  0  0.145688  0  1.004261  0  0  0.118157  0.137612  0  1.010172  0
C  C22  1  0.44532509  0.86942290  0.87148307  1  0  0.170894  0  3.678548  0  0  0.136757  0  3.94236  0  0  0.145337  0  3.958136  0  0  0.066085  0.131365  0  3.931833  0
C  C23  1  0.18624987  0.63058545  0.62850253  1  0  0.171823  0  3.678435  0  0  0.138147  0  3.941504  0  0  0.146715  0  3.957121  0  0  0.066486  0.131476  0  3.933077  0
C  C24  1  0.55467509  0.13057628  0.12851763  1  0  0.170895  0  3.678531  0  0  0.136752  0  3.942347  0  0  0.145331  0  3.958124  0  0  0.066081  0.131364  0  3.931813  0
C  C25  1  0.81374911  0.36941488  0.37149753  1  0  0.171834  0  3.678391  0  0  0.138158  0  3.941459  0  0  0.146726  0  3.957077  0  0  0.066481  0.131485  0  3.933028  0
C  C26  1  0.44397932  0.72099905  0.91654046  1  0  -0.105701  0  3.700344  0  0  -0.119923  0  3.95285  0  0  -0.127253  0  3.97449  0  0  -0.076429  -0.115694  0  3.938719  0
C  C27  1  0.08154251  0.77901492  0.58343415  1  0  -0.10732  0  3.700434  0  0  -0.121496  0  3.954036  0  0  -0.1287  0  3.975755  0  0  -0.077035  -0.116901  0  3.93789  0
C  C28  1  0.55602118  0.27900128  0.08346037  1  0  -0.105641  0  3.700347  0  0  -0.119858  0  3.952849  0  0  -0.127186  0  3.974489  0  0  -0.076404  -0.115635  0  3.938721  0
C  C29  1  0.91845691  0.22098426  0.41656617  1  0  -0.107314  0  3.700348  0  0  -0.121491  0  3.953957  0  0  -0.128694  0  3.975676  0  0  -0.077021  -0.116893  0  3.937809  0
C  C30  1  0.30535347  0.70146788  0.92401371  1  0  0.008199  0  3.693855  0  0  -0.009428  0  3.942574  0  0  -0.005855  0  3.96025  0  0  -0.062387  -0.011191  0  3.931258  0
C  C31  1  0.93084927  0.79854552  0.57598039  1  0  0.009514  0  3.693175  0  0  -0.008432  0  3.942864  0  0  -0.004957  0  3.960486  0  0  -0.062532  -0.010045  0  3.930084  0
C  C32  1  0.69464596  0.29853130  0.07598660  1  0  0.008142  0  3.693915  0  0  -0.009481  0  3.942649  0  0  -0.005905  0  3.960319  0  0  -0.062416  -0.011239  0  3.931323  0
C  C33  1  0.06915092  0.20145367  0.42402031  1  0  0.009527  0  3.693062  0  0  -0.008427  0  3.942753  0  0  -0.004952  0  3.960375  0  0  -0.062541  -0.010035  0  3.929966  0
C  C34  1  0.17325284  0.83005114  0.88681072  1  0  -0.123473  0  3.654979  0  0  -0.14358  0  3.901783  0  0  -0.150683  0  3.922389  0  0  -0.073851  -0.139454  0  3.889201  0
C  C35  1  0.89008712  0.66998659  0.61321261  1  0  -0.124908  0  3.65908  0  0  -0.145661  0  3.906026  0  0  -0.152742  0  3.926481  0  0  -0.073578  -0.140507  0  3.891926  0
C  C36  1  0.82674776  0.16994919  0.11318887  1  0  -0.123437  0  3.655015  0  0  -0.143558  0  3.901831  0  0  -0.15066  0  3.922436  0  0  -0.073839  -0.139432  0  3.889247  0
C  C37  1  0.10991262  0.33001374  0.38678784  1  0  -0.124894  0  3.659069  0  0  -0.145655  0  3.906018  0  0  -0.152737  0  3.926473  0  0  -0.073588  -0.140505  0  3.891922  0
C  C38  1  0.18348286  0.97559353  0.84168770  1  0  0.192943  0  3.744366  0  0  0.189315  0  3.988114  0  0  0.195728  0  4.008472  0  0  0.128081  0.184927  0  3.97491  0
C  C39  1  0.00073666  0.52443467  0.65832739  1  0  0.192874  0  3.746225  0  0  0.191432  0  3.987693  0  0  0.197785  0  4.00827  0  0  0.127052  0.186988  0  3.973755  0
C  C40  1  0.81651733  0.02440565  0.15831300  1  0  0.192911  0  3.744338  0  0  0.189313  0  3.98811  0  0  0.195727  0  4.008468  0  0  0.12808  0.184919  0  3.974914  0
C  C41  1  0.99926352  0.47556451  0.34167331  1  0  0.192852  0  3.746203  0  0  0.191436  0  3.987642  0  0  0.197787  0  4.00822  0  0  0.127078  0.186992  0  3.9737  0
C  C42  1  0.05044046  0.11681546  0.79597680  1  0  0.202261  0  3.747548  0  0  0.200478  0  3.996481  0  0  0.207445  0  4.015209  0  0  0.132822  0.195187  0  3.98393  0
C  C43  1  0.96323915  0.38320785  0.70400066  1  0  0.20327  0  3.746879  0  0  0.199948  0  3.996666  0  0  0.206725  0  4.015672  0  0  0.133292  0.195224  0  3.983922  0
C  C44  1  0.94956090  0.88318487  0.20402317  1  0  0.202342  0  3.747439  0  0  0.200464  0  3.996505  0  0  0.20743  0  4.015233  0  0  0.132838  0.195179  0  3.983954  0
C  C45  1  0.03676221  0.61679249  0.29599932  1  0  0.203335  0  3.746816  0  0  0.200006  0  3.996601  0  0  0.206785  0  4.015604  0  0  0.133314  0.195284  0  3.983859  0
C  C46  1  0.90368250  0.11344921  0.79978768  1  0  -0.131264  0  3.626595  0  0  -0.163301  0  3.873077  0  0  -0.167926  0  3.891953  0  0  -0.064252  -0.158399  0  3.856701  0
C  C47  1  0.81694473  0.38654360  0.70016558  1  0  -0.133289  0  3.624325  0  0  -0.164442  0  3.869627  0  0  -0.168941  0  3.888342  0  0  -0.064576  -0.160963  0  3.857255  0
C  C48  1  0.09631779  0.88654997  0.20021178  1  0  -0.131251  0  3.626562  0  0  -0.16323  0  3.873057  0  0  -0.167852  0  3.891937  0  0  -0.064231  -0.158333  0  3.856684  0
C  C49  1  0.18305587  0.61345673  0.29983401  1  0  -0.133383  0  3.62439  0  0  -0.164525  0  3.869724  0  0  -0.169022  0  3.888431  0  0  -0.064621  -0.161051  0  3.857362  0
C  C50  1  0.78710748  0.25000012  0.74997115  1  0  0.016775  0  3.72789  0  0  0.037207  0  3.95962  0  0  0.035189  0  3.979299  0  0  0.009896  0.037937  0  3.946854  0
C  C51  1  0.21289311  0.75000021  0.25002844  1  0  0.016867  0  3.72798  0  0  0.037242  0  3.959773  0  0  0.035218  0  3.979464  0  0  0.009922  0.037974  0  3.947017  0
C  C52  1  0.63006615  0.25002580  0.74999632  1  0  0.63531  0  3.908419  0  0  0.592129  0  4.195639  0  0  0.62608  0  4.188083  0  0  0.190928  0.569044  0  4.200459  0
C  C53  1  0.36993327  0.74997339  0.25000400  1  0  0.635263  0  3.908456  0  0  0.592107  0  4.195665  0  0  0.626057  0  4.188111  0  0  0.190912  0.569012  0  4.200493  0
N  N54  1  0.18951766  0.33970594  0.99336824  1  0  0.691009  0  4.143262  0  0  0.723068  0  4.441549  0  0  0.751739  0  4.446952  0  0  0.085037  0.703485  0  4.437196  0
N  N55  1  0.52269246  0.16025275  0.50665221  1  0  0.693108  0  4.140853  0  0  0.724577  0  4.439649  0  0  0.753594  0  4.444683  0  0  0.085925  0.704938  0  4.435744  0
N  N56  1  0.81048252  0.66029324  0.00663246  1  0  0.690996  0  4.143293  0  0  0.72306  0  4.441579  0  0  0.751732  0  4.44698  0  0  0.085001  0.703473  0  4.437227  0
N  N57  1  0.47730769  0.83974874  0.49334712  1  0  0.693202  0  4.140731  0  0  0.7246  0  4.43959  0  0  0.753617  0  4.444625  0  0  0.085922  0.704968  0  4.435679  0
N  N58  1  0.07757793  0.25001334  0.74998801  1  0  -0.440129  0  3.206084  0  0  -0.398285  0  3.463159  0  0  -0.414155  0  3.480732  0  0  -0.376777  -0.388206  0  3.452255  0
N  N59  1  0.92242150  0.74998584  0.25001230  1  0  -0.440173  0  3.206051  0  0  -0.3983  0  3.463154  0  0  -0.414171  0  3.480726  0  0  -0.376784  -0.388214  0  3.452246  0
N  N60  1  0.31893785  0.99355952  0.83455343  1  0  -0.429508  0  3.246615  0  0  -0.375915  0  3.507221  0  0  -0.394045  0  3.525899  0  0  -0.402706  -0.363532  0  3.494858  0
N  N61  1  0.14704219  0.50646867  0.66543877  1  0  -0.427642  0  3.245673  0  0  -0.374433  0  3.505403  0  0  -0.392543  0  3.524051  0  0  -0.40178  -0.362414  0  3.493519  0
N  N62  1  0.68106320  0.00643966  0.16544641  1  0  -0.429527  0  3.246639  0  0  -0.375921  0  3.507217  0  0  -0.394051  0  3.525895  0  0  -0.402703  -0.363536  0  3.494856  0
N  N63  1  0.85295809  0.49353052  0.33456068  1  0  -0.427662  0  3.245619  0  0  -0.374467  0  3.505346  0  0  -0.392577  0  3.523994  0  0  -0.401798  -0.362443  0  3.493453  0
O  O64  1  0.57901101  0.14236517  0.83200125  1  0  -0.652628  0  1.941135  0  0  -0.609741  0  2.171486  0  0  -0.635413  0  2.163201  0  0  -0.377037  -0.591959  0  2.177067  0
O  O65  1  0.55333017  0.35770557  0.66799986  1  0  -0.652992  0  1.939559  0  0  -0.61046  0  2.170239  0  0  -0.636114  0  2.161884  0  0  -0.376983  -0.592116  0  2.17545  0
O  O66  1  0.42098927  0.85763402  0.16799821  1  0  -0.652611  0  1.941096  0  0  -0.609728  0  2.171437  0  0  -0.6354  0  2.163151  0  0  -0.377025  -0.591952  0  2.177049  0
O  O67  1  0.44666957  0.64229476  0.33200058  1  0  -0.652994  0  1.93954  0  0  -0.610464  0  2.170206  0  0  -0.636118  0  2.161851  0  0  -0.377002  -0.592109  0  2.175418  0
O  O68  1  0.27675818  0.40911543  0.89278843  1  0  -0.518761  0  1.83055  0  0  -0.507578  0  2.060347  0  0  -0.527414  0  2.056178  0  0  -0.23101  -0.492735  0  2.06277  0
O  O69  1  0.57871756  0.09085303  0.60725914  1  0  -0.518624  0  1.832918  0  0  -0.506693  0  2.062276  0  0  -0.526853  0  2.058315  0  0  -0.23088  -0.492619  0  2.065038  0
O  O70  1  0.72324242  0.59088490  0.10721116  1  0  -0.518756  0  1.830545  0  0  -0.507604  0  2.060369  0  0  -0.52744  0  2.056197  0  0  -0.23102  -0.492761  0  2.062801  0
O  O71  1  0.42128304  0.90914730  0.39274045  1  0  -0.518619  0  1.832858  0  0  -0.506676  0  2.06225  0  0  -0.526835  0  2.058289  0  0  -0.230871  -0.492605  0  2.065015  0
O  O72  1  0.17442695  0.22821536  0.97881591  1  0  -0.51876  0  1.80032  0  0  -0.50873  0  2.029678  0  0  -0.527027  0  2.022691  0  0  -0.237831  -0.495123  0  2.034117  0
O  O73  1  0.38158029  0.27177365  0.52115780  1  0  -0.520395  0  1.798483  0  0  -0.510041  0  2.027946  0  0  -0.528603  0  2.020895  0  0  -0.238432  -0.496476  0  2.032448  0
O  O74  1  0.82557279  0.77178498  0.02118453  1  0  -0.518764  0  1.800312  0  0  -0.508735  0  2.029668  0  0  -0.527031  0  2.02268  0  0  -0.237834  -0.495128  0  2.034111  0
O  O75  1  0.61841945  0.72822668  0.47884265  1  0  -0.520395  0  1.798399  0  0  -0.510029  0  2.027888  0  0  -0.528592  0  2.020838  0  0  -0.23843  -0.49647  0  2.032394  0
O  O76  1  0.12554116  0.37642259  0.09731132  1  0  -0.373989  0  1.772242  0  0  -0.371756  0  1.976716  0  0  -0.383087  0  1.97349  0  0  -0.13913  -0.3633  0  1.978785  0
O  O77  1  0.59939179  0.12350440  0.40272282  1  0  -0.373691  0  1.768932  0  0  -0.371207  0  1.973414  0  0  -0.382752  0  1.970213  0  0  -0.139274  -0.363084  0  1.975608  0
O  O78  1  0.87445944  0.62357774  0.90268827  1  0  -0.373969  0  1.772269  0  0  -0.371731  0  1.976744  0  0  -0.383063  0  1.973518  0  0  -0.13908  -0.363273  0  1.978813  0
O  O79  1  0.40060988  0.87649708  0.59727729  1  0  -0.373771  0  1.768921  0  0  -0.37125  0  1.973421  0  0  -0.382792  0  1.970215  0  0  -0.139292  -0.363129  0  1.975611  0
