# generated using pymatgen
data_Co3H15C17(NO)7
_symmetry_space_group_name_H-M   'P 1'
_cell_length_a   10.69651940
_cell_length_b   10.93585225
_cell_length_c   10.82546511
_cell_angle_alpha   86.43840355
_cell_angle_beta   90.08757361
_cell_angle_gamma   63.43420734
_symmetry_Int_Tables_number   1
_chemical_formula_structural   Co3H15C17(NO)7
_chemical_formula_sum   'Co6 H30 C34 N14 O14'
_cell_volume   1129.82199812
_cell_formula_units_Z   2
loop_
 _symmetry_equiv_pos_site_id
 _symmetry_equiv_pos_as_xyz
  1  'x, y, z'
loop_
 _atom_site_type_symbol
 _atom_site_label
 _atom_site_symmetry_multiplicity
 _atom_site_fract_x
 _atom_site_fract_y
 _atom_site_fract_z
 _atom_site_occupancy
 _atom_site_pbe_bader_charge
 _atom_site_pbe_bader_spin_density
 _atom_site_pbe_cm5_charge
 _atom_site_pbe_ddec_charge
 _atom_site_pbe_ddec_spin_density
 _atom_site_pbe_ddec_sum_bond_order
 _atom_site_pbe_magmom
Co  Co0  1  0.08976032  0.89608490  0.25080074  1  1.316108  2.632402  0.692768  0.9189  2.859777  2.65733  2.616
Co  Co1  1  0.98265280  0.85040617  0.00153513  1  1.199241  2.529246  0.654591  0.818872  2.692602  2.58573  2.484
Co  Co2  1  0.83564858  0.02515282  0.48400270  1  1.292037  2.622974  0.681081  0.921817  2.826367  2.49206  2.598
Co  Co3  1  0.91025431  0.10390732  0.74918649  1  1.315699  2.632369  0.692801  0.918899  2.859697  2.657051  2.616
Co  Co4  1  0.01734306  0.14958419  0.99845873  1  1.199404  2.529219  0.654522  0.81879  2.69258  2.585574  2.484
Co  Co5  1  0.16437956  0.97483648  0.51599216  1  1.291742  2.623055  0.681105  0.921811  2.826422  2.492087  2.598
H  H6  1  0.21114034  0.86939785  0.05428350  1  0.584385  0.004442  0.297423  0.374655  0.003031  0.934446  0.005
H  H7  1  0.08973201  0.80025754  0.46832378  1  0.621328  0.002844  0.30543  0.393578  0.002064  0.907428  0.005
H  H8  1  0.45400707  0.81962371  0.09637672  1  0.066732  0.000424  0.098197  0.097476  7.2e-05  1.02665  0.0
H  H9  1  0.65118652  0.84121224  0.98804461  1  0.094204  0.000748  0.108287  0.121619  0.000268  0.994176  0.0
H  H10  1  0.56508782  0.92932657  0.44072426  1  0.122051  0.000946  0.111478  0.126812  0.000357  1.023648  0.0
H  H11  1  0.16026735  0.30596165  0.52161485  1  0.064582  0.000511  0.107074  0.119427  8.3e-05  1.006583  0.0
H  H12  1  0.15081414  0.52380286  0.42182080  1  0.086062  0.000314  0.102196  0.105938  0.000108  1.032786  0.0
H  H13  1  0.06041054  0.42752926  0.06214067  1  0.14212  0.000854  0.106649  0.121567  0.000239  1.050936  0.0
H  H14  1  0.72829119  0.23210655  0.18965084  1  0.072376  0.001802  0.117159  0.036426  0.000713  0.99813  0.001
H  H15  1  0.67793791  0.61029851  0.29219307  1  0.045036  -1.4e-05  0.103726  0.119368  -6.8e-05  1.031427  0.0
H  H16  1  0.66688817  0.49552224  0.41204282  1  0.084959  -1.5e-05  0.113276  0.135161  -5.2e-05  0.965882  0.0
H  H17  1  0.83351369  0.46880457  0.35588944  1  0.082564  -9.6e-05  0.10021  0.110424  -0.000126  1.024761  0.0
H  H18  1  0.73920123  0.52091191  0.07396206  1  0.078912  4.8e-05  0.105665  0.128629  -9.4e-05  0.991663  0.0
H  H19  1  0.67293329  0.40170807  0.04895433  1  0.066887  0.000513  0.106759  0.115695  0.00024  1.005982  0.0
H  H20  1  0.56062435  0.56414273  0.10671533  1  0.033084  4.4e-05  0.101178  0.114519  -4e-05  0.996142  0.0
H  H21  1  0.78886253  0.13058122  0.94571038  1  0.584603  0.004438  0.29745  0.374676  0.003031  0.934502  0.005
H  H22  1  0.91026022  0.19973870  0.53165759  1  0.621692  0.002846  0.305424  0.393548  0.002064  0.907411  0.005
H  H23  1  0.54598753  0.18040835  0.90360168  1  0.067608  0.000424  0.098203  0.097576  7.3e-05  1.026579  0.0
H  H24  1  0.34881823  0.15881609  0.01195072  1  0.094261  0.000748  0.108335  0.121606  0.000268  0.994158  0.0
H  H25  1  0.43493047  0.07065358  0.55927321  1  0.122017  0.000946  0.111487  0.126812  0.000357  1.023661  0.0
H  H26  1  0.83975514  0.69402571  0.47838386  1  0.064302  0.000511  0.106972  0.119255  8.3e-05  1.006722  0.0
H  H27  1  0.84920823  0.47618687  0.57819158  1  0.086152  0.000315  0.102256  0.105972  0.000109  1.032896  0.0
H  H28  1  0.93959270  0.57246345  0.93786593  1  0.142195  0.000854  0.106698  0.121693  0.000239  1.05105  0.0
H  H29  1  0.27168203  0.76792925  0.81031064  1  0.072786  0.0018  0.117188  0.036462  0.000712  0.998218  0.001
H  H30  1  0.32206102  0.38970989  0.70782609  1  0.044924  -1.4e-05  0.103743  0.119384  -6.8e-05  1.031381  0.0
H  H31  1  0.33308839  0.50449003  0.58796496  1  0.085252  -1.5e-05  0.113353  0.135223  -5.2e-05  0.965806  0.0
H  H32  1  0.16646886  0.53119668  0.64413033  1  0.082748  -9.6e-05  0.100121  0.110341  -0.000126  1.024859  0.0
H  H33  1  0.26072814  0.47913006  0.92603958  1  0.079064  4.8e-05  0.105683  0.128684  -9.4e-05  0.99161  0.0
H  H34  1  0.32701603  0.59831482  0.95106644  1  0.066715  0.000513  0.106788  0.115657  0.00024  1.005956  0.0
H  H35  1  0.43931085  0.43588452  0.89331525  1  0.033107  4.4e-05  0.101264  0.114667  -4e-05  0.996173  0.0
C  C36  1  0.69311266  0.92526252  0.28293904  1  0.376486  0.008384  0.093469  0.126504  0.004577  4.048871  0.008
C  C37  1  0.71874897  0.89759956  0.15627786  1  0.36012  0.007874  0.095215  0.135793  0.004413  4.059235  0.008
C  C38  1  0.52470995  0.84798515  0.14597537  1  -0.054664  -0.000697  -0.093409  -0.112028  -0.001399  4.026254  0.0
C  C39  1  0.63320809  0.85938213  0.08568916  1  -0.013537  0.000986  -0.091486  -0.15794  1.8e-05  4.007722  0.001
C  C40  1  0.50000176  0.87213147  0.27352514  1  0.008409  0.008155  -0.024938  -0.048234  0.003825  3.991529  0.007
C  C41  1  0.58372253  0.91165967  0.34321744  1  -0.005417  -3.1e-05  -0.077357  -0.156292  -0.001443  3.927354  0.0
C  C42  1  0.37943755  0.85778101  0.33101657  1  1.557634  0.003493  0.209455  0.583263  0.001382  4.168726  0.003
C  C43  1  0.08593221  0.28092960  0.21635450  1  0.407759  0.010634  0.090684  0.130135  0.005847  4.051631  0.01
C  C44  1  0.11522738  0.24593816  0.34523922  1  0.365578  0.006328  0.097247  0.12833  0.003615  4.058537  0.006
C  C45  1  0.13958968  0.33226758  0.42253184  1  0.018158  0.00075  -0.089885  -0.152815  -0.000121  3.988095  0.001
C  C46  1  0.13444542  0.45184345  0.36699137  1  -0.034682  -0.001708  -0.090524  -0.10439  -0.002442  3.997352  -0.001
C  C47  1  0.10628214  0.48707770  0.23770781  1  -0.04043  0.008212  -0.025747  -0.043961  0.003816  3.989262  0.007
C  C48  1  0.08239525  0.40151893  0.16086009  1  -0.057932  -0.004146  -0.084027  -0.167387  -0.005834  3.939098  -0.002
C  C49  1  0.09756987  0.62103140  0.18622916  1  1.555837  -0.001738  0.211081  0.58267  -0.003218  4.166467  -0.001
C  C50  1  0.73898193  0.28917664  0.26665145  1  1.381208  6.2e-05  0.173658  0.303112  -0.000515  4.119338  0.0
C  C51  1  0.72284031  0.50350316  0.32941888  1  0.253381  0.000118  -0.132728  -0.263618  -1.6e-05  3.875032  0.0
C  C52  1  0.66782487  0.48052868  0.10938121  1  0.281671  0.001121  -0.128524  -0.270315  0.000632  3.921063  0.001
C  C53  1  0.30690283  0.07473199  0.71705816  1  0.376351  0.008381  0.093507  0.126642  0.004575  4.048725  0.008
C  C54  1  0.28125947  0.10240222  0.84372245  1  0.360366  0.007878  0.095108  0.135578  0.004415  4.058769  0.008
C  C55  1  0.47528873  0.15204006  0.85401745  1  -0.055441  -0.000696  -0.093471  -0.112112  -0.001398  4.02623  0.0
C  C56  1  0.36680180  0.14063081  0.91430652  1  -0.013962  0.000985  -0.091442  -0.157805  1.7e-05  4.007473  0.001
C  C57  1  0.50000530  0.12786100  0.72647224  1  0.008457  0.008157  -0.024958  -0.048257  0.003827  3.991689  0.007
C  C58  1  0.41629994  0.08832363  0.65678346  1  -0.005346  -3.3e-05  -0.07739  -0.15638  -0.001444  3.927783  0.0
C  C59  1  0.62057936  0.14220422  0.66897863  1  1.558105  0.003485  0.209454  0.583157  0.001376  4.168931  0.003
C  C60  1  0.91407567  0.71906323  0.78365764  1  0.407605  0.010636  0.09066  0.130048  0.005848  4.051778  0.01
C  C61  1  0.88478519  0.75405461  0.65477106  1  0.341286  0.006326  0.097323  0.128499  0.003617  4.058088  0.006
C  C62  1  0.86043653  0.66772392  0.57746930  1  0.04355  0.00075  -0.08974  -0.152517  -0.000123  3.988043  0.001
C  C63  1  0.86556585  0.54815621  0.63300634  1  -0.035083  -0.001706  -0.090595  -0.104505  -0.002439  3.997755  -0.001
C  C64  1  0.89372308  0.51292703  0.76228671  1  -0.040811  0.00821  -0.02574  -0.043984  0.003814  3.989368  0.007
C  C65  1  0.91761032  0.59847277  0.83914752  1  -0.057733  -0.004142  -0.084035  -0.167423  -0.00583  3.939215  -0.002
C  C66  1  0.90242227  0.37896919  0.81376294  1  1.556074  -0.001737  0.211051  0.582647  -0.003217  4.166179  -0.001
C  C67  1  0.26101392  0.71082607  0.73334416  1  1.380853  6.1e-05  0.17375  0.303202  -0.000516  4.118667  0.0
C  C68  1  0.27714321  0.49650620  0.67059652  1  0.253268  0.000119  -0.132672  -0.263529  -1.5e-05  3.875108  0.0
C  C69  1  0.33211661  0.51950521  0.89062664  1  0.282037  0.001122  -0.128663  -0.270482  0.000633  3.921237  0.001
N  N70  1  0.83368340  0.91530515  0.12721512  1  -0.713012  0.065094  -0.253945  -0.249738  0.033113  3.568733  0.05
N  N71  1  0.87612871  0.95120076  0.22931857  1  -0.178655  0.037292  -0.120032  -0.053395  0.01734  3.551814  0.035
N  N72  1  0.79416122  0.95905837  0.32435715  1  -0.680059  0.054641  -0.234746  -0.241157  0.029122  3.513603  0.042
N  N73  1  0.06555234  0.17724084  0.16860819  1  -0.698678  0.050517  -0.250976  -0.261761  0.026388  3.553629  0.031
N  N74  1  0.08235108  0.08611914  0.26332707  1  -0.171716  0.048894  -0.115235  -0.028668  0.025948  3.57791  0.045
N  N75  1  0.11202319  0.12353185  0.36978490  1  -0.663654  0.066766  -0.228069  -0.230387  0.035003  3.502314  0.057
N  N76  1  0.70971580  0.41993083  0.23500260  1  -1.188757  0.001614  -0.282479  0.024278  0.000433  3.71003  0.001
N  N77  1  0.16632220  0.08468648  0.87278972  1  -0.712384  0.065076  -0.253907  -0.249678  0.033105  3.568567  0.05
N  N78  1  0.12389369  0.04877248  0.77069056  1  -0.178886  0.037272  -0.120003  -0.053372  0.017328  3.551613  0.035
N  N79  1  0.20586354  0.04091787  0.67564895  1  -0.680404  0.054651  -0.23481  -0.241339  0.029126  3.513676  0.042
N  N80  1  0.93445608  0.82274869  0.83139497  1  -0.698712  0.050544  -0.251085  -0.261842  0.026402  3.554067  0.031
N  N81  1  0.91766624  0.91386931  0.73667434  1  -0.171451  0.048892  -0.115198  -0.028622  0.025945  3.578099  0.045
N  N82  1  0.88799690  0.87645873  0.63022002  1  -0.6642  0.06677  -0.228132  -0.230566  0.035003  3.502439  0.057
N  N83  1  0.29025755  0.58008846  0.76499812  1  -1.189227  0.001613  -0.282429  0.024282  0.000431  3.710452  0.001
O  O84  1  0.11055408  0.91908130  0.06362845  1  -1.16395  0.220987  -0.556864  -0.839751  0.11752  2.400936  0.182
O  O85  1  0.05722489  0.89380044  0.43225767  1  -1.162251  0.253644  -0.554373  -0.842476  0.136064  2.41925  0.214
O  O86  1  0.35530048  0.88648829  0.44412068  1  -1.149272  0.099247  -0.316183  -0.551066  0.050832  2.342797  0.082
O  O87  1  0.30805993  0.81982255  0.26248541  1  -1.160533  0.069096  -0.317002  -0.556444  0.034997  2.32258  0.059
O  O88  1  0.06714974  0.65344982  0.06982863  1  -1.162974  0.082074  -0.323016  -0.569674  0.041792  2.386797  0.066
O  O89  1  0.11903978  0.69461619  0.26133419  1  -1.159655  0.066422  -0.306413  -0.535148  0.033944  2.361429  0.059
O  O90  1  0.77611043  0.23504227  0.37367350  1  -1.158731  0.037911  -0.285937  -0.458245  0.018857  2.384052  0.033
O  O91  1  0.88945054  0.08088788  0.93638102  1  -1.164243  0.220989  -0.556933  -0.839722  0.117515  2.400789  0.182
O  O92  1  0.94278591  0.10619820  0.56774012  1  -1.162563  0.253622  -0.554396  -0.842434  0.136058  2.419185  0.214
O  O93  1  0.64472430  0.11349406  0.55588399  1  -1.149923  0.09923  -0.316201  -0.551006  0.05081  2.343062  0.082
O  O94  1  0.69194567  0.18017934  0.73751951  1  -1.160532  0.069119  -0.316992  -0.556436  0.03501  2.322534  0.059
O  O95  1  0.93283346  0.34654784  0.93016926  1  -1.162993  0.082088  -0.323028  -0.569714  0.041797  2.38666  0.066
O  O96  1  0.88094348  0.30539157  0.73865640  1  -1.159737  0.066396  -0.306388  -0.535107  0.03393  2.361282  0.059
O  O97  1  0.22390540  0.76495128  0.62628313  1  -1.158944  0.037956  -0.286102  -0.458357  0.018875  2.383008  0.033
