# generated using pymatgen
data_HgH11C13N2Cl2O
_symmetry_space_group_name_H-M   'P 1'
_cell_length_a   9.51373045
_cell_length_b   9.76456691
_cell_length_c   10.63152042
_cell_angle_alpha   72.26434652
_cell_angle_beta   85.92338400
_cell_angle_gamma   64.76335595
_symmetry_Int_Tables_number   1
_chemical_formula_structural   HgH11C13N2Cl2O
_chemical_formula_sum   'Hg2 H22 C26 N4 Cl4 O2'
_cell_volume   848.93183065
_cell_formula_units_Z   2
loop_
 _symmetry_equiv_pos_site_id
 _symmetry_equiv_pos_as_xyz
  1  'x, y, z'
loop_
 _atom_site_type_symbol
 _atom_site_label
 _atom_site_symmetry_multiplicity
 _atom_site_fract_x
 _atom_site_fract_y
 _atom_site_fract_z
 _atom_site_occupancy
 _atom_site_hle17_bader_spin_density
 _atom_site_hle17_ddec_charge
 _atom_site_hle17_ddec_spin_density
 _atom_site_hle17_ddec_sum_bond_order
 _atom_site_hle17_magmom
 _atom_site_hse06_10hf_bader_spin_density
 _atom_site_hse06_10hf_ddec_charge
 _atom_site_hse06_10hf_ddec_spin_density
 _atom_site_hse06_10hf_ddec_sum_bond_order
 _atom_site_hse06_10hf_magmom
 _atom_site_hse06_bader_spin_density
 _atom_site_hse06_ddec_charge
 _atom_site_hse06_ddec_spin_density
 _atom_site_hse06_ddec_sum_bond_order
 _atom_site_hse06_magmom
 _atom_site_pbe_bader_spin_density
 _atom_site_pbe_cm5_charge
 _atom_site_pbe_ddec_charge
 _atom_site_pbe_ddec_spin_density
 _atom_site_pbe_ddec_sum_bond_order
 _atom_site_pbe_magmom
Hg  Hg0  1  0.82616900  0.57064267  0.62457203  1  0  0.77628  0  2.056501  0  0  0.626539  0  2.549558  0  0  0.676322  0  2.510248  0  0  0.50942  0.592424  0  2.576068  0
Hg  Hg1  1  0.17382689  0.42936111  0.37543717  1  0  0.776246  0  2.056559  0  0  0.626501  0  2.549626  0  0  0.676283  0  2.510315  0  0  0.509416  0.592388  0  2.57614  0
H  H2  1  0.54717918  0.45069157  0.25514415  1  0  0.126024  0  0.930278  0  0  0.135513  0  0.986782  0  0  0.138872  0  0.986227  0  0  0.116246  0.133083  0  0.987387  0
H  H3  1  0.45282333  0.54930745  0.74485194  1  0  0.12606  0  0.930317  0  0  0.135578  0  0.986781  0  0  0.138938  0  0.986223  0  0  0.116224  0.133147  0  0.987385  0
H  H4  1  0.74935944  0.40621840  0.42230085  1  0  0.071975  0  0.97611  0  0  0.076318  0  1.050623  0  0  0.078383  0  1.049445  0  0  0.104882  0.074824  0  1.051501  0
H  H5  1  0.25063726  0.59377685  0.57770222  1  0  0.071964  0  0.976079  0  0  0.076298  0  1.050627  0  0  0.07837  0  1.049444  0  0  0.104862  0.074803  0  1.051505  0
H  H6  1  0.49971300  0.85494441  0.46169451  1  0  0.077853  0  0.958047  0  0  0.081193  0  1.032712  0  0  0.083821  0  1.03035  0  0  0.104468  0.079304  0  1.034406  0
H  H7  1  0.50028264  0.14504601  0.53831279  1  0  0.077866  0  0.958062  0  0  0.081208  0  1.032744  0  0  0.083852  0  1.030365  0  0  0.104424  0.079304  0  1.034453  0
H  H8  1  0.29000631  0.92059637  0.29828716  1  0  0.103717  0  0.975474  0  0  0.111199  0  1.043212  0  0  0.114345  0  1.042005  0  0  0.101958  0.108849  0  1.04448  0
H  H9  1  0.70999504  0.07939786  0.70171692  1  0  0.103706  0  0.975501  0  0  0.111177  0  1.043255  0  0  0.114323  0  1.042046  0  0  0.101953  0.108826  0  1.044522  0
H  H10  1  0.99901645  0.83509948  0.05388895  1  0  0.070113  0  0.896184  0  0  0.081272  0  0.956732  0  0  0.082309  0  0.955386  0  0  0.116708  0.080181  0  0.958112  0
H  H11  1  0.00098710  0.16489958  0.94610708  1  0  0.070116  0  0.896121  0  0  0.081274  0  0.956681  0  0  0.08231  0  0.955335  0  0  0.116711  0.080183  0  0.958059  0
H  H12  1  0.29061174  0.96882153  0.86676155  1  0  0.086999  0  0.944185  0  0  0.098732  0  1.001545  0  0  0.102039  0  0.999876  0  0  0.096236  0.096281  0  1.003111  0
H  H13  1  0.70938917  0.03118827  0.13322972  1  0  0.08696  0  0.944254  0  0  0.098695  0  1.001613  0  0  0.101999  0  0.999947  0  0  0.0962  0.096236  0  1.003194  0
H  H14  1  0.35391393  0.95958559  0.63890651  1  0  0.079501  0  0.977721  0  0  0.085659  0  1.049254  0  0  0.088183  0  1.048027  0  0  0.086759  0.083861  0  1.050203  0
H  H15  1  0.64608227  0.04042286  0.36108725  1  0  0.079474  0  0.977706  0  0  0.085694  0  1.049182  0  0  0.088218  0  1.047957  0  0  0.086769  0.083897  0  1.050131  0
H  H16  1  0.20291119  0.88196142  0.51352811  1  0  0.078387  0  0.979535  0  0  0.088821  0  1.04545  0  0  0.090657  0  1.046003  0  0  0.091486  0.087697  0  1.044743  0
H  H17  1  0.79708445  0.11805063  0.48646467  1  0  0.078385  0  0.979484  0  0  0.088824  0  1.045409  0  0  0.090659  0  1.045961  0  0  0.091518  0.087699  0  1.044706  0
H  H18  1  0.99869551  0.80106552  0.62154573  1  0  0.075779  0  0.995888  0  0  0.080944  0  1.071062  0  0  0.083379  0  1.070015  0  0  0.081774  0.079348  0  1.071419  0
H  H19  1  0.00130117  0.19894417  0.37844860  1  0  0.075867  0  0.995743  0  0  0.080942  0  1.070987  0  0  0.083372  0  1.069949  0  0  0.081796  0.079349  0  1.071344  0
H  H20  1  0.94226686  0.79957391  0.85255077  1  0  0.08355  0  0.961512  0  0  0.093592  0  1.024171  0  0  0.096905  0  1.021875  0  0  0.091791  0.091268  0  1.025743  0
H  H21  1  0.05773916  0.20042891  0.14744786  1  0  0.083541  0  0.961636  0  0  0.093567  0  1.024298  0  0  0.09688  0  1.022005  0  0  0.091818  0.091248  0  1.025863  0
H  H22  1  0.20432262  0.95591683  0.11772229  1  0  0.281189  0  0.909996  0  0  0.268545  0  0.969624  0  0  0.274842  0  0.965544  0  0  0.314138  0.264029  0  0.972635  0
H  H23  1  0.79568934  0.04407768  0.88227180  1  0  0.281156  0  0.910019  0  0  0.268566  0  0.9696  0  0  0.274864  0  0.965519  0  0  0.314152  0.264053  0  0.97261  0
C  C24  1  0.53391513  0.54345591  0.29792980  1  0  -0.109466  0  3.673903  0  0  -0.129086  0  3.912867  0  0  -0.134399  0  3.933606  0  0  -0.070339  -0.125378  0  3.89883  0
C  C25  1  0.46608720  0.45653839  0.70207703  1  0  -0.109507  0  3.673884  0  0  -0.129194  0  3.912784  0  0  -0.134507  0  3.933522  0  0  -0.070297  -0.125477  0  3.898749  0
C  C26  1  0.64546062  0.51829972  0.39066804  1  0  0.125158  0  3.709426  0  0  0.097002  0  3.960943  0  0  0.10289  0  3.98065  0  0  0.04563  0.093132  0  3.947371  0
C  C27  1  0.35453396  0.48169548  0.60933703  1  0  0.125254  0  3.709063  0  0  0.097062  0  3.960611  0  0  0.102942  0  3.980318  0  0  0.045683  0.093192  0  3.947033  0
C  C28  1  0.50674091  0.76933921  0.41242476  1  0  0.129221  0  3.709272  0  0  0.100709  0  3.961354  0  0  0.106555  0  3.98037  0  0  0.044672  0.096958  0  3.948185  0
C  C29  1  0.49325424  0.23065237  0.58758035  1  0  0.129166  0  3.709332  0  0  0.100626  0  3.961397  0  0  0.106461  0  3.980412  0  0  0.044741  0.096891  0  3.948223  0
C  C30  1  0.39025045  0.80512808  0.31966412  1  0  -0.1368  0  3.707587  0  0  -0.15756  0  3.95179  0  0  -0.162392  0  3.97207  0  0  -0.082987  -0.154618  0  3.938382  0
C  C31  1  0.60975192  0.19486379  0.68034245  1  0  -0.13668  0  3.707449  0  0  -0.157473  0  3.951572  0  0  -0.162303  0  3.971854  0  0  -0.082991  -0.15452  0  3.938162  0
C  C32  1  0.40316788  0.69009107  0.26118907  1  0  -0.002138  0  3.733526  0  0  0.017853  0  3.964416  0  0  0.015789  0  3.9852  0  0  0.005165  0.019169  0  3.950379  0
C  C33  1  0.59683806  0.30989976  0.73882044  1  0  -0.002471  0  3.733764  0  0  0.017719  0  3.964441  0  0  0.015666  0  3.985235  0  0  0.005076  0.019008  0  3.950436  0
C  C34  1  0.28027731  0.71517213  0.16440956  1  0  0.542054  0  3.848849  0  0  0.493207  0  4.138744  0  0  0.522745  0  4.136824  0  0  0.23789  0.47354  0  4.139064  0
C  C35  1  0.71972149  0.28482559  0.83559084  1  0  0.54238  0  3.848645  0  0  0.493385  0  4.138681  0  0  0.522883  0  4.136821  0  0  0.237924  0.47373  0  4.139002  0
C  C36  1  0.05804496  0.91197676  0.00730422  1  0  0.101642  0  3.606365  0  0  0.071445  0  3.85028  0  0  0.076422  0  3.862647  0  0  0.028533  0.068221  0  3.841466  0
C  C37  1  0.94195071  0.08802806  0.99269246  1  0  0.101721  0  3.606513  0  0  0.071504  0  3.850521  0  0  0.076482  0  3.862889  0  0  0.028539  0.068282  0  3.84171  0
C  C38  1  0.10892034  0.88996014  0.87368859  1  0  0.039157  0  3.740835  0  0  0.057239  0  3.977373  0  0  0.056856  0  4.001683  0  0  -0.017489  0.057563  0  3.960683  0
C  C39  1  0.89108835  0.11004154  0.12630741  1  0  0.039089  0  3.740846  0  0  0.057075  0  3.977522  0  0  0.05669  0  4.001834  0  0  -0.017478  0.057401  0  3.960834  0
C  C40  1  0.22680166  0.93117705  0.81346670  1  0  -0.095359  0  3.735698  0  0  -0.116644  0  3.980296  0  0  -0.119089  0  4.000816  0  0  -0.095514  -0.115749  0  3.96717  0
C  C41  1  0.77319555  0.06883144  0.18652793  1  0  -0.095254  0  3.735618  0  0  -0.116496  0  3.980244  0  0  -0.118939  0  4.000768  0  0  -0.095473  -0.115595  0  3.967128  0
C  C42  1  0.26248743  0.92617917  0.68495941  1  0  -0.058569  0  3.778364  0  0  -0.069492  0  4.024939  0  0  -0.071136  0  4.047167  0  0  -0.096111  -0.068173  0  4.010156  0
C  C43  1  0.73751140  0.07383056  0.31503199  1  0  -0.058546  0  3.778551  0  0  -0.069537  0  4.025158  0  0  -0.071181  0  4.047388  0  0  -0.096108  -0.068215  0  4.010372  0
C  C44  1  0.17901967  0.88145156  0.61523851  1  0  -0.075045  0  3.771902  0  0  -0.087149  0  4.014151  0  0  -0.090357  0  4.038126  0  0  -0.098081  -0.08547  0  3.997587  0
C  C45  1  0.82097554  0.11855683  0.38475343  1  0  -0.075022  0  3.771902  0  0  -0.087135  0  4.014145  0  0  -0.090341  0  4.038116  0  0  -0.098058  -0.085456  0  3.997581  0
C  C46  1  0.06378048  0.83642401  0.67566969  1  0  -0.072176  0  3.798797  0  0  -0.080655  0  4.04043  0  0  -0.083036  0  4.064232  0  0  -0.10016  -0.078654  0  4.023234  0
C  C47  1  0.93622203  0.16357982  0.32432318  1  0  -0.072301  0  3.798728  0  0  -0.080698  0  4.040373  0  0  -0.083075  0  4.06417  0  0  -0.100268  -0.078699  0  4.023185  0
C  C48  1  0.03023254  0.83877452  0.80512251  1  0  -0.131043  0  3.772281  0  0  -0.149374  0  4.01541  0  0  -0.152856  0  4.037593  0  0  -0.100788  -0.146145  0  3.999261  0
C  C49  1  0.96976732  0.16122804  0.19487367  1  0  -0.131033  0  3.772568  0  0  -0.149306  0  4.015682  0  0  -0.152786  0  4.037864  0  0  -0.100787  -0.146079  0  3.999533  0
N  N50  1  0.18823854  0.86828639  0.09776049  1  0  -0.439796  0  3.344764  0  0  -0.390521  0  3.596217  0  0  -0.412586  0  3.606542  0  0  -0.413542  -0.37557  0  3.5886  0
N  N51  1  0.81177123  0.13170569  0.90224002  1  0  -0.439902  0  3.344677  0  0  -0.390635  0  3.596138  0  0  -0.412685  0  3.606469  0  0  -0.413614  -0.375699  0  3.588533  0
N  N52  1  0.63141848  0.62864818  0.44734949  1  0  -0.305286  0  3.263693  0  0  -0.234125  0  3.526301  0  0  -0.253116  0  3.547511  0  0  -0.311429  -0.22081  0  3.511307  0
N  N53  1  0.36857827  0.37134224  0.55265493  1  0  -0.305211  0  3.26351  0  0  -0.234027  0  3.5261  0  0  -0.253018  0  3.54732  0  0  -0.311423  -0.220712  0  3.511098  0
Cl  Cl54  1  0.99968306  0.31271453  0.61608164  1  0  -0.435187  0  1.073088  0  0  -0.371086  0  1.362801  0  0  -0.39278  0  1.345723  0  0  -0.240946  -0.35623  0  1.374279  0
Cl  Cl55  1  0.00031545  0.68728813  0.38392774  1  0  -0.435189  0  1.073064  0  0  -0.371071  0  1.362767  0  0  -0.392764  0  1.345691  0  0  -0.240946  -0.356213  0  1.374244  0
Cl  Cl56  1  0.69580794  0.80892013  0.68031744  1  0  -0.445812  0  0.9898  0  0  -0.382315  0  1.255821  0  0  -0.400718  0  1.236396  0  0  -0.248273  -0.369801  0  1.269101  0
Cl  Cl57  1  0.30419215  0.19108377  0.31968964  1  0  -0.445797  0  0.989802  0  0  -0.382313  0  1.255826  0  0  -0.400707  0  1.236384  0  0  -0.248271  -0.369802  0  1.269117  0
O  O58  1  0.26519145  0.60121723  0.14819111  1  0  -0.541949  0  1.931446  0  0  -0.497772  0  2.152377  0  0  -0.518858  0  2.144077  0  0  -0.302102  -0.483135  0  2.157414  0
O  O59  1  0.73480013  0.39877540  0.85181105  1  0  -0.542012  0  1.931473  0  0  -0.49781  0  2.152471  0  0  -0.518878  0  2.144191  0  0  -0.30209  -0.483173  0  2.157504  0
