# generated using pymatgen
data_ZnPH5C3NO3
_symmetry_space_group_name_H-M   'P 1'
_cell_length_a   7.95858357
_cell_length_b   8.09188246
_cell_length_c   18.83000000
_cell_angle_alpha   90.00000000
_cell_angle_beta   90.00000000
_cell_angle_gamma   90.00000000
_symmetry_Int_Tables_number   1
_chemical_formula_structural   ZnPH5C3NO3
_chemical_formula_sum   'Zn8 P8 H40 C24 N8 O24'
_cell_volume   1212.65054656
_cell_formula_units_Z   8
loop_
 _symmetry_equiv_pos_site_id
 _symmetry_equiv_pos_as_xyz
  1  'x, y, z'
loop_
 _atom_site_type_symbol
 _atom_site_label
 _atom_site_symmetry_multiplicity
 _atom_site_fract_x
 _atom_site_fract_y
 _atom_site_fract_z
 _atom_site_occupancy
 _atom_site_hle17_bader_spin_density
 _atom_site_hle17_ddec_charge
 _atom_site_hle17_ddec_spin_density
 _atom_site_hle17_ddec_sum_bond_order
 _atom_site_hle17_magmom
 _atom_site_hse06_10hf_bader_spin_density
 _atom_site_hse06_10hf_ddec_charge
 _atom_site_hse06_10hf_ddec_spin_density
 _atom_site_hse06_10hf_ddec_sum_bond_order
 _atom_site_hse06_10hf_magmom
 _atom_site_hse06_bader_spin_density
 _atom_site_hse06_ddec_charge
 _atom_site_hse06_ddec_spin_density
 _atom_site_hse06_ddec_sum_bond_order
 _atom_site_hse06_magmom
 _atom_site_pbe_bader_charge
 _atom_site_pbe_bader_spin_density
 _atom_site_pbe_cm5_charge
 _atom_site_pbe_ddec_charge
 _atom_site_pbe_ddec_spin_density
 _atom_site_pbe_ddec_sum_bond_order
 _atom_site_pbe_magmom
Zn  Zn0  1  0.15443452  0.41680289  0.20195805  1  0  1.175883  0  1.771638  0  0  1.00412  0  2.243153  0  0  1.045183  0  2.185892  0  1.298081  0  0.72001  0.975396  0  2.282669  0
Zn  Zn1  1  0.65443303  0.41680165  0.29803983  1  0  1.176011  0  1.771634  0  0  1.004227  0  2.243175  0  0  1.045305  0  2.185905  0  1.298044  0  0.72006  0.975503  0  2.282695  0
Zn  Zn2  1  0.15443326  0.08319572  0.70195964  1  0  1.175948  0  1.771661  0  0  1.004162  0  2.243188  0  0  1.045256  0  2.185928  0  1.298235  0  0.72002  0.975449  0  2.282703  0
Zn  Zn3  1  0.34556652  0.91680274  0.20195911  1  0  1.175911  0  1.771619  0  0  1.004167  0  2.243167  0  0  1.04524  0  2.185885  0  1.298218  0  0.720032  0.975447  0  2.282685  0
Zn  Zn4  1  0.84556755  0.58319928  0.79804089  1  0  1.175911  0  1.771721  0  0  1.00416  0  2.243218  0  0  1.045221  0  2.185983  0  1.298231  0  0.720026  0.975437  0  2.282733  0
Zn  Zn5  1  0.34556526  0.58319804  0.70196017  1  0  1.175953  0  1.77161  0  0  1.004206  0  2.243132  0  0  1.04527  0  2.185874  0  1.29822  0  0.720046  0.975487  0  2.282646  0
Zn  Zn6  1  0.84556504  0.91680397  0.29804089  1  0  1.175922  0  1.771629  0  0  1.004168  0  2.243149  0  0  1.045241  0  2.185894  0  1.298062  0  0.720018  0.97545  0  2.282669  0
Zn  Zn7  1  0.65443555  0.08319696  0.79804195  1  0  1.175917  0  1.771619  0  0  1.004174  0  2.243126  0  0  1.045237  0  2.185877  0  1.298069  0  0.720017  0.97546  0  2.282641  0
P  P8  1  0.99373210  0.04157376  0.16086830  1  0  1.424232  0  4.956945  0  0  1.235697  0  5.455103  0  0  1.286294  0  5.418411  0  3.3606  0  0.280816  1.200627  0  5.479862  0
P  P9  1  0.49373233  0.04157129  0.33913277  1  0  1.42435  0  4.956683  0  0  1.235821  0  5.454835  0  0  1.286414  0  5.418151  0  3.360619  0  0.280836  1.200749  0  5.479598  0
P  P10  1  0.99373085  0.45842609  0.66086830  1  0  1.424266  0  4.95687  0  0  1.235719  0  5.45505  0  0  1.286316  0  5.418357  0  3.360614  0  0.280799  1.20065  0  5.479806  0
P  P11  1  0.50626722  0.54157237  0.16086670  1  0  1.424337  0  4.956781  0  0  1.23578  0  5.454954  0  0  1.286385  0  5.418268  0  3.360651  0  0.280843  1.200706  0  5.479714  0
P  P12  1  0.00627122  0.95842964  0.83913383  1  0  1.424192  0  4.956837  0  0  1.235605  0  5.455042  0  0  1.286216  0  5.418343  0  3.360247  0  0.280732  1.200536  0  5.4798  0
P  P13  1  0.50626722  0.95842841  0.66086830  1  0  1.424389  0  4.956841  0  0  1.235847  0  5.455001  0  0  1.286446  0  5.41831  0  3.360673  0  0.280862  1.20077  0  5.479756  0
P  P14  1  0.00626996  0.54157114  0.33912905  1  0  1.424199  0  4.956972  0  0  1.235668  0  5.455154  0  0  1.286255  0  5.41846  0  3.360645  0  0.280816  1.2006  0  5.479906  0
P  P15  1  0.49373484  0.45842979  0.83913330  1  0  1.424338  0  4.956847  0  0  1.235782  0  5.455028  0  0  1.286388  0  5.418337  0  3.360697  0  0.280796  1.200704  0  5.479787  0
H  H16  1  0.94656793  0.08135561  0.09080351  1  0  -0.146536  0  0.895599  0  0  -0.111256  0  0.97656  0  0  -0.116359  0  0.974059  0  -0.442421  0  0.090029  -0.107833  0  0.978402  0
H  H17  1  0.44656564  0.08135190  0.40919703  1  0  -0.146558  0  0.895594  0  0  -0.111269  0  0.976541  0  0  -0.116375  0  0.974044  0  -0.442419  0  0.090054  -0.107845  0  0.978383  0
H  H18  1  0.94656668  0.41864424  0.59080351  1  0  -0.146567  0  0.895602  0  0  -0.111279  0  0.976555  0  0  -0.116383  0  0.974056  0  -0.442426  0  0.090029  -0.107854  0  0.978396  0
H  H19  1  0.55343391  0.58135422  0.09080297  1  0  -0.146585  0  0.89566  0  0  -0.111281  0  0.976578  0  0  -0.116388  0  0.974083  0  -0.442432  0  0.090036  -0.107856  0  0.978419  0
H  H20  1  0.05343539  0.91864903  0.90919809  1  0  -0.146536  0  0.895639  0  0  -0.111229  0  0.976558  0  0  -0.116333  0  0.974058  0  -0.442325  0  0.090083  -0.107803  0  0.978398  0
H  H21  1  0.55343391  0.91864656  0.59080404  1  0  -0.146593  0  0.895655  0  0  -0.111299  0  0.976601  0  0  -0.116407  0  0.974105  0  -0.442432  0  0.090013  -0.107874  0  0.978443  0
H  H22  1  0.05342911  0.58134927  0.40919543  1  0  -0.146508  0  0.895537  0  0  -0.111232  0  0.9765  0  0  -0.116335  0  0.974  0  -0.442419  0  0.090011  -0.107816  0  0.978342  0
H  H23  1  0.44656941  0.41865166  0.90919756  1  0  -0.146565  0  0.895593  0  0  -0.111275  0  0.976543  0  0  -0.116381  0  0.974044  0  -0.442508  0  0.090043  -0.107851  0  0.978386  0
H  H24  1  0.87810851  0.55302954  0.16913330  1  0  0.326474  0  0.922204  0  0  0.310088  0  0.982435  0  0  0.31734  0  0.976948  0  0.511157  0  0.291945  0.30499  0  0.986265  0
H  H25  1  0.37811125  0.55303201  0.33086617  1  0  0.326496  0  0.922206  0  0  0.31015  0  0.98239  0  0  0.317395  0  0.976912  0  0.51115  0  0.291947  0.305053  0  0.98622  0
H  H26  1  0.87811103  0.94697001  0.66913330  1  0  0.326463  0  0.922224  0  0  0.310088  0  0.982445  0  0  0.317336  0  0.976963  0  0.511171  0  0.291957  0.304992  0  0.986273  0
H  H27  1  0.62188956  0.05302969  0.16913277  1  0  0.326483  0  0.922191  0  0  0.310114  0  0.982403  0  0  0.317362  0  0.976922  0  0.511172  0  0.291959  0.305018  0  0.986232  0
H  H28  1  0.12189104  0.44696769  0.83086670  1  0  0.326506  0  0.922139  0  0  0.310123  0  0.982377  0  0  0.317375  0  0.97689  0  0.511146  0  0.291947  0.305024  0  0.986206  0
H  H29  1  0.62188830  0.44696892  0.66913330  1  0  0.326502  0  0.922178  0  0  0.310139  0  0.982389  0  0  0.317387  0  0.976906  0  0.511177  0  0.291975  0.305043  0  0.986214  0
H  H30  1  0.12188978  0.05302722  0.33086723  1  0  0.32647  0  0.922201  0  0  0.310102  0  0.982412  0  0  0.317349  0  0.97693  0  0.511166  0  0.291958  0.305005  0  0.986241  0
H  H31  1  0.37811125  0.94697124  0.83086723  1  0  0.326497  0  0.922211  0  0  0.310118  0  0.982434  0  0  0.317369  0  0.976949  0  0.511175  0  0.29197  0.305022  0  0.986261  0
H  H32  1  0.03505146  0.69079600  0.15722623  1  0  0.328553  0  0.918705  0  0  0.311647  0  0.979039  0  0  0.318918  0  0.973672  0  0.504016  0  0.293513  0.306482  0  0.982859  0
H  H33  1  0.53505752  0.69079476  0.34277323  1  0  0.328535  0  0.918739  0  0  0.311638  0  0.979059  0  0  0.31891  0  0.973691  0  0.503925  0  0.293489  0.306473  0  0.982883  0
H  H34  1  0.03505398  0.80920478  0.65722570  1  0  0.328526  0  0.918771  0  0  0.31163  0  0.979088  0  0  0.318903  0  0.973717  0  0.504016  0  0.293506  0.306467  0  0.982907  0
H  H35  1  0.46494706  0.19079368  0.15722570  1  0  0.328527  0  0.918771  0  0  0.311636  0  0.979084  0  0  0.318909  0  0.973715  0  0.504022  0  0.293512  0.306472  0  0.982903  0
H  H36  1  0.96494557  0.30920370  0.84277323  1  0  0.328532  0  0.918729  0  0  0.311637  0  0.979047  0  0  0.318911  0  0.973676  0  0.504006  0  0.293507  0.306467  0  0.982878  0
H  H37  1  0.46494580  0.30920246  0.65722730  1  0  0.328565  0  0.918681  0  0  0.311678  0  0.978988  0  0  0.318951  0  0.973621  0  0.503918  0  0.293504  0.306507  0  0.982823  0
H  H38  1  0.96494683  0.19079368  0.34277377  1  0  0.328534  0  0.918669  0  0  0.311633  0  0.978993  0  0  0.318906  0  0.973622  0  0.503959  0  0.293495  0.306465  0  0.982825  0
H  H39  1  0.53505501  0.80920726  0.84277430  1  0  0.328579  0  0.918723  0  0  0.311678  0  0.979044  0  0  0.318952  0  0.973672  0  0.503953  0  0.293523  0.306514  0  0.982862  0
H  H40  1  0.79928042  0.35410055  0.07921296  1  0  0.107185  0  0.954653  0  0  0.117707  0  1.014829  0  0  0.120757  0  1.013627  0  0.05442  0  0.103328  0.115464  0  1.015855  0
H  H41  1  0.29928064  0.35410302  0.42078598  1  0  0.107193  0  0.954642  0  0  0.117722  0  1.014806  0  0  0.120771  0  1.013609  0  0.054421  0  0.103329  0.115479  0  1.015833  0
H  H42  1  0.79928042  0.14589683  0.57921349  1  0  0.10719  0  0.954656  0  0  0.117715  0  1.014824  0  0  0.120765  0  1.013625  0  0.05442  0  0.103332  0.115472  0  1.015852  0
H  H43  1  0.70072142  0.85410410  0.07921402  1  0  0.107169  0  0.95466  0  0  0.117693  0  1.014832  0  0  0.120744  0  1.013632  0  0.054408  0  0.103323  0.115451  0  1.015858  0
H  H44  1  0.20072039  0.64589421  0.92078545  1  0  0.107165  0  0.954681  0  0  0.117687  0  1.014857  0  0  0.120737  0  1.013655  0  0.054439  0  0.103316  0.115444  0  1.015883  0
H  H45  1  0.70071765  0.64589421  0.57921402  1  0  0.107179  0  0.954682  0  0  0.11771  0  1.014846  0  0  0.12076  0  1.013647  0  0.054415  0  0.103327  0.115467  0  1.015872  0
H  H46  1  0.20072039  0.85410039  0.42078651  1  0  0.107154  0  0.954669  0  0  0.117678  0  1.014838  0  0  0.120728  0  1.013638  0  0.054406  0  0.103315  0.115436  0  1.015862  0
H  H47  1  0.29927939  0.14589807  0.92078651  1  0  0.107151  0  0.954677  0  0  0.11767  0  1.014852  0  0  0.12072  0  1.013652  0  0.054414  0  0.103318  0.115426  0  1.015879  0
H  H48  1  0.19249531  0.71291817  0.04960807  1  0  0.11363  0  0.949622  0  0  0.126373  0  1.004592  0  0  0.129254  0  1.003874  0  0.086468  0  0.105082  0.124267  0  1.005249  0
H  H49  1  0.69250011  0.71291446  0.45039299  1  0  0.11361  0  0.949756  0  0  0.126357  0  1.004709  0  0  0.129239  0  1.00399  0  0.086439  0  0.105086  0.124251  0  1.005368  0
H  H50  1  0.19249908  0.78708138  0.54960913  1  0  0.113654  0  0.949641  0  0  0.126342  0  1.004675  0  0  0.12922  0  1.003966  0  0.086413  0  0.105103  0.124236  0  1.005331  0
H  H51  1  0.30750070  0.21291708  0.04960913  1  0  0.113633  0  0.94968  0  0  0.126335  0  1.004699  0  0  0.129216  0  1.003985  0  0.086412  0  0.105094  0.12423  0  1.005356  0
H  H52  1  0.80749922  0.28708647  0.95039193  1  0  0.113621  0  0.94973  0  0  0.126368  0  1.004682  0  0  0.129249  0  1.003965  0  0.086416  0  0.105103  0.124263  0  1.005339  0
H  H53  1  0.30749693  0.28708400  0.54960701  1  0  0.113648  0  0.949641  0  0  0.126333  0  1.004675  0  0  0.129214  0  1.003961  0  0.08643  0  0.105099  0.124229  0  1.005331  0
H  H54  1  0.80750047  0.21291585  0.45039087  1  0  0.113648  0  0.949629  0  0  0.126344  0  1.004654  0  0  0.129224  0  1.003943  0  0.086434  0  0.105111  0.124236  0  1.005314  0
H  H55  1  0.69250011  0.78708385  0.95039140  1  0  0.113645  0  0.94964  0  0  0.126338  0  1.004671  0  0  0.12922  0  1.003957  0  0.086427  0  0.105109  0.124232  0  1.005329  0
C  C56  1  0.99567717  0.53743242  0.07264472  1  0  0.258513  0  3.799869  0  0  0.254993  0  4.045798  0  0  0.260182  0  4.069879  0  0.291899  0  0.071559  0.251271  0  4.029568  0
C  C57  1  0.49567991  0.53743489  0.42735263  1  0  0.258561  0  3.799679  0  0  0.255013  0  4.045676  0  0  0.260202  0  4.06976  0  0.291867  0  0.071599  0.251294  0  4.029448  0
C  C58  1  0.99567843  0.96256341  0.57264578  1  0  0.258406  0  3.799946  0  0  0.254981  0  4.045732  0  0  0.260173  0  4.069812  0  0.291906  0  0.071605  0.251263  0  4.0295  0
C  C59  1  0.50432090  0.03743752  0.07264684  1  0  0.258375  0  3.799919  0  0  0.254915  0  4.04578  0  0  0.260106  0  4.069862  0  0.291856  0  0.071576  0.251196  0  4.029549  0
C  C60  1  0.00431861  0.46256480  0.92735263  1  0  0.258502  0  3.799774  0  0  0.25496  0  4.045761  0  0  0.260152  0  4.069841  0  0.291894  0  0.071601  0.251238  0  4.029527  0
C  C61  1  0.50431964  0.46256357  0.57264737  1  0  0.258518  0  3.799859  0  0  0.254989  0  4.045825  0  0  0.26018  0  4.069909  0  0.29187  0  0.071601  0.25127  0  4.029591  0
C  C62  1  0.00432112  0.03743505  0.42735316  1  0  0.258461  0  3.799785  0  0  0.254949  0  4.045712  0  0  0.260139  0  4.069793  0  0.291867  0  0.071588  0.251228  0  4.029484  0
C  C63  1  0.49567991  0.96256465  0.92735369  1  0  0.258523  0  3.799779  0  0  0.255001  0  4.045707  0  0  0.260191  0  4.06979  0  0.291797  0  0.071598  0.251281  0  4.029478  0
C  C64  1  0.88716666  0.41813138  0.04437387  1  0  -0.167645  0  3.770589  0  0  -0.18562  0  4.024099  0  0  -0.189733  0  4.046093  0  -0.032733  0  -0.102478  -0.182721  0  4.009204  0
C  C65  1  0.38716814  0.41813015  0.45562507  1  0  -0.167639  0  3.770318  0  0  -0.185601  0  4.023817  0  0  -0.189715  0  4.045813  0  -0.032654  0  -0.102504  -0.182703  0  4.008923  0
C  C66  1  0.88716540  0.08186723  0.54437440  1  0  -0.167614  0  3.770434  0  0  -0.185602  0  4.023895  0  0  -0.189714  0  4.045886  0  -0.032746  0  -0.102509  -0.182704  0  4.009001  0
C  C67  1  0.61283518  0.91813247  0.04437440  1  0  -0.167556  0  3.770389  0  0  -0.18553  0  4.023857  0  0  -0.189642  0  4.045849  0  -0.032633  0  -0.102486  -0.182633  0  4.008963  0
C  C68  1  0.11283164  0.58186831  0.95562613  1  0  -0.167558  0  3.77044  0  0  -0.185519  0  4.023957  0  0  -0.189632  0  4.045951  0  -0.032668  0  -0.102467  -0.182622  0  4.009062  0
C  C69  1  0.61283141  0.58186708  0.54437493  1  0  -0.167616  0  3.770453  0  0  -0.185581  0  4.023963  0  0  -0.189694  0  4.045953  0  -0.032625  0  -0.102505  -0.182683  0  4.009069  0
C  C70  1  0.11283415  0.91812999  0.45562613  1  0  -0.167587  0  3.770413  0  0  -0.185542  0  4.023894  0  0  -0.189654  0  4.045887  0  -0.032641  0  -0.102481  -0.182642  0  4.008998  0
C  C71  1  0.38716688  0.08186847  0.95562560  1  0  -0.167561  0  3.770436  0  0  -0.185509  0  4.023923  0  0  -0.189622  0  4.045918  0  -0.032619  0  -0.102468  -0.18261  0  4.009027  0
C  C72  1  0.10873543  0.61913776  0.02784599  1  0  -0.157909  0  3.750506  0  0  -0.175341  0  3.997839  0  0  -0.178638  0  4.018916  0  -0.028234  0  -0.100715  -0.173032  0  3.983582  0
C  C73  1  0.60873897  0.61913900  0.47215348  1  0  -0.157866  0  3.750427  0  0  -0.175299  0  3.997785  0  0  -0.178595  0  4.018863  0  -0.028228  0  -0.100709  -0.172987  0  3.983519  0
C  C74  1  0.10873669  0.88085931  0.52784652  1  0  -0.157882  0  3.750512  0  0  -0.175294  0  3.99784  0  0  -0.178593  0  4.018919  0  -0.028203  0  -0.100743  -0.172981  0  3.98357  0
C  C75  1  0.39126309  0.11914039  0.02784705  1  0  -0.157878  0  3.750555  0  0  -0.175294  0  3.997893  0  0  -0.178593  0  4.018971  0  -0.028203  0  -0.100735  -0.172982  0  3.983624  0
C  C76  1  0.89125784  0.38085946  0.97215295  1  0  -0.157888  0  3.750537  0  0  -0.175312  0  3.997885  0  0  -0.178609  0  4.018961  0  -0.02824  0  -0.10077  -0.173  0  3.983621  0
C  C77  1  0.39126058  0.38085946  0.52784652  1  0  -0.157915  0  3.750337  0  0  -0.175298  0  3.997711  0  0  -0.178595  0  4.018787  0  -0.028208  0  -0.100736  -0.172985  0  3.983444  0
C  C78  1  0.89126287  0.11913791  0.47215348  1  0  -0.157879  0  3.750445  0  0  -0.175278  0  3.997818  0  0  -0.178577  0  4.018897  0  -0.028186  0  -0.100752  -0.172969  0  3.98356  0
C  C79  1  0.60873772  0.88086178  0.97215348  1  0  -0.157919  0  3.750431  0  0  -0.17531  0  3.997799  0  0  -0.178609  0  4.018876  0  -0.02819  0  -0.100757  -0.173  0  3.983539  0
N  N80  1  0.99644364  0.57064348  0.14748858  1  0  -0.705679  0  3.165996  0  0  -0.640648  0  3.418376  0  0  -0.661527  0  3.411862  0  -1.257673  0  -0.610454  -0.625991  0  3.422658  0
N  N81  1  0.49644764  0.57064348  0.35251142  1  0  -0.705757  0  3.166145  0  0  -0.640729  0  3.418473  0  0  -0.661612  0  3.411966  0  -1.257624  0  -0.610462  -0.626084  0  3.422765  0
N  N82  1  0.99644364  0.92935606  0.64748805  1  0  -0.705621  0  3.166159  0  0  -0.640674  0  3.418607  0  0  -0.66156  0  3.412101  0  -1.257714  0  -0.610473  -0.626024  0  3.422891  0
N  N83  1  0.50355568  0.07064364  0.14748805  1  0  -0.705604  0  3.166099  0  0  -0.640669  0  3.418576  0  0  -0.661553  0  3.41207  0  -1.257751  0  -0.610471  -0.626014  0  3.422858  0
N  N84  1  0.00355340  0.42935498  0.85251142  1  0  -0.705696  0  3.166096  0  0  -0.64069  0  3.418529  0  0  -0.661571  0  3.412014  0  -1.257714  0  -0.610466  -0.626029  0  3.422804  0
N  N85  1  0.50355443  0.42935621  0.64748858  1  0  -0.705735  0  3.16604  0  0  -0.640748  0  3.418465  0  0  -0.661631  0  3.411954  0  -1.257652  0  -0.610499  -0.626095  0  3.422742  0
N  N86  1  0.00355717  0.07064240  0.35251248  1  0  -0.705612  0  3.165989  0  0  -0.640639  0  3.418467  0  0  -0.661521  0  3.411958  0  -1.257666  0  -0.610444  -0.62599  0  3.422754  0
N  N87  1  0.49644387  0.92935730  0.85251248  1  0  -0.705745  0  3.166087  0  0  -0.640766  0  3.418554  0  0  -0.661648  0  3.412041  0  -1.257666  0  -0.610505  -0.626115  0  3.42284  0
O  O88  1  0.06417599  0.19388566  0.19761816  1  0  -0.861445  0  2.092271  0  0  -0.76126  0  2.409223  0  0  -0.788545  0  2.381331  0  -1.469659  0  -0.388491  -0.741962  0  2.427749  0
O  O89  1  0.56417954  0.19388319  0.30238343  1  0  -0.861529  0  2.092144  0  0  -0.761374  0  2.40918  0  0  -0.788624  0  2.381209  0  -1.469657  0  -0.388518  -0.742075  0  2.427707  0
O  O90  1  0.06417474  0.30611418  0.69761763  1  0  -0.861466  0  2.092284  0  0  -0.761279  0  2.409256  0  0  -0.788558  0  2.381339  0  -1.46963  0  -0.388481  -0.741976  0  2.427778  0
O  O91  1  0.43581876  0.69388304  0.19761657  1  0  -0.861494  0  2.092123  0  0  -0.76135  0  2.409161  0  0  -0.788611  0  2.381215  0  -1.469662  0  -0.388525  -0.742049  0  2.427686  0
O  O92  1  0.93582733  0.80611774  0.80238449  1  0  -0.861429  0  2.092095  0  0  -0.761259  0  2.409103  0  0  -0.788545  0  2.38121  0  -1.469595  0  -0.38848  -0.741959  0  2.427627  0
O  O93  1  0.43581876  0.80611650  0.69761710  1  0  -0.861489  0  2.092195  0  0  -0.761347  0  2.409237  0  0  -0.788601  0  2.381275  0  -1.469673  0  -0.388512  -0.742045  0  2.427764  0
O  O94  1  0.93581979  0.69388551  0.30238343  1  0  -0.861463  0  2.092273  0  0  -0.761301  0  2.409264  0  0  -0.78858  0  2.381361  0  -1.469661  0  -0.38851  -0.742006  0  2.427791  0
O  O95  1  0.56418331  0.30611789  0.80238662  1  0  -0.861438  0  2.092042  0  0  -0.761334  0  2.409142  0  0  -0.788581  0  2.381174  0  -1.46961  0  -0.388498  -0.742032  0  2.427667  0
O  O96  1  0.12603625  0.90216585  0.15556081  1  0  -0.85463  0  2.076753  0  0  -0.750419  0  2.370094  0  0  -0.778827  0  2.345821  0  -1.438149  0  -0.378042  -0.730399  0  2.386223  0
O  O97  1  0.62603602  0.90216338  0.34444025  1  0  -0.854668  0  2.076736  0  0  -0.75046  0  2.370073  0  0  -0.778872  0  2.345803  0  -1.438037  0  -0.378057  -0.730438  0  2.386205  0
O  O98  1  0.12603625  0.59783370  0.65556028  1  0  -0.854626  0  2.076697  0  0  -0.750423  0  2.370053  0  0  -0.778816  0  2.345764  0  -1.438173  0  -0.378039  -0.730415  0  2.386206  0
O  O99  1  0.37396353  0.40216353  0.15555921  1  0  -0.854611  0  2.076704  0  0  -0.750408  0  2.370061  0  0  -0.778811  0  2.345781  0  -1.438066  0  -0.378048  -0.730389  0  2.386203  0
O  O100  1  0.87396456  0.09783632  0.84444079  1  0  -0.854619  0  2.076697  0  0  -0.750397  0  2.370046  0  0  -0.778801  0  2.345764  0  -1.438059  0  -0.378058  -0.730381  0  2.386188  0
O  O101  1  0.37396227  0.09783756  0.65555975  1  0  -0.854713  0  2.076733  0  0  -0.750484  0  2.370057  0  0  -0.778905  0  2.345791  0  -1.438196  0  -0.37804  -0.730471  0  2.386225  0
O  O102  1  0.87397210  0.40215858  0.34443123  1  0  -0.854689  0  2.07689  0  0  -0.750453  0  2.370205  0  0  -0.778863  0  2.345936  0  -1.437954  0  -0.378001  -0.730404  0  2.386284  0
O  O103  1  0.62603602  0.59784111  0.84443813  1  0  -0.854691  0  2.076886  0  0  -0.750459  0  2.370224  0  0  -0.778874  0  2.345952  0  -1.438226  0  -0.378026  -0.730431  0  2.38636  0
O  O104  1  0.83136904  0.97699640  0.19652310  1  0  -0.840696  0  2.037541  0  0  -0.736136  0  2.322715  0  0  -0.764373  0  2.298592  0  -1.437885  0  -0.376122  -0.716619  0  2.339148  0
O  O105  1  0.33136801  0.97699516  0.30347690  1  0  -0.840669  0  2.037415  0  0  -0.736137  0  2.322626  0  0  -0.764364  0  2.298488  0  -1.43788  0  -0.37612  -0.716624  0  2.339064  0
O  O106  1  0.83136779  0.52300438  0.69652310  1  0  -0.840682  0  2.037494  0  0  -0.73613  0  2.322689  0  0  -0.764364  0  2.298559  0  -1.437894  0  -0.37612  -0.716614  0  2.339123  0
O  O107  1  0.66863028  0.47699655  0.19652257  1  0  -0.840711  0  2.037486  0  0  -0.736118  0  2.322648  0  0  -0.76438  0  2.298536  0  -1.437875  0  -0.37611  -0.716602  0  2.339084  0
O  O108  1  0.16863177  0.02300824  0.80347796  1  0  -0.840667  0  2.037519  0  0  -0.736056  0  2.322662  0  0  -0.764324  0  2.298554  0  -1.437675  0  -0.37609  -0.71655  0  2.339106  0
O  O109  1  0.66863028  0.02300577  0.69652416  1  0  -0.840684  0  2.037475  0  0  -0.736121  0  2.322635  0  0  -0.764345  0  2.298491  0  -1.437897  0  -0.376115  -0.716603  0  2.33907  0
O  O110  1  0.16863805  0.47700396  0.30347531  1  0  -0.840661  0  2.037628  0  0  -0.736117  0  2.322776  0  0  -0.764327  0  2.298631  0  -1.437938  0  -0.376132  -0.716594  0  2.339201  0
O  O111  1  0.33137052  0.52300191  0.80347743  1  0  -0.840751  0  2.037551  0  0  -0.736143  0  2.322676  0  0  -0.764395  0  2.298554  0  -1.43786  0  -0.376111  -0.716622  0  2.339107  0
