# generated using pymatgen
data_AlH11(C3O)6
_symmetry_space_group_name_H-M   'P 1'
_cell_length_a   6.65958720
_cell_length_b   24.59256241
_cell_length_c   27.43639018
_cell_angle_alpha   95.63564438
_cell_angle_beta   89.99983319
_cell_angle_gamma   90.00020523
_symmetry_Int_Tables_number   1
_chemical_formula_structural   AlH11(C3O)6
_chemical_formula_sum   'Al4 H44 C72 O24'
_cell_volume   4471.71184630
_cell_formula_units_Z   4
loop_
 _symmetry_equiv_pos_site_id
 _symmetry_equiv_pos_as_xyz
  1  'x, y, z'
loop_
 _atom_site_type_symbol
 _atom_site_label
 _atom_site_symmetry_multiplicity
 _atom_site_fract_x
 _atom_site_fract_y
 _atom_site_fract_z
 _atom_site_occupancy
 _atom_site_pbe_bader_charge
 _atom_site_pbe_bader_spin_density
 _atom_site_pbe_cm5_charge
 _atom_site_pbe_ddec_charge
 _atom_site_pbe_ddec_spin_density
 _atom_site_pbe_ddec_sum_bond_order
 _atom_site_pbe_magmom
Al  Al0  1  0.20002154  0.24975419  0.24903941  1  2.504505  0  0.399105  1.644294  0  2.583459  0
Al  Al1  1  0.79997789  0.75024656  0.75096076  1  2.504499  0  0.399094  1.64429  0  2.583449  0
Al  Al2  1  0.70002249  0.25024604  0.25096128  1  2.504499  0  0.399111  1.644306  0  2.583464  0
Al  Al3  1  0.29997844  0.74975394  0.74903926  1  2.504498  0  0.39908  1.644307  0  2.583443  0
H  H4  1  0.74186786  0.63123834  0.83918415  1  0.106894  0  0.108985  0.111226  0  1.016971  0
H  H5  1  0.25812706  0.36876148  0.16081493  1  0.106963  0  0.108999  0.111267  0  1.017009  0
H  H6  1  0.24187105  0.86875914  0.66081480  1  0.106831  0  0.109012  0.111271  0  1.01695  0
H  H7  1  0.75813288  0.13124080  0.33918537  1  0.107017  0  0.108991  0.111262  0  1.016949  0
H  H8  1  0.71500202  0.56461047  0.90164531  1  0.053595  0  0.09472  0.094017  0  1.030256  0
H  H9  1  0.28499591  0.43538984  0.09835449  1  0.053634  0  0.094744  0.094032  0  1.030247  0
H  H10  1  0.21499933  0.93538736  0.59835329  1  0.053662  0  0.094744  0.09404  0  1.030247  0
H  H11  1  0.78500160  0.06461169  0.40164615  1  0.05363  0  0.094729  0.094038  0  1.030238  0
H  H12  1  0.33550700  0.59565205  0.93961254  1  0.062621  0  0.09865  0.104393  0  1.033325  0
H  H13  1  0.66448492  0.40435025  0.06038691  1  0.062774  0  0.098658  0.104402  0  1.033312  0
H  H14  1  0.83551079  0.90435085  0.56038673  1  0.062779  0  0.098682  0.104439  0  1.033349  0
H  H15  1  0.16448563  0.09564719  0.43961087  1  0.062514  0  0.098689  0.104439  0  1.033325  0
H  H16  1  0.31137120  0.50477329  0.95095977  1  0.060609  0  0.100313  0.099187  0  1.007193  0
H  H17  1  0.68862522  0.49522824  0.04904004  1  0.060619  0  0.100291  0.099181  0  1.007145  0
H  H18  1  0.81135681  0.99523387  0.54904538  1  0.060672  0  0.100379  0.099231  0  1.007129  0
H  H19  1  0.18863962  0.00476372  0.45095186  1  0.060566  0  0.100354  0.099287  0  1.007186  0
H  H20  1  0.29165452  0.44086939  0.01430655  1  0.068389  0  0.098419  0.094906  0  1.014876  0
H  H21  1  0.70834190  0.55913213  0.98569326  1  0.068367  0  0.098392  0.094822  0  1.014882  0
H  H22  1  0.79164110  0.05913834  0.48569887  1  0.067998  0  0.098366  0.094848  0  1.014855  0
H  H23  1  0.20835532  0.94085929  0.51429873  1  0.067726  0  0.09837  0.09485  0  1.0148  0
H  H24  1  0.65786984  0.44164907  0.43994167  1  0.077417  0  0.1021  0.101774  0  1.011798  0
H  H25  1  0.34212959  0.55835102  0.56005996  1  0.0775  0  0.102095  0.101798  0  1.011822  0
H  H26  1  0.15787016  0.05835067  0.06005868  1  0.077455  0  0.102095  0.101797  0  1.011804  0
H  H27  1  0.84213677  0.94165025  0.93993930  1  0.077457  0  0.102084  0.101782  0  1.011809  0
H  H28  1  0.64013296  0.36961957  0.36875634  1  0.123863  0  0.10885  0.113537  0  1.006108  0
H  H29  1  0.35986646  0.63038163  0.63124420  1  0.123873  0  0.108797  0.113529  0  1.006088  0
H  H30  1  0.14013337  0.13038065  0.13124475  1  0.12388  0  0.108835  0.113536  0  1.006089  0
H  H31  1  0.85986906  0.86961958  0.86875432  1  0.124035  0  0.108853  0.11357  0  1.006041  0
H  H32  1  0.28304322  0.35997438  0.36528439  1  0.1222  0  0.110807  0.117355  0  1.002468  0
H  H33  1  0.71695921  0.64002674  0.63471542  1  0.122198  0  0.110823  0.117334  0  1.002496  0
H  H34  1  0.78304413  0.14002588  0.13471589  1  0.122173  0  0.110791  0.117325  0  1.002501  0
H  H35  1  0.21696130  0.85997332  0.86528501  1  0.122214  0  0.11082  0.117346  0  1.002467  0
H  H36  1  0.30372021  0.43155897  0.43674364  1  0.077314  0  0.101923  0.102473  0  1.013733  0
H  H37  1  0.69628071  0.56844256  0.56325617  1  0.077328  0  0.101887  0.102439  0  1.013757  0
H  H38  1  0.80372406  0.06844250  0.06325626  1  0.077314  0  0.101915  0.102432  0  1.013688  0
H  H39  1  0.19628438  0.93155781  0.93674355  1  0.077361  0  0.101914  0.102476  0  1.013754  0
H  H40  1  0.49590647  0.65420173  0.89802025  1  0.59155  0  0.329009  0.351598  0  0.898163  0
H  H41  1  0.50408695  0.34580101  0.10197956  1  0.591732  0  0.329049  0.351669  0  0.898184  0
H  H42  1  0.99591199  0.84580171  0.60197892  1  0.591744  0  0.329035  0.351638  0  0.898209  0
H  H43  1  0.00409044  0.15419848  0.39801979  1  0.591721  0  0.32907  0.351697  0  0.898131  0
H  H44  1  0.45214279  0.31795917  0.23759035  1  0.627138  0  0.354909  0.431036  0  0.852253  0
H  H45  1  0.54785814  0.68204114  0.76240946  1  0.627141  0  0.354917  0.43105  0  0.852227  0
H  H46  1  0.95214270  0.18204080  0.26240946  1  0.627122  0  0.35493  0.431063  0  0.852207  0
H  H47  1  0.04785972  0.81796003  0.73759145  1  0.62711  0  0.354898  0.43103  0  0.852218  0
C  C48  1  0.45219479  0.18082572  0.18033621  1  1.574227  0  0.263235  0.632723  0  4.114398  0
C  C49  1  0.54780914  0.81917369  0.81966287  1  1.575242  0  0.263227  0.632771  0  4.11431  0
C  C50  1  0.95219131  0.31917425  0.31966360  1  1.574374  0  0.263229  0.632831  0  4.114267  0
C  C51  1  0.04780661  0.68082642  0.68033584  1  1.574246  0  0.263235  0.632746  0  4.114389  0
C  C52  1  0.44808716  0.18748981  0.31331416  1  1.59269  0  0.269223  0.660462  0  4.087887  0
C  C53  1  0.55192427  0.81250887  0.68668564  1  1.592731  0  0.269167  0.660222  0  4.088226  0
C  C54  1  0.94807770  0.31250934  0.18668564  1  1.592721  0  0.269124  0.660162  0  4.088283  0
C  C55  1  0.05191121  0.68748930  0.81331380  1  1.592699  0  0.269242  0.660483  0  4.087828  0
C  C56  1  0.87064292  0.62285946  0.86174432  1  -0.084107  0  -0.0841  -0.071454  0  4.0267  0
C  C57  1  0.12934900  0.37714048  0.13825585  1  -0.084151  0  -0.084164  -0.07162  0  4.026848  0
C  C58  1  0.37064799  0.87713985  0.63825528  1  -0.083807  0  -0.084163  -0.071612  0  4.02676  0
C  C59  1  0.62935744  0.12286046  0.36174452  1  -0.084225  0  -0.084159  -0.071621  0  4.026697  0
C  C60  1  0.85504390  0.58656953  0.89718596  1  -0.028077  0  -0.112757  -0.186697  0  4.040297  0
C  C61  1  0.14495402  0.41343123  0.10281421  1  -0.028128  0  -0.112728  -0.18663  0  4.040205  0
C  C62  1  0.35504387  0.91342883  0.60281255  1  -0.02844  0  -0.112737  -0.186651  0  4.040223  0
C  C63  1  0.64495555  0.08657017  0.39718652  1  -0.028119  0  -0.11271  -0.186627  0  4.040206  0
C  C64  1  0.02373687  0.57568549  0.92566965  1  -0.058117  0  -0.00302  0.111576  0  4.030269  0
C  C65  1  0.97625955  0.42431644  0.07433016  1  -0.057978  0  -0.003051  0.111597  0  4.030174  0
C  C66  1  0.52373926  0.92431545  0.57432944  1  -0.057491  0  -0.003044  0.111589  0  4.030192  0
C  C67  1  0.47626167  0.07568344  0.42566853  1  -0.058085  0  -0.003007  0.11165  0  4.030233  0
C  C68  1  0.20406810  0.60233171  0.91707982  1  -0.00022  0  -0.113412  -0.293206  0  3.983367  0
C  C69  1  0.79592532  0.39766929  0.08291889  1  -0.000491  0  -0.113473  -0.293297  0  3.98354  0
C  C70  1  0.70407453  0.89766892  0.58291843  1  -0.000492  0  -0.113483  -0.293283  0  3.983464  0
C  C71  1  0.29592639  0.10232949  0.41707881  1  -0.000138  0  -0.113513  -0.293345  0  3.983498  0
C  C72  1  0.22058310  0.63891621  0.88119363  1  0.466135  0  0.095531  0.320663  0  4.049349  0
C  C73  1  0.77941183  0.36108572  0.11880618  1  0.4662  0  0.095509  0.320605  0  4.049706  0
C  C74  1  0.72058711  0.86108543  0.61880643  1  0.466198  0  0.095463  0.320502  0  4.049683  0
C  C75  1  0.27941382  0.13891439  0.38119264  1  0.466193  0  0.095565  0.320681  0  4.049467  0
C  C76  1  0.05095120  0.64972418  0.85263794  1  0.041821  0  -0.024659  -0.156643  0  3.914969  0
C  C77  1  0.94904372  0.35027605  0.14736113  1  0.04178  0  -0.024603  -0.156481  0  3.915111  0
C  C78  1  0.55095623  0.85027594  0.64736077  1  0.041787  0  -0.024605  -0.156458  0  3.915028  0
C  C79  1  0.44904620  0.14972384  0.35263794  1  0.04178  0  -0.024663  -0.156604  0  3.914953  0
C  C80  1  0.17538966  0.50363463  0.97302349  1  -0.038664  0  -0.091009  -0.123056  0  3.989614  0
C  C81  1  0.82460827  0.49636731  0.02697632  1  -0.038776  0  -0.091052  -0.123194  0  3.989574  0
C  C82  1  0.67538005  0.99636973  0.52697954  1  -0.038912  0  -0.091133  -0.123105  0  3.989662  0
C  C83  1  0.32462088  0.00362656  0.47301696  1  -0.038577  0  -0.091221  -0.123426  0  3.989699  0
C  C84  1  0.16414383  0.46742077  0.00878314  1  -0.088816  0  -0.091017  -0.124891  0  3.994058  0
C  C85  1  0.83585410  0.53258116  0.99121667  1  -0.088777  0  -0.090937  -0.124654  0  3.994061  0
C  C86  1  0.66413750  0.03258336  0.49122015  1  -0.088257  0  -0.090934  -0.124748  0  3.994063  0
C  C87  1  0.33585742  0.96741313  0.50877818  1  -0.08801  0  -0.090843  -0.124572  0  3.993678  0
C  C88  1  0.98838391  0.46292772  0.03651951  1  0.024057  0  -0.00769  0.067169  0  3.99511  0
C  C89  1  0.01161102  0.53707385  0.96348067  1  0.024054  0  -0.00775  0.067077  0  3.995351  0
C  C90  1  0.48838656  0.03707095  0.46347917  1  0.024166  0  -0.007627  0.067163  0  3.995204  0
C  C91  1  0.51161287  0.96292457  0.53651769  1  0.02324  0  -0.007715  0.067031  0  3.995187  0
C  C92  1  0.79419959  0.42349343  0.42355043  1  0.008014  0  -0.084632  -0.130313  0  3.951764  0
C  C93  1  0.20580434  0.57650691  0.57644974  1  0.00786  0  -0.084645  -0.13037  0  3.951662  0
C  C94  1  0.29419695  0.07650713  0.07644874  1  0.007973  0  -0.084607  -0.130309  0  3.951472  0
C  C95  1  0.70580548  0.92349343  0.92354960  1  0.0079  0  -0.084585  -0.130212  0  3.951554  0
C  C96  1  0.78415240  0.38364491  0.38409598  1  -0.098029  0  -0.079948  -0.086869  0  3.985432  0
C  C97  1  0.21584553  0.61635670  0.61590456  1  -0.097995  0  -0.079901  -0.086867  0  3.985368  0
C  C98  1  0.28415581  0.11635666  0.11590503  1  -0.097976  0  -0.079953  -0.086961  0  3.985382  0
C  C99  1  0.71584962  0.88364398  0.88409405  1  -0.098202  0  -0.079962  -0.087033  0  3.985332  0
C  C100  1  0.96065131  0.36086916  0.36296084  1  0.029204  0  -0.014261  -0.042298  0  3.965916  0
C  C101  1  0.03935112  0.63913033  0.63703896  1  0.029165  0  -0.014252  -0.042185  0  3.96593  0
C  C102  1  0.46065026  0.13913041  0.13703896  1  0.029159  0  -0.014212  -0.042024  0  3.965853  0
C  C103  1  0.53935217  0.86086868  0.86296085  1  0.0287  0  -0.014246  -0.042055  0  3.965997  0
C  C104  1  0.14780813  0.37823797  0.38219985  1  -0.040895  0  -0.079058  -0.086433  0  3.97865  0
C  C105  1  0.85219130  0.62176205  0.61780106  1  -0.040863  0  -0.079038  -0.086391  0  3.978595  0
C  C106  1  0.64781051  0.12176266  0.11780125  1  -0.040901  0  -0.079053  -0.086519  0  3.978603  0
C  C107  1  0.35219492  0.87823647  0.88219892  1  -0.040877  0  -0.079069  -0.086524  0  3.978752  0
C  C108  1  0.15889142  0.41788211  0.42170910  1  -0.046666  0  -0.084274  -0.12897  0  3.951074  0
C  C109  1  0.84111101  0.58211668  0.57829180  1  -0.046658  0  -0.084293  -0.128975  0  3.951101  0
C  C110  1  0.65888925  0.08211800  0.07829088  1  -0.046599  0  -0.084231  -0.128856  0  3.950872  0
C  C111  1  0.34111318  0.91788271  0.92170892  1  -0.046576  0  -0.084278  -0.128924  0  3.951051  0
C  C112  1  0.98202805  0.44140352  0.44297606  1  0.019154  0  0.002341  0.144822  0  4.113709  0
C  C113  1  0.01797588  0.55859654  0.55702521  1  0.019461  0  0.002439  0.144888  0  4.113764  0
C  C114  1  0.48202842  0.05859681  0.05702300  1  0.019082  0  0.002335  0.144895  0  4.114071  0
C  C115  1  0.51798002  0.94140415  0.94297534  1  0.019082  0  0.002408  0.144847  0  4.114277  0
C  C116  1  0.99371349  0.48229049  0.48284160  1  -0.347421  0  -0.044262  -0.107005  0  4.12167  0
C  C117  1  0.00628744  0.51770997  0.51715967  1  -0.018885  0  -0.044299  -0.107094  0  4.1218  0
C  C118  1  0.49371079  0.01771262  0.01716441  1  -0.347399  0  -0.044337  -0.107245  0  4.121334  0
C  C119  1  0.50629464  0.98228834  0.98283393  1  -0.018541  0  -0.04429  -0.107045  0  4.121319  0
O  O120  1  0.61964754  0.20258426  0.29883404  1  -1.259589  0  -0.236804  -0.595894  0  2.33987  0
O  O121  1  0.38035640  0.79741835  0.70116833  1  -1.259484  0  -0.236773  -0.595814  0  2.339809  0
O  O122  1  0.11964629  0.29741805  0.20116780  1  -1.259503  0  -0.236773  -0.595791  0  2.339799  0
O  O123  1  0.88035013  0.70258393  0.79883237  1  -1.259617  0  -0.236843  -0.595941  0  2.339794  0
O  O124  1  0.27929970  0.19640728  0.19602858  1  -1.258092  0  -0.238802  -0.592724  0  2.33837  0
O  O125  1  0.72069973  0.80359479  0.80396867  1  -1.258635  0  -0.238807  -0.592749  0  2.338387  0
O  O126  1  0.77930071  0.30359430  0.30396877  1  -1.258225  0  -0.238787  -0.59272  0  2.338349  0
O  O127  1  0.22070172  0.69640785  0.69602921  1  -1.258135  0  -0.238798  -0.592715  0  2.338332  0
O  O128  1  0.28028266  0.20121837  0.29624988  1  -1.251828  0  -0.230248  -0.579049  0  2.357172  0
O  O129  1  0.71972277  0.79877777  0.70374516  1  -1.25198  0  -0.230191  -0.578893  0  2.357561  0
O  O130  1  0.78027882  0.29877724  0.20374490  1  -1.251952  0  -0.230152  -0.578841  0  2.357549  0
O  O131  1  0.21971610  0.70121841  0.79624940  1  -1.251812  0  -0.230267  -0.579091  0  2.357131  0
O  O132  1  0.12040402  0.30322693  0.30135412  1  -1.26439  0  -0.237851  -0.595132  0  2.363594  0
O  O133  1  0.87959540  0.69677312  0.69864715  1  -1.264331  0  -0.237821  -0.59509  0  2.363669  0
O  O134  1  0.62040641  0.19677257  0.19864809  1  -1.26435  0  -0.237855  -0.595107  0  2.363659  0
O  O135  1  0.37959602  0.80322549  0.80135354  1  -1.264412  0  -0.237808  -0.595121  0  2.363637  0
O  O136  1  0.44979098  0.28318901  0.25138919  1  -1.429618  0  -0.448166  -0.990462  0  2.206646  0
O  O137  1  0.55021145  0.71681097  0.74861135  1  -1.429641  0  -0.448175  -0.990455  0  2.206601  0
O  O138  1  0.94979002  0.21681145  0.24861135  1  -1.429616  0  -0.448184  -0.990492  0  2.206644  0
O  O139  1  0.05021091  0.78318930  0.75138882  1  -1.429601  0  -0.448156  -0.990451  0  2.206611  0
O  O140  1  0.39737354  0.66490946  0.87439678  1  -1.101247  0  -0.332133  -0.412187  0  2.306842  0
O  O141  1  0.60261837  0.33509280  0.12560230  1  -1.101477  0  -0.332149  -0.412221  0  2.306994  0
O  O142  1  0.89738164  0.83509341  0.62560171  1  -1.101483  0  -0.332125  -0.412169  0  2.307007  0
O  O143  1  0.10262079  0.16490714  0.37439663  1  -1.101436  0  -0.33222  -0.412308  0  2.306874  0
