# generated using pymatgen
data_SrP2H12(C2O)6
_symmetry_space_group_name_H-M   'P 1'
_cell_length_a   5.77243219
_cell_length_b   7.78383965
_cell_length_c   15.90099983
_cell_angle_alpha   101.36339249
_cell_angle_beta   100.42887034
_cell_angle_gamma   89.98841916
_symmetry_Int_Tables_number   1
_chemical_formula_structural   SrP2H12(C2O)6
_chemical_formula_sum   'Sr2 P4 H24 C24 O12'
_cell_volume   688.41606420
_cell_formula_units_Z   2
loop_
 _symmetry_equiv_pos_site_id
 _symmetry_equiv_pos_as_xyz
  1  'x, y, z'
loop_
 _atom_site_type_symbol
 _atom_site_label
 _atom_site_symmetry_multiplicity
 _atom_site_fract_x
 _atom_site_fract_y
 _atom_site_fract_z
 _atom_site_occupancy
 _atom_site_hle17_bader_spin_density
 _atom_site_hle17_ddec_charge
 _atom_site_hle17_ddec_spin_density
 _atom_site_hle17_ddec_sum_bond_order
 _atom_site_hle17_magmom
 _atom_site_hse06_10hf_bader_spin_density
 _atom_site_hse06_10hf_ddec_charge
 _atom_site_hse06_10hf_ddec_spin_density
 _atom_site_hse06_10hf_ddec_sum_bond_order
 _atom_site_hse06_10hf_magmom
 _atom_site_hse06_bader_spin_density
 _atom_site_hse06_ddec_charge
 _atom_site_hse06_ddec_spin_density
 _atom_site_hse06_ddec_sum_bond_order
 _atom_site_hse06_magmom
 _atom_site_pbe_bader_spin_density
 _atom_site_pbe_cm5_charge
 _atom_site_pbe_ddec_charge
 _atom_site_pbe_ddec_spin_density
 _atom_site_pbe_ddec_sum_bond_order
 _atom_site_pbe_magmom
Sr  Sr0  1  0.89244715  0.24996457  0.99998055  1  0  1.688071  0  1.079876  0  0  1.555642  0  1.44071  0  0  1.588997  0  1.399289  0  0  1.042906  1.531005  0  1.470055  0
Sr  Sr1  1  0.10755062  0.75003878  0.00002059  1  0  1.688117  0  1.079817  0  0  1.555691  0  1.440643  0  0  1.589046  0  1.399222  0  0  1.042942  1.53106  0  1.469994  0
P  P2  1  0.40254028  0.41148083  0.12999191  1  0  1.490387  0  4.849414  0  0  1.330977  0  5.342284  0  0  1.381794  0  5.301275  0  0  0.370717  1.295476  0  5.370152  0
P  P3  1  0.27305122  0.08855615  0.86994550  1  0  1.490376  0  4.849272  0  0  1.330605  0  5.342487  0  0  1.381237  0  5.301994  0  0  0.370709  1.295249  0  5.369983  0
P  P4  1  0.59745736  0.58851991  0.87000772  1  0  1.490401  0  4.849349  0  0  1.331001  0  5.342228  0  0  1.381817  0  5.301211  0  0  0.370723  1.295487  0  5.370114  0
P  P5  1  0.72694817  0.91144457  0.13005550  1  0  1.49035  0  4.849363  0  0  1.330534  0  5.342669  0  0  1.381153  0  5.302205  0  0  0.370688  1.29519  0  5.370156  0
H  H6  1  0.38249894  0.10175511  0.11538424  1  0  0.450714  0  0.851266  0  0  0.415139  0  0.92119  0  0  0.427517  0  0.903478  0  0  0.32164  0.406451  0  0.933587  0
H  H7  1  0.26741313  0.39830778  0.88462617  1  0  0.450334  0  0.851865  0  0  0.415255  0  0.921026  0  0  0.427634  0  0.903306  0  0  0.321616  0.406562  0  0.933433  0
H  H8  1  0.61750045  0.89824563  0.88461613  1  0  0.450703  0  0.851273  0  0  0.415132  0  0.921193  0  0  0.427509  0  0.903481  0  0  0.321632  0.406446  0  0.933586  0
H  H9  1  0.73258450  0.60169296  0.11537346  1  0  0.450325  0  0.851868  0  0  0.415251  0  0.921023  0  0  0.427631  0  0.903302  0  0  0.321609  0.406565  0  0.933419  0
H  H10  1  0.75463588  0.39348566  0.28614440  1  0  0.090939  0  0.969732  0  0  0.099433  0  1.035941  0  0  0.10148  0  1.036526  0  0  0.10051  0.097956  0  1.035544  0
H  H11  1  0.46843844  0.10589252  0.71332333  1  0  0.090445  0  0.970189  0  0  0.099857  0  1.035415  0  0  0.101922  0  1.035982  0  0  0.100547  0.098327  0  1.035155  0
H  H12  1  0.24536541  0.60651771  0.71385447  1  0  0.090945  0  0.969737  0  0  0.099424  0  1.035956  0  0  0.101472  0  1.03654  0  0  0.100499  0.097945  0  1.035565  0
H  H13  1  0.53156597  0.89410296  0.28667748  1  0  0.090492  0  0.970153  0  0  0.099862  0  1.035417  0  0  0.101926  0  1.035984  0  0  0.100551  0.098327  0  1.03516  0
H  H14  1  0.76913404  0.51769140  0.44286369  1  0  0.081131  0  0.961654  0  0  0.093459  0  1.021925  0  0  0.095831  0  1.021628  0  0  0.09703  0.09175  0  1.02226  0
H  H15  1  0.32492957  0.98162582  0.55671887  1  0  0.080679  0  0.961294  0  0  0.092923  0  1.02181  0  0  0.095312  0  1.021495  0  0  0.096833  0.091223  0  1.022118  0
H  H16  1  0.23087091  0.48231459  0.55713567  1  0  0.081238  0  0.961686  0  0  0.093528  0  1.021988  0  0  0.0959  0  1.021691  0  0  0.097042  0.091819  0  1.022323  0
H  H17  1  0.67507654  0.01836835  0.44328192  1  0  0.08067  0  0.961265  0  0  0.092894  0  1.021803  0  0  0.095278  0  1.0215  0  0  0.096832  0.091197  0  1.022108  0
H  H18  1  0.44584837  0.70297156  0.49058486  1  0  0.07609  0  0.98327  0  0  0.086014  0  1.050327  0  0  0.088419  0  1.049546  0  0  0.094934  0.084292  0  1.050931  0
H  H19  1  0.95364066  0.79689067  0.50955297  1  0  0.076636  0  0.983165  0  0  0.086389  0  1.050488  0  0  0.088813  0  1.049662  0  0  0.095056  0.084612  0  1.051155  0
H  H20  1  0.55415468  0.29703180  0.50941475  1  0  0.076036  0  0.983304  0  0  0.085966  0  1.05036  0  0  0.08837  0  1.04958  0  0  0.094919  0.084242  0  1.050966  0
H  H21  1  0.04636206  0.20310613  0.49044723  1  0  0.076646  0  0.983159  0  0  0.086401  0  1.05048  0  0  0.088823  0  1.049657  0  0  0.095047  0.084626  0  1.051144  0
H  H22  1  0.10577429  0.76239941  0.37966613  1  0  0.084407  0  0.975077  0  0  0.094558  0  1.038078  0  0  0.096324  0  1.039464  0  0  0.095434  0.093259  0  1.037244  0
H  H23  1  0.72553159  0.73796104  0.62096232  1  0  0.083885  0  0.97564  0  0  0.094254  0  1.038436  0  0  0.095972  0  1.039909  0  0  0.095332  0.092997  0  1.037457  0
H  H24  1  0.89422328  0.23760002  0.62033336  1  0  0.084392  0  0.97508  0  0  0.094546  0  1.038077  0  0  0.096313  0  1.039461  0  0  0.095434  0.093243  0  1.037246  0
H  H25  1  0.27446435  0.26204100  0.37903795  1  0  0.083867  0  0.975667  0  0  0.094261  0  1.038427  0  0  0.095986  0  1.039883  0  0  0.095321  0.093004  0  1.037445  0
H  H26  1  0.08861327  0.63375171  0.22308201  1  0  0.105583  0  0.974183  0  0  0.113493  0  1.038096  0  0  0.116839  0  1.036219  0  0  0.110916  0.111006  0  1.039573  0
H  H27  1  0.86612271  0.86676537  0.77739944  1  0  0.104561  0  0.974544  0  0  0.112423  0  1.038656  0  0  0.115859  0  1.036685  0  0  0.110645  0.109882  0  1.040197  0
H  H28  1  0.91138234  0.36624378  0.77691759  1  0  0.105598  0  0.974178  0  0  0.113479  0  1.03813  0  0  0.116823  0  1.036256  0  0  0.110927  0.111009  0  1.039585  0
H  H29  1  0.13387160  0.13323931  0.22260035  1  0  0.104578  0  0.974556  0  0  0.112439  0  1.038667  0  0  0.115876  0  1.036695  0  0  0.110633  0.109899  0  1.04021  0
C  C30  1  0.41840778  0.50375857  0.24441197  1  0  -0.259351  0  3.778428  0  0  -0.215783  0  4.016537  0  0  -0.226338  0  4.038366  0  0  -0.024358  -0.20882  0  4.001976  0
C  C31  1  0.17420148  0.99626806  0.75555962  1  0  -0.260661  0  3.777879  0  0  -0.216377  0  4.015278  0  0  -0.226925  0  4.03715  0  0  -0.024865  -0.20946  0  4.000753  0
C  C32  1  0.58159337  0.49624217  0.75558789  1  0  -0.259352  0  3.778459  0  0  -0.215819  0  4.016612  0  0  -0.22637  0  4.038433  0  0  -0.024372  -0.208847  0  4.002043  0
C  C33  1  0.82579954  0.00373004  0.24444122  1  0  -0.260725  0  3.777965  0  0  -0.216437  0  4.015359  0  0  -0.226984  0  4.037231  0  0  -0.024901  -0.20953  0  4.000846  0
C  C34  1  0.61125102  0.47260656  0.30662772  1  0  -0.038208  0  3.748249  0  0  -0.060513  0  3.989075  0  0  -0.059998  0  4.011546  0  0  -0.080653  -0.060651  0  3.973842  0
C  C35  1  0.30439045  0.02707693  0.69311374  1  0  -0.03717  0  3.747964  0  0  -0.06035  0  3.988555  0  0  -0.059831  0  4.011024  0  0  -0.0803  -0.060488  0  3.973313  0
C  C36  1  0.38875020  0.52739548  0.69337289  1  0  -0.038201  0  3.748334  0  0  -0.060476  0  3.989141  0  0  -0.059961  0  4.011611  0  0  -0.080628  -0.060615  0  3.973901  0
C  C37  1  0.69561220  0.97291855  0.30688758  1  0  -0.037163  0  3.747953  0  0  -0.060295  0  3.988523  0  0  -0.059776  0  4.010992  0  0  -0.080285  -0.060427  0  3.973282  0
C  C38  1  0.61993827  0.54389995  0.39485144  1  0  -0.08759  0  3.782149  0  0  -0.097907  0  4.030547  0  0  -0.10167  0  4.052665  0  0  -0.095466  -0.095411  0  4.015556  0
C  C39  1  0.22418481  0.95574019  0.60494937  1  0  -0.087474  0  3.780681  0  0  -0.097846  0  4.029518  0  0  -0.101646  0  4.051688  0  0  -0.095622  -0.095322  0  4.014446  0
C  C40  1  0.38006125  0.45610342  0.60514793  1  0  -0.087748  0  3.782253  0  0  -0.098032  0  4.030632  0  0  -0.101795  0  4.052749  0  0  -0.09549  -0.095536  0  4.015641  0
C  C41  1  0.77582130  0.04425398  0.39505142  1  0  -0.087421  0  3.780712  0  0  -0.097775  0  4.029536  0  0  -0.101575  0  4.051702  0  0  -0.095593  -0.095256  0  4.014466  0
C  C42  1  0.43827900  0.64757816  0.42155671  1  0  -0.073717  0  3.77555  0  0  -0.08712  0  4.020202  0  0  -0.087617  0  4.041052  0  0  -0.092263  -0.086569  0  4.005909  0
C  C43  1  0.01564213  0.85236067  0.57854051  1  0  -0.074736  0  3.775594  0  0  -0.088036  0  4.020156  0  0  -0.088518  0  4.040985  0  0  -0.092462  -0.087472  0  4.005925  0
C  C44  1  0.56172216  0.35242258  0.57844252  1  0  -0.073636  0  3.775547  0  0  -0.087041  0  4.020189  0  0  -0.087539  0  4.041042  0  0  -0.092254  -0.086495  0  4.005899  0
C  C45  1  0.98436059  0.14763612  0.42146031  1  0  -0.07478  0  3.775643  0  0  -0.088091  0  4.020216  0  0  -0.088571  0  4.041046  0  0  -0.092464  -0.087527  0  4.005983  0
C  C46  1  0.24698194  0.67990604  0.35979848  1  0  -0.078531  0  3.758288  0  0  -0.087132  0  4.001794  0  0  -0.090824  0  4.024339  0  0  -0.092099  -0.084644  0  3.986472  0
C  C47  1  0.88666020  0.82031118  0.64054785  1  0  -0.077971  0  3.7577  0  0  -0.086787  0  4.001108  0  0  -0.090473  0  4.023657  0  0  -0.091936  -0.08427  0  3.9858  0
C  C48  1  0.75301563  0.32009339  0.64020164  1  0  -0.078513  0  3.758309  0  0  -0.087109  0  4.001816  0  0  -0.0908  0  4.024358  0  0  -0.092109  -0.084617  0  3.986497  0
C  C49  1  0.11334089  0.17968825  0.35945187  1  0  -0.077942  0  3.757708  0  0  -0.086768  0  4.001112  0  0  -0.090453  0  4.023663  0  0  -0.091899  -0.084243  0  3.985797  0
C  C50  1  0.23622590  0.60748350  0.27150443  1  0  -0.036585  0  3.730871  0  0  -0.05862  0  3.971566  0  0  -0.057544  0  3.991148  0  0  -0.075587  -0.059151  0  3.958343  0
C  C51  1  0.96484864  0.89278580  0.72876712  1  0  -0.034644  0  3.728835  0  0  -0.056732  0  3.969104  0  0  -0.055696  0  3.988582  0  0  -0.074892  -0.05723  0  3.955945  0
C  C52  1  0.76377330  0.39251331  0.72849553  1  0  -0.036602  0  3.730855  0  0  -0.058624  0  3.971607  0  0  -0.057547  0  3.991181  0  0  -0.075588  -0.059165  0  3.958365  0
C  C53  1  0.03514906  0.10721625  0.27123264  1  0  -0.034682  0  3.728946  0  0  -0.056775  0  3.96922  0  0  -0.055739  0  3.988699  0  0  -0.074914  -0.057278  0  3.95607  0
O  O54  1  0.65160441  0.41438952  0.10984131  1  0  -0.882734  0  1.937791  0  0  -0.798942  0  2.187715  0  0  -0.824455  0  2.166659  0  0  -0.399176  -0.780803  0  2.20187  0
O  O55  1  0.54222383  0.08568318  0.88999046  1  0  -0.883136  0  1.935834  0  0  -0.798957  0  2.185944  0  0  -0.824416  0  2.164866  0  0  -0.399083  -0.78083  0  2.200066  0
O  O56  1  0.34839499  0.58561121  0.89015906  1  0  -0.882734  0  1.937763  0  0  -0.798929  0  2.187675  0  0  -0.824439  0  2.166619  0  0  -0.399156  -0.780782  0  2.201836  0
O  O57  1  0.45777550  0.91431624  0.11001040  1  0  -0.883122  0  1.935863  0  0  -0.798926  0  2.185979  0  0  -0.824385  0  2.164907  0  0  -0.399078  -0.780801  0  2.200097  0
O  O58  1  0.21691638  0.50326230  0.07625690  1  0  -0.95073  0  1.971612  0  0  -0.87084  0  2.246008  0  0  -0.897085  0  2.226118  0  0  -0.461454  -0.852035  0  2.259211  0
O  O59  1  0.14134671  0.99677185  0.92377293  1  0  -0.950443  0  1.972088  0  0  -0.870776  0  2.246689  0  0  -0.896969  0  2.226774  0  0  -0.461478  -0.852043  0  2.259988  0
O  O60  1  0.78308301  0.49673843  0.92374346  1  0  -0.950773  0  1.971623  0  0  -0.870844  0  2.245929  0  0  -0.897128  0  2.226125  0  0  -0.461461  -0.852032  0  2.259136  0
O  O61  1  0.85865268  0.00322888  0.07622743  1  0  -0.950427  0  1.972099  0  0  -0.870755  0  2.246717  0  0  -0.896944  0  2.226802  0  0  -0.461472  -0.852025  0  2.260017  0
O  O62  1  0.29515351  0.21735937  0.11299854  1  0  -0.815405  0  2.119896  0  0  -0.73381  0  2.359306  0  0  -0.756945  0  2.332621  0  0  -0.3914  -0.717376  0  2.377512  0
O  O63  1  0.18240365  0.28266047  0.88694643  1  0  -0.815131  0  2.119157  0  0  -0.733889  0  2.358231  0  0  -0.756981  0  2.331588  0  0  -0.391729  -0.717485  0  2.376401  0
O  O64  1  0.70484582  0.78264005  0.88700170  1  0  -0.815398  0  2.11991  0  0  -0.733811  0  2.359307  0  0  -0.75694  0  2.332622  0  0  -0.391405  -0.717378  0  2.377522  0
O  O65  1  0.81759751  0.71734027  0.11305342  1  0  -0.815159  0  2.119253  0  0  -0.733908  0  2.358328  0  0  -0.757  0  2.331687  0  0  -0.391733  -0.717491  0  2.376455  0
