# generated using pymatgen
data_Zr3H11C24Br3O16
_symmetry_space_group_name_H-M   'P 1'
_cell_length_a   14.80023272
_cell_length_b   14.79587973
_cell_length_c   14.80055322
_cell_angle_alpha   60.00758608
_cell_angle_beta   60.00206196
_cell_angle_gamma   59.99852412
_symmetry_Int_Tables_number   1
_chemical_formula_structural   Zr3H11C24Br3O16
_chemical_formula_sum   'Zr6 H22 C48 Br6 O32'
_cell_volume   2291.91814742
_cell_formula_units_Z   2
loop_
 _symmetry_equiv_pos_site_id
 _symmetry_equiv_pos_as_xyz
  1  'x, y, z'
loop_
 _atom_site_type_symbol
 _atom_site_label
 _atom_site_symmetry_multiplicity
 _atom_site_fract_x
 _atom_site_fract_y
 _atom_site_fract_z
 _atom_site_occupancy
 _atom_site_pbe_bader_charge
 _atom_site_pbe_bader_spin_density
 _atom_site_pbe_cm5_charge
 _atom_site_pbe_ddec_charge
 _atom_site_pbe_ddec_spin_density
 _atom_site_pbe_ddec_sum_bond_order
 _atom_site_pbe_magmom
Zr  Zr0  1  0.87976283  0.87985175  0.62014439  1  2.638014  0  1.626973  2.373351  0  2.756955  0
Zr  Zr1  1  0.11860191  0.11870693  0.38128271  1  2.636741  0  1.626001  2.38051  0  2.75088  0
Zr  Zr2  1  0.11806366  0.87934276  0.62069444  1  2.635007  0  1.622041  2.376295  0  2.740238  0
Zr  Zr3  1  0.87931081  0.11821854  0.38168735  1  2.637626  0  1.630213  2.376664  0  2.767561  0
Zr  Zr4  1  0.11881488  0.88081767  0.38017220  1  2.637946  0  1.626673  2.377664  0  2.752648  0
Zr  Zr5  1  0.87972726  0.11979186  0.61919418  1  2.634929  0  1.626369  2.377061  0  2.753583  0
H  H6  1  0.09332263  0.71725754  0.59476759  1  0.592509  0  0.331353  0.422794  0  0.856112  0
H  H7  1  0.09331908  0.09333793  0.21872910  1  0.61108  0  0.331973  0.424324  0  0.854863  0
H  H8  1  0.09297686  0.09340668  0.59462584  1  0.606662  0  0.331324  0.423602  0  0.855758  0
H  H9  1  0.71708027  0.09331801  0.59464963  1  0.610267  0  0.331905  0.423577  0  0.856354  0
H  H10  1  0.85313466  0.58150401  0.64438282  1  0.123067  0  0.112579  0.120896  0  0.986486  0
H  H11  1  0.14339967  0.59099998  0.35458566  1  0.142437  0  0.10513  0.120713  0  1.021906  0
H  H12  1  0.86079366  0.41165665  0.63724739  1  0.091625  0  0.108187  0.11452  0  1.009667  0
H  H13  1  0.58241064  0.85192303  0.92223631  1  0.09114  0  0.112428  0.120215  0  0.986715  0
H  H14  1  0.59254087  0.14194128  0.91239245  1  0.110353  0  0.104679  0.119857  0  1.023342  0
H  H15  1  0.41344326  0.85895452  0.09227973  1  0.128678  0  0.107996  0.114208  0  1.011228  0
H  H16  1  0.14331749  0.85365901  0.08193107  1  0.096725  0  0.111651  0.119786  0  0.987791  0
H  H17  1  0.85351778  0.14400976  0.09149405  1  0.141934  0  0.105369  0.121068  0  1.021111  0
H  H18  1  0.13624397  0.86138745  0.91199687  1  0.094938  0  0.107222  0.112959  0  1.01106  0
H  H19  1  0.58255780  0.42199164  0.64267481  1  0.091065  0  0.111472  0.119181  0  0.987976  0
H  H20  1  0.59267888  0.41176568  0.35271543  1  0.102065  0  0.104914  0.120195  0  1.022941  0
H  H21  1  0.41333856  0.59201479  0.63462726  1  0.12602  0  0.107313  0.112778  0  1.012507  0
H  H22  1  0.14223086  0.58169831  0.92245720  1  0.107278  0  0.111066  0.119307  0  0.987165  0
H  H23  1  0.85243856  0.59141998  0.91236000  1  0.140678  0  0.109707  0.126706  0  1.003168  0
H  H24  1  0.13496164  0.41184293  0.09182295  1  0.099967  0  0.103469  0.10701  0  1.028385  0
H  H25  1  0.58116440  0.14259818  0.35356429  1  0.093005  0  0.112371  0.121554  0  0.9843  0
H  H26  1  0.59100848  0.85270822  0.64372348  1  0.144226  0  0.109381  0.126042  0  1.00444  0
H  H27  1  0.41166575  0.13507137  0.36107193  1  0.121901  0  0.104453  0.107973  0  1.027198  0
C  C28  1  0.99552991  0.69878281  0.49883694  1  1.564121  0  0.239053  0.64337  0  4.090048  0
C  C29  1  0.30597180  0.99960563  0.19940616  1  1.5802  0  0.235937  0.64936  0  4.094132  0
C  C30  1  0.99919457  0.30623615  0.49477449  1  1.576377  0  0.235534  0.649681  0  4.092474  0
C  C31  1  0.69840325  0.99575077  0.80662574  1  1.539998  0  0.239006  0.643689  0  4.090068  0
C  C32  1  0.99717224  0.69852887  0.80757827  1  1.551048  0  0.238416  0.640532  0  4.094807  0
C  C33  1  0.69801545  0.99750307  0.49679271  1  1.565508  0  0.237757  0.638725  0  4.097422  0
C  C34  1  0.99369550  0.30524078  0.19962326  1  1.577205  0  0.2353  0.64931  0  4.089325  0
C  C35  1  0.30511489  0.99357492  0.50108107  1  1.585512  0  0.235357  0.649059  0  4.089148  0
C  C36  1  0.30560511  0.69868035  0.49470829  1  1.55254  0  0.235278  0.648764  0  4.090806  0
C  C37  1  0.99367171  0.99981796  0.80672983  1  1.585217  0  0.235381  0.648907  0  4.091498  0
C  C38  1  0.69849301  0.30616213  0.49865759  1  1.541952  0  0.238667  0.641414  0  4.091452  0
C  C39  1  0.99773103  0.99582250  0.19931310  1  1.561583  0  0.238025  0.641054  0  4.094393  0
C  C40  1  0.00416202  0.40644447  0.49183375  1  0.00068  0  -0.014789  -0.083504  0  3.905999  0
C  C41  1  0.99721645  0.59708070  0.49840386  1  0.02857  0  -0.008826  -0.012344  0  3.95145  0
C  C42  1  0.08508630  0.45754004  0.41216839  1  -0.12147  0  -0.002217  0.109305  0  3.900945  0
C  C43  1  0.91735870  0.54656321  0.57945524  1  -0.024862  0  -0.079902  -0.095055  0  3.964049  0
C  C44  1  0.08101764  0.55182333  0.41582777  1  -0.009686  0  -0.088972  -0.151414  0  3.962063  0
C  C45  1  0.92167244  0.45278460  0.57528370  1  -0.010777  0  -0.075773  -0.074312  0  3.959713  0
C  C46  1  0.40684518  0.00390099  0.09789290  1  0.009361  0  -0.015124  -0.083779  0  3.906061  0
C  C47  1  0.59745106  0.99671896  0.90775406  1  -0.012103  0  -0.009276  -0.013361  0  3.953808  0
C  C48  1  0.45809626  0.08471177  0.04558316  1  -0.084979  0  -0.00319  0.108114  0  3.901486  0
C  C49  1  0.54726804  0.91648417  0.95753681  1  -0.018629  0  -0.079591  -0.094  0  3.964479  0
C  C50  1  0.55259024  0.08030712  0.95199290  1  0.054499  0  -0.087983  -0.149075  0  3.959955  0
C  C51  1  0.45368429  0.92073968  0.05128288  1  -0.075445  0  -0.075685  -0.074174  0  3.959268  0
C  C52  1  0.99075791  0.00477051  0.90690599  1  0.026335  0  -0.01523  -0.083382  0  3.906387  0
C  C53  1  0.99745776  0.99778876  0.09746862  1  0.0182  0  -0.009199  -0.011681  0  3.953303  0
C  C54  1  0.91100231  0.08566660  0.95813293  1  -0.136612  0  -0.002641  0.109038  0  3.89923  0
C  C55  1  0.07847292  0.91794630  0.04688894  1  0.012842  0  -0.080529  -0.095472  0  3.966939  0
C  C56  1  0.91487100  0.08163058  0.05228019  1  -0.043  0  -0.08762  -0.149037  0  3.958156  0
C  C57  1  0.07429894  0.92231912  0.95311077  1  -0.007731  0  -0.076302  -0.075403  0  3.961843  0
C  C58  1  0.40675199  0.59737086  0.49086463  1  0.045103  0  -0.015296  -0.082973  0  3.905655  0
C  C59  1  0.59764248  0.40739247  0.49742873  1  0.019177  0  -0.009542  -0.012832  0  3.952239  0
C  C60  1  0.45804571  0.54497455  0.41115643  1  -0.130994  0  -0.002944  0.107732  0  3.901455  0
C  C61  1  0.54744717  0.45730940  0.57795384  1  -0.048646  0  -0.080235  -0.094545  0  3.966179  0
C  C62  1  0.55270294  0.45148240  0.41461730  1  0.102064  0  -0.086958  -0.146728  0  3.957074  0
C  C63  1  0.45371976  0.55095164  0.57361582  1  -0.070746  0  -0.076812  -0.075564  0  3.960147  0
C  C64  1  0.99029889  0.40606542  0.09802637  1  -0.015029  0  -0.014003  -0.081219  0  3.902775  0
C  C65  1  0.99664225  0.59708470  0.90822375  1  -0.080582  0  -0.009215  -0.012859  0  3.957776  0
C  C66  1  0.91051458  0.45728213  0.04578344  1  -0.077908  0  -0.003146  0.106909  0  3.904527  0
C  C67  1  0.07746823  0.54662849  0.95782802  1  -0.001183  0  -0.080746  -0.096015  0  3.963293  0
C  C68  1  0.91409666  0.55183226  0.95223252  1  0.015237  0  -0.087407  -0.148887  0  3.960521  0
C  C69  1  0.07342617  0.45267802  0.05128491  1  0.007156  0  -0.07676  -0.073494  0  3.956733  0
C  C70  1  0.40581772  0.99036846  0.50532447  1  0.040834  0  -0.014182  -0.082316  0  3.904045  0
C  C71  1  0.59658702  0.99695908  0.49803930  1  -0.072559  0  -0.00842  -0.010666  0  3.955347  0
C  C72  1  0.45703943  0.91071411  0.58609560  1  -0.126641  0  -0.0031  0.107938  0  3.907156  0
C  C73  1  0.54618368  0.07774702  0.41801487  1  -0.037693  0  -0.079288  -0.094566  0  3.957335  0
C  C74  1  0.55142494  0.91431079  0.58175435  1  0.050281  0  -0.088465  -0.152252  0  3.964929  0
C  C75  1  0.45237561  0.07355869  0.42239586  1  -0.01318  0  -0.075154  -0.07076  0  3.95275  0
Br  Br76  1  0.20676434  0.40785872  0.29425087  1  -0.038486  0  0.028546  -0.057103  0  1.447762  0
Br  Br77  1  0.40836765  0.20657236  0.09131899  1  -0.040631  0  0.028112  -0.05757  0  1.446677  0
Br  Br78  1  0.79215858  0.20668972  0.90963382  1  -0.036296  0  0.033469  -0.056544  0  1.438466  0
Br  Br79  1  0.40798295  0.58964098  0.29396412  1  -0.037295  0  0.033178  -0.057019  0  1.437873  0
Br  Br80  1  0.79261313  0.40788217  0.09108279  1  -0.035638  0  0.034645  -0.056451  0  1.445337  0
Br  Br81  1  0.40749484  0.79268916  0.70793807  1  -0.046052  0  0.028277  -0.061915  0  1.414884  0
O  O82  1  0.91902024  0.73674059  0.57675141  1  -1.188706  0  -0.353749  -0.617128  0  2.270562  0
O  O83  1  0.26438234  0.07338001  0.24308752  1  -1.184431  0  -0.363828  -0.622468  0  2.395793  0
O  O84  1  0.07350199  0.26421920  0.41938188  1  -1.192708  0  -0.36333  -0.621702  0  2.396479  0
O  O85  1  0.73677328  0.91888006  0.76754552  1  -1.172062  0  -0.354096  -0.61829  0  2.269438  0
O  O86  1  0.07464307  0.73704179  0.76830621  1  -1.173552  0  -0.353486  -0.617255  0  2.274095  0
O  O87  1  0.73620991  0.07517365  0.42031977  1  -1.182228  0  -0.352032  -0.613419  0  2.271625  0
O  O88  1  0.91825017  0.26331786  0.24250704  1  -1.182631  0  -0.364119  -0.62229  0  2.393256  0
O  O89  1  0.26347803  0.91776536  0.57522865  1  -1.184911  0  -0.36509  -0.624152  0  2.394229  0
O  O90  1  0.26415599  0.74232067  0.41873372  1  -1.189348  0  -0.364257  -0.623144  0  2.393167  0
O  O91  1  0.91870026  0.07470928  0.76433212  1  -1.188461  0  -0.363338  -0.620905  0  2.395041  0
O  O92  1  0.73731031  0.26736097  0.57581714  1  -1.175192  0  -0.354368  -0.617732  0  2.270289  0
O  O93  1  0.07568172  0.91940331  0.23724166  1  -1.182861  0  -0.3532  -0.616239  0  2.272003  0
O  O94  1  0.07153101  0.92180017  0.76965190  1  -1.178632  0  -0.347202  -0.613961  0  2.267902  0
O  O95  1  0.73717172  0.26519300  0.42337454  1  -1.179827  0  -0.350977  -0.609936  0  2.29593  0
O  O96  1  0.92066551  0.07158629  0.23993945  1  -1.182184  0  -0.352007  -0.61281  0  2.295646  0
O  O97  1  0.26689090  0.73400568  0.57432069  1  -1.170027  0  -0.345989  -0.610403  0  2.269202  0
O  O98  1  0.92085335  0.73819968  0.76752001  1  -1.178015  0  -0.352695  -0.613063  0  2.286259  0
O  O99  1  0.26700843  0.07250057  0.42433503  1  -1.173151  0  -0.344579  -0.608284  0  2.277899  0
O  O100  1  0.07240019  0.26725604  0.23589219  1  -1.172728  0  -0.345846  -0.610492  0  2.275849  0
O  O101  1  0.73786686  0.92097050  0.57336909  1  -1.181297  0  -0.352776  -0.614418  0  2.28433  0
O  O102  1  0.73751363  0.07292925  0.76613511  1  -1.174907  0  -0.351552  -0.611784  0  2.294998  0
O  O103  1  0.07164400  0.73901605  0.42204897  1  -1.181474  0  -0.351894  -0.613234  0  2.293169  0
O  O104  1  0.26748005  0.92317298  0.23492654  1  -1.171544  0  -0.347205  -0.612031  0  2.27125  0
O  O105  1  0.92165919  0.26874519  0.57304752  1  -1.177618  0  -0.347234  -0.614028  0  2.268793  0
O  O106  1  0.79726723  0.06655214  0.56790925  1  -1.240258  0  -0.696104  -1.072105  0  2.367135  0
O  O107  1  0.06621505  0.06665407  0.56794406  1  -1.234177  0  -0.693828  -1.06487  0  2.36391  0
O  O108  1  0.06654088  0.06637724  0.29889185  1  -1.240687  0  -0.696026  -1.06877  0  2.369  0
O  O109  1  0.06633702  0.79746548  0.56813285  1  -1.222075  0  -0.694295  -1.06813  0  2.361802  0
O  O110  1  0.14734138  0.94972115  0.45152036  1  -1.197149  0  -0.790195  -1.144681  0  2.127223  0
O  O111  1  0.94954971  0.94930406  0.45107952  1  -1.201166  0  -0.791673  -1.151295  0  2.127915  0
O  O112  1  0.94947241  0.14807203  0.45098026  1  -1.195266  0  -0.792562  -1.148491  0  2.131364  0
O  O113  1  0.94934010  0.94986610  0.64946433  1  -1.195359  0  -0.790097  -1.147928  0  2.124628  0
