# generated using pymatgen
data_Zn2H13C20N5O7
_symmetry_space_group_name_H-M   'P 1'
_cell_length_a   11.56445181
_cell_length_b   13.12226937
_cell_length_c   14.57448096
_cell_angle_alpha   89.99995347
_cell_angle_beta   90.00010315
_cell_angle_gamma   95.77037381
_symmetry_Int_Tables_number   1
_chemical_formula_structural   Zn2H13C20N5O7
_chemical_formula_sum   'Zn8 H52 C80 N20 O28'
_cell_volume   2200.49739142
_cell_formula_units_Z   4
loop_
 _symmetry_equiv_pos_site_id
 _symmetry_equiv_pos_as_xyz
  1  'x, y, z'
loop_
 _atom_site_type_symbol
 _atom_site_label
 _atom_site_symmetry_multiplicity
 _atom_site_fract_x
 _atom_site_fract_y
 _atom_site_fract_z
 _atom_site_occupancy
 _atom_site_pbe_bader_charge
 _atom_site_pbe_bader_spin_density
 _atom_site_pbe_cm5_charge
 _atom_site_pbe_ddec_charge
 _atom_site_pbe_ddec_spin_density
 _atom_site_pbe_ddec_sum_bond_order
 _atom_site_pbe_magmom
Zn  Zn0  1  0.60833944  0.50882864  0.94202488  1  1.327822  0  0.651124  0.944418  0  2.351409  0
Zn  Zn1  1  0.39165895  0.99117102  0.44202389  1  1.328475  0  0.651108  0.94437  0  2.351423  0
Zn  Zn2  1  0.39166066  0.49117100  0.05797678  1  1.328432  0  0.651133  0.944379  0  2.351389  0
Zn  Zn3  1  0.60833951  0.00882940  0.55797639  1  1.327821  0  0.651107  0.944352  0  2.35142  0
Zn  Zn4  1  0.82295395  0.62676954  0.78794266  1  1.256814  0  0.688683  0.812731  0  2.418311  0
Zn  Zn5  1  0.17704573  0.87322945  0.28794214  1  1.256837  0  0.6887  0.812741  0  2.418358  0
Zn  Zn6  1  0.17704614  0.37323010  0.21205763  1  1.25682  0  0.688685  0.812699  0  2.418334  0
Zn  Zn7  1  0.82295446  0.12677095  0.71205815  1  1.256831  0  0.688656  0.812678  0  2.418337  0
H  H8  1  0.50288244  0.76185482  0.75904324  1  0.092575  0  0.108281  0.118414  0  1.003  0
H  H9  1  0.49711642  0.73814496  0.25904259  1  0.092548  0  0.108254  0.118395  0  1.003004  0
H  H10  1  0.49711766  0.23814482  0.24095842  1  0.092593  0  0.108286  0.118434  0  1.002972  0
H  H11  1  0.50288186  0.26185392  0.74095838  1  0.092599  0  0.108286  0.118424  0  1.002983  0
H  H12  1  0.18479740  0.78545988  0.61014439  1  0.110421  0  0.10854  0.120391  0  1.00484  0
H  H13  1  0.81520122  0.71454078  0.11014696  1  0.110479  0  0.108529  0.120342  0  1.004878  0
H  H14  1  0.81520415  0.21453745  0.38985384  1  0.110357  0  0.10855  0.120409  0  1.004809  0
H  H15  1  0.18479675  0.28546271  0.88985402  1  0.110374  0  0.10853  0.120379  0  1.004836  0
H  H16  1  0.18337997  0.59652214  0.85141480  1  0.132387  0  0.109499  0.123954  0  0.994419  0
H  H17  1  0.81661677  0.90347989  0.35141654  1  0.132679  0  0.109492  0.123915  0  0.994448  0
H  H18  1  0.81661868  0.40347980  0.14858617  1  0.13268  0  0.109506  0.123983  0  0.994403  0
H  H19  1  0.18337910  0.09652054  0.64858649  1  0.132388  0  0.109516  0.123992  0  0.994393  0
H  H20  1  0.77290280  0.75322746  0.60166013  1  0.132292  0  0.129499  0.133952  0  0.979189  0
H  H21  1  0.22709707  0.74676937  0.10165977  1  0.132179  0  0.129486  0.133921  0  0.979174  0
H  H22  1  0.22709634  0.24677142  0.39833947  1  0.132359  0  0.129509  0.133942  0  0.979113  0
H  H23  1  0.77290457  0.25322873  0.89833983  1  0.132358  0  0.129502  0.133935  0  0.979124  0
H  H24  1  0.55809845  0.71428475  0.51517183  1  0.164277  0  0.127869  0.135236  0  1.015387  0
H  H25  1  0.44190228  0.78571366  0.01517107  1  0.164054  0  0.127858  0.135234  0  1.015293  0
H  H26  1  0.44190320  0.28571334  0.48482846  1  0.164073  0  0.127868  0.135273  0  1.015238  0
H  H27  1  0.55809773  0.21428522  0.98482853  1  0.164097  0  0.127871  0.135277  0  1.015225  0
H  H28  1  0.58698771  0.49880950  0.72988764  1  0.197862  0  0.143138  0.122321  0  1.009044  0
H  H29  1  0.41301265  0.00118925  0.22988773  1  0.197908  0  0.143173  0.122347  0  1.00908  0
H  H30  1  0.41301421  0.50119090  0.27011196  1  0.197847  0  0.143149  0.122302  0  1.009106  0
H  H31  1  0.58698649  0.99880963  0.77011119  1  0.197852  0  0.143155  0.122318  0  1.009098  0
H  H32  1  0.41707948  0.43640009  0.70515047  1  0.11483  0  0.109923  0.126254  0  1.048914  0
H  H33  1  0.58292170  0.06359867  0.20515075  1  0.114844  0  0.109922  0.126274  0  1.048878  0
H  H34  1  0.58292312  0.56359878  0.29484708  1  0.114806  0  0.109922  0.126246  0  1.048869  0
H  H35  1  0.41707600  0.93640252  0.79484747  1  0.114783  0  0.109919  0.126262  0  1.048862  0
H  H36  1  0.21653667  0.36473385  0.66273374  1  0.114719  0  0.110274  0.106776  0  1.00688  0
H  H37  1  0.78346355  0.13526494  0.16273289  1  0.114737  0  0.110288  0.1068  0  1.006849  0
H  H38  1  0.78346516  0.63526578  0.33726586  1  0.114722  0  0.110272  0.106782  0  1.006885  0
H  H39  1  0.21653423  0.86473701  0.83726602  1  0.114751  0  0.110266  0.106799  0  1.006895  0
H  H40  1  0.11565631  0.44193497  0.53126001  1  0.101459  0  0.114498  0.13326  0  1.00229  0
H  H41  1  0.88434294  0.05806545  0.03125867  1  0.101402  0  0.114518  0.133263  0  1.002298  0
H  H42  1  0.88434465  0.55806466  0.46874096  1  0.10145  0  0.114506  0.133255  0  1.002201  0
H  H43  1  0.11565667  0.94193726  0.96874024  1  0.101455  0  0.114481  0.133218  0  1.002309  0
H  H44  1  0.08549271  0.48421614  0.37912488  1  0.190565  0  0.12342  0.125858  0  1.052739  0
H  H45  1  0.91450634  0.01578328  0.87912424  1  0.190366  0  0.123388  0.125816  0  1.052744  0
H  H46  1  0.91450739  0.51578350  0.62087403  1  0.19054  0  0.123435  0.125894  0  1.052682  0
H  H47  1  0.08549394  0.98421790  0.12087468  1  0.190593  0  0.123415  0.125824  0  1.052754  0
H  H48  1  0.03688200  0.64262687  0.26303626  1  0.126291  0  0.125234  0.126084  0  0.995274  0
H  H49  1  0.96311686  0.85737292  0.76303544  1  0.1263  0  0.125259  0.126116  0  0.995248  0
H  H50  1  0.96311742  0.35737431  0.73696471  1  0.126285  0  0.125243  0.126085  0  0.995271  0
H  H51  1  0.03688342  0.14262826  0.23696347  1  0.126337  0  0.125252  0.126109  0  0.995254  0
H  H52  1  0.30778069  0.75313961  0.44319240  1  0.224088  0  0.13835  0.118495  0  1.042565  0
H  H53  1  0.69221838  0.74685851  0.94319196  1  0.22406  0  0.138341  0.118493  0  1.042553  0
H  H54  1  0.69221845  0.24685927  0.55680857  1  0.224069  0  0.138356  0.118527  0  1.042552  0
H  H55  1  0.30778681  0.25314034  0.05681038  1  0.223948  0  0.138303  0.118451  0  1.042533  0
H  H56  1  0.81569658  0.49212289  0.90718605  1  0.593226  0  0.301868  0.389882  0  0.906855  0
H  H57  1  0.18430158  0.00787574  0.40718444  1  0.593251  0  0.301872  0.389858  0  0.906896  0
H  H58  1  0.18430257  0.50787599  0.09281492  1  0.593251  0  0.301874  0.389875  0  0.906882  0
H  H59  1  0.81569679  0.99212391  0.59281516  1  0.593249  0  0.301869  0.389877  0  0.906868  0
C  C60  1  0.34986580  0.67361669  0.81259841  1  -0.030559  0  -0.021665  -0.041251  0  3.98501  0
C  C61  1  0.65013116  0.82638076  0.31259860  1  -0.030424  0  -0.021673  -0.041274  0  3.985208  0
C  C62  1  0.65013420  0.32638218  0.18740256  1  -0.030607  0  -0.021681  -0.041229  0  3.984959  0
C  C63  1  0.34986529  0.17361736  0.68740237  1  -0.030567  0  -0.021677  -0.041248  0  3.984943  0
C  C64  1  0.40975872  0.74134098  0.75083088  1  -0.031164  0  -0.078677  -0.111517  0  3.946751  0
C  C65  1  0.59023993  0.75865728  0.25083103  1  -0.031219  0  -0.078669  -0.111504  0  3.946748  0
C  C66  1  0.59024302  0.25865788  0.24916941  1  -0.031193  0  -0.07866  -0.111496  0  3.946772  0
C  C67  1  0.40975739  0.24134085  0.74916994  1  -0.031193  0  -0.078701  -0.111529  0  3.946769  0
C  C68  1  0.35010351  0.78303816  0.67874249  1  -0.065554  0  -0.023846  -0.046704  0  3.991106  0
C  C69  1  0.64989526  0.71696245  0.17874276  1  -0.065305  0  -0.023808  -0.046738  0  3.991071  0
C  C70  1  0.64989727  0.21695995  0.32125711  1  -0.065288  0  -0.02388  -0.046817  0  3.991124  0
C  C71  1  0.35010243  0.28303873  0.82125752  1  -0.065521  0  -0.023856  -0.046699  0  3.99112  0
C  C72  1  0.23125235  0.75405019  0.66684148  1  0.03381  0  -0.074512  -0.099134  0  3.919066  0
C  C73  1  0.76874726  0.74595042  0.16684396  1  0.033667  0  -0.074478  -0.098903  0  3.919028  0
C  C74  1  0.76875102  0.24594790  0.33315675  1  0.033649  0  -0.074484  -0.0991  0  3.918997  0
C  C75  1  0.23125062  0.25405230  0.83315839  1  0.0338  0  -0.074446  -0.099092  0  3.919138  0
C  C76  1  0.17078274  0.68663341  0.72845120  1  -0.049784  0  -0.022939  -0.0428  0  3.990676  0
C  C77  1  0.82921518  0.81336640  0.22845234  1  -0.04987  0  -0.023103  -0.043182  0  3.990867  0
C  C78  1  0.82921899  0.31336546  0.27154840  1  -0.049815  0  -0.022951  -0.042751  0  3.990772  0
C  C79  1  0.17078183  0.18663632  0.77154863  1  -0.049805  0  -0.022988  -0.042803  0  3.990871  0
C  C80  1  0.23020576  0.64776496  0.80229745  1  -0.060609  0  -0.071572  -0.09287  0  3.905723  0
C  C81  1  0.76979146  0.85223481  0.30229917  1  -0.061025  0  -0.071457  -0.092649  0  3.905641  0
C  C82  1  0.76979520  0.35223468  0.19770283  1  -0.060829  0  -0.071609  -0.092991  0  3.905813  0
C  C83  1  0.23020451  0.14776639  0.69770386  1  -0.060565  0  -0.071598  -0.092963  0  3.905767  0
C  C84  1  0.41429226  0.62555969  0.88766461  1  1.575883  0  0.210986  0.588321  0  4.188483  0
C  C85  1  0.58570678  0.87443924  0.38766468  1  1.575603  0  0.21105  0.588439  0  4.188383  0
C  C86  1  0.58570793  0.37444072  0.11233704  1  1.576026  0  0.211018  0.588349  0  4.188432  0
C  C87  1  0.41429073  0.12556041  0.61233698  1  1.576003  0  0.211047  0.588359  0  4.188396  0
C  C88  1  0.41106631  0.86033860  0.61500645  1  1.576213  0  0.211514  0.58277  0  4.196117  0
C  C89  1  0.58893310  0.63966129  0.11500737  1  1.576164  0  0.211491  0.582777  0  4.196162  0
C  C90  1  0.58893543  0.13966027  0.38499384  1  1.576204  0  0.21154  0.582807  0  4.196126  0
C  C91  1  0.41106527  0.36033837  0.88499566  1  1.576231  0  0.211405  0.582604  0  4.196404  0
C  C92  1  0.04184080  0.66142525  0.71682738  1  1.550895  0  0.189449  0.552486  0  4.251244  0
C  C93  1  0.95815737  0.83857686  0.21683143  1  1.550925  0  0.189444  0.552534  0  4.251324  0
C  C94  1  0.95816016  0.33857438  0.28317085  1  1.550888  0  0.189447  0.552395  0  4.251312  0
C  C95  1  0.04183983  0.16142739  0.78317297  1  1.550875  0  0.189467  0.552513  0  4.251271  0
C  C96  1  0.70196115  0.69475696  0.61474255  1  0.440994  0  0.009898  -0.013524  0  3.953633  0
C  C97  1  0.29804430  0.80524289  0.11474157  1  0.441243  0  0.009919  -0.013455  0  3.953775  0
C  C98  1  0.29804537  0.30524571  0.38525842  1  0.44096  0  0.00989  -0.013472  0  3.953859  0
C  C99  1  0.70195379  0.19475447  0.88525803  1  0.440914  0  0.009883  -0.01347  0  3.953901  0
C  C100  1  0.59736003  0.67634298  0.57112172  1  0.284337  0  0.009537  -0.07376  0  3.883828  0
C  C101  1  0.40263659  0.82365618  0.07112431  1  0.284516  0  0.009591  -0.073713  0  3.883956  0
C  C102  1  0.40263661  0.32365668  0.42887376  1  0.284521  0  0.009554  -0.073795  0  3.884038  0
C  C103  1  0.59736514  0.17634268  0.92887324  1  0.28454  0  0.009585  -0.073793  0  3.884007  0
C  C104  1  0.60975157  0.56164751  0.68278818  1  0.966546  0  0.154825  0.126096  0  3.853713  0
C  C105  1  0.39024866  0.93835078  0.18278861  1  0.966558  0  0.154814  0.126137  0  3.853561  0
C  C106  1  0.39024939  0.43835212  0.31721073  1  0.966552  0  0.154824  0.126179  0  3.853646  0
C  C107  1  0.60975057  0.06164886  0.81721030  1  0.966559  0  0.15483  0.12615  0  3.853674  0
C  C108  1  0.42505665  0.54794809  0.59470602  1  0.899969  0  0.23199  0.330011  0  4.040608  0
C  C109  1  0.57494443  0.95205180  0.09470532  1  0.899822  0  0.231984  0.330093  0  4.040578  0
C  C110  1  0.57494604  0.45205154  0.40529221  1  0.899988  0  0.23198  0.330038  0  4.040696  0
C  C111  1  0.42505499  0.04794938  0.90529222  1  0.900032  0  0.231978  0.330007  0  4.040638  0
C  C112  1  0.37253656  0.46725414  0.64738713  1  -0.024586  0  -0.087281  -0.219612  0  3.929707  0
C  C113  1  0.62746353  0.03274389  0.14738544  1  -0.024561  0  -0.087306  -0.219738  0  3.929808  0
C  C114  1  0.62746422  0.53274396  0.35261178  1  -0.024531  0  -0.087205  -0.219453  0  3.929627  0
C  C115  1  0.37253589  0.96725728  0.85261072  1  -0.024574  0  -0.087243  -0.219495  0  3.929577  0
C  C116  1  0.26028564  0.42806159  0.62356803  1  -0.035446  0  -0.060558  0.01479  0  3.961014  0
C  C117  1  0.73971286  0.07193801  0.12356717  1  -0.035509  0  -0.060546  0.014862  0  3.960964  0
C  C118  1  0.73971619  0.57193805  0.37643156  1  -0.035535  0  -0.060616  0.014639  0  3.961016  0
C  C119  1  0.26028502  0.92806471  0.87643037  1  -0.035846  0  -0.060548  0.014719  0  3.960945  0
C  C120  1  0.20396599  0.47042455  0.55039762  1  0.08871  0  -0.08225  -0.212168  0  3.93016  0
C  C121  1  0.79603312  0.02957432  0.05039618  1  0.088861  0  -0.082309  -0.212241  0  3.930154  0
C  C122  1  0.79603392  0.52957356  0.44960198  1  0.088765  0  -0.082201  -0.212066  0  3.930094  0
C  C123  1  0.20396726  0.97042761  0.94960136  1  0.089138  0  -0.08224  -0.21213  0  3.930102  0
C  C124  1  0.26502952  0.55195905  0.50406254  1  0.882128  0  0.231378  0.327379  0  4.038072  0
C  C125  1  0.73496877  0.94804092  0.00406208  1  0.882107  0  0.231426  0.32745  0  4.038107  0
C  C126  1  0.73497230  0.44804058  0.49593638  1  0.882103  0  0.231374  0.32737  0  4.038023  0
C  C127  1  0.26502979  0.05196027  0.99593752  1  0.882074  0  0.231337  0.327318  0  4.0381  0
C  C128  1  0.12122448  0.56376533  0.37579028  1  0.229121  0  0.003147  -0.10038  0  3.909963  0
C  C129  1  0.87877463  0.93623437  0.87578997  1  0.229311  0  0.003153  -0.100365  0  3.910003  0
C  C130  1  0.87877580  0.43623584  0.62420863  1  0.229084  0  0.003121  -0.100417  0  3.909839  0
C  C131  1  0.12122556  0.06376604  0.12421032  1  0.229121  0  0.00313  -0.100372  0  3.910035  0
C  C132  1  0.09906352  0.64235590  0.31861770  1  0.431584  0  0.005538  -0.020172  0  3.963868  0
C  C133  1  0.90093460  0.85764385  0.81861748  1  0.431586  0  0.005531  -0.020199  0  3.963878  0
C  C134  1  0.90093581  0.35764451  0.68138258  1  0.43161  0  0.005561  -0.020136  0  3.963881  0
C  C135  1  0.09906646  0.14235655  0.18138212  1  0.431574  0  0.005508  -0.020214  0  3.964009  0
C  C136  1  0.24204563  0.70281727  0.40778048  1  0.942493  0  0.158963  0.133212  0  3.832622  0
C  C137  1  0.75795432  0.79718164  0.90777941  1  0.942496  0  0.159002  0.133218  0  3.83265  0
C  C138  1  0.75795446  0.29718237  0.59222049  1  0.942501  0  0.158951  0.133168  0  3.832593  0
C  C139  1  0.24204838  0.20281799  0.09222225  1  0.942936  0  0.158987  0.133268  0  3.832582  0
N  N140  1  0.70835474  0.62277471  0.68389908  1  -1.243348  0  -0.352946  -0.292083  0  3.614959  0
N  N141  1  0.29164540  0.87722282  0.18389872  1  -1.243501  0  -0.35293  -0.292085  0  3.614859  0
N  N142  1  0.29164613  0.37722416  0.31610121  1  -1.243339  0  -0.352904  -0.292031  0  3.614961  0
N  N143  1  0.70835384  0.12277682  0.81610156  1  -1.243354  0  -0.352904  -0.292021  0  3.61496  0
N  N144  1  0.53938396  0.59167944  0.61469582  1  -1.260398  0  -0.218657  -0.02529  0  3.767356  0
N  N145  1  0.46061689  0.90831813  0.11469499  1  -1.26028  0  -0.218762  -0.025485  0  3.76749  0
N  N146  1  0.46061768  0.40831865  0.38530378  1  -1.260467  0  -0.218768  -0.025541  0  3.767551  0
N  N147  1  0.53938234  0.09168151  0.88530323  1  -1.26049  0  -0.218789  -0.025514  0  3.767584  0
N  N148  1  0.37355078  0.58968862  0.52430758  1  -1.218437  0  -0.311535  -0.397646  0  3.314514  0
N  N149  1  0.62644842  0.91031133  0.02430630  1  -1.218495  0  -0.311518  -0.397677  0  3.314535  0
N  N150  1  0.62644999  0.41030949  0.47569134  1  -1.218409  0  -0.311557  -0.397684  0  3.314348  0
N  N151  1  0.37355282  0.08969060  0.97569261  1  -1.218443  0  -0.311501  -0.39761  0  3.314376  0
N  N152  1  0.21251796  0.60296006  0.43169627  1  -1.246219  0  -0.219999  -0.020609  0  3.767432  0
N  N153  1  0.78748127  0.89703960  0.93169585  1  -1.24617  0  -0.21996  -0.020548  0  3.767548  0
N  N154  1  0.78748291  0.39703881  0.56830265  1  -1.246174  0  -0.219987  -0.020602  0  3.767367  0
N  N155  1  0.21252170  0.10296233  0.06830512  1  -1.24649  0  -0.219861  -0.020475  0  3.767459  0
N  N156  1  0.17423555  0.72836574  0.33982946  1  -1.235759  0  -0.346029  -0.278002  0  3.555338  0
N  N157  1  0.82576339  0.77163322  0.83982919  1  -1.235797  0  -0.346102  -0.278054  0  3.555391  0
N  N158  1  0.82576464  0.27163466  0.66017151  1  -1.235779  0  -0.34605  -0.278024  0  3.555375  0
N  N159  1  0.17423930  0.22836641  0.16017178  1  -1.235824  0  -0.346076  -0.278072  0  3.555399  0
O  O160  1  0.52157399  0.61761895  0.87324154  1  -1.166118  0  -0.314872  -0.558262  0  2.339972  0
O  O161  1  0.47842407  0.88237923  0.37324213  1  -1.165885  0  -0.314886  -0.558273  0  2.339923  0
O  O162  1  0.47842784  0.38238068  0.12675875  1  -1.166077  0  -0.314874  -0.558204  0  2.339955  0
O  O163  1  0.52157248  0.11761966  0.62675884  1  -1.166062  0  -0.314888  -0.558223  0  2.33987  0
O  O164  1  0.35620495  0.59534141  0.95862560  1  -1.178769  0  -0.317092  -0.562842  0  2.323186  0
O  O165  1  0.64379434  0.90465823  0.45862641  1  -1.178753  0  -0.317098  -0.562869  0  2.323059  0
O  O166  1  0.64379792  0.40465975  0.04137537  1  -1.178904  0  -0.317106  -0.562889  0  2.323136  0
O  O167  1  0.35620413  0.09534218  0.54137524  1  -1.1789  0  -0.317098  -0.562869  0  2.323198  0
O  O168  1  0.51009403  0.90304413  0.64006606  1  -1.17331  0  -0.314212  -0.563013  0  2.342357  0
O  O169  1  0.48990620  0.59695497  0.14006618  1  -1.173337  0  -0.314204  -0.562973  0  2.34233  0
O  O170  1  0.48990761  0.09695397  0.35993354  1  -1.173287  0  -0.31422  -0.562992  0  2.34231  0
O  O171  1  0.51009563  0.40304466  0.85993410  1  -1.17329  0  -0.314168  -0.562942  0  2.3423  0
O  O172  1  0.35780645  0.87827615  0.54149435  1  -1.178117  0  -0.310199  -0.559561  0  2.387581  0
O  O173  1  0.64219270  0.62172302  0.04149536  1  -1.178066  0  -0.310192  -0.559623  0  2.38767  0
O  O174  1  0.64219288  0.12172426  0.45850594  1  -1.178119  0  -0.310223  -0.559596  0  2.387661  0
O  O175  1  0.35780817  0.37827585  0.95850629  1  -1.178134  0  -0.31015  -0.559492  0  2.38781  0
O  O176  1  0.99092909  0.69330794  0.64816076  1  -1.18639  0  -0.341267  -0.568432  0  2.076676  0
O  O177  1  0.00907038  0.80669192  0.14816279  1  -1.186268  0  -0.341259  -0.568435  0  2.076538  0
O  O178  1  0.00907388  0.30669398  0.35183815  1  -1.186392  0  -0.341274  -0.568407  0  2.076679  0
O  O179  1  0.99092722  0.19330850  0.85183818  1  -1.18642  0  -0.341276  -0.568444  0  2.076749  0
O  O180  1  0.99014482  0.60839288  0.78310213  1  -1.171526  0  -0.344967  -0.56797  0  2.292579  0
O  O181  1  0.00985340  0.89160842  0.28310342  1  -1.171652  0  -0.344957  -0.567949  0  2.292695  0
O  O182  1  0.00985546  0.39160829  0.21689747  1  -1.171572  0  -0.344945  -0.567895  0  2.29262  0
O  O183  1  0.99014438  0.10839353  0.71689687  1  -1.171494  0  -0.344956  -0.56797  0  2.292592  0
O  O184  1  0.75557699  0.52236885  0.87330075  1  -1.226513  0  -0.592358  -0.825474  0  2.135521  0
O  O185  1  0.24442115  0.97763010  0.37330025  1  -1.226556  0  -0.592354  -0.825445  0  2.135651  0
O  O186  1  0.24442224  0.47763080  0.12669885  1  -1.22654  0  -0.592354  -0.825446  0  2.135563  0
O  O187  1  0.75557808  0.02236955  0.62669935  1  -1.226547  0  -0.592337  -0.825427  0  2.135543  0
