# generated using pymatgen
data_CuH20C15N5O3
_symmetry_space_group_name_H-M   'P 1'
_cell_length_a   9.00847344
_cell_length_b   9.70928236
_cell_length_c   11.05027854
_cell_angle_alpha   90.45961911
_cell_angle_beta   113.65000757
_cell_angle_gamma   98.03668440
_symmetry_Int_Tables_number   1
_chemical_formula_structural   CuH20C15N5O3
_chemical_formula_sum   'Cu2 H40 C30 N10 O6'
_cell_volume   874.45881693
_cell_formula_units_Z   2
loop_
 _symmetry_equiv_pos_site_id
 _symmetry_equiv_pos_as_xyz
  1  'x, y, z'
loop_
 _atom_site_type_symbol
 _atom_site_label
 _atom_site_symmetry_multiplicity
 _atom_site_fract_x
 _atom_site_fract_y
 _atom_site_fract_z
 _atom_site_occupancy
 _atom_site_pbe_cm5_charge
 _atom_site_pbe_ddec_charge
 _atom_site_pbe_ddec_spin_density
 _atom_site_pbe_ddec_sum_bond_order
 _atom_site_pbe_magmom
Cu  Cu0  1  0.60274894  0.66287665  0.14803615  1  0.713545  0.614147  0.003658  2.448695  0.006
Cu  Cu1  1  0.74231295  0.84723913  0.74612898  1  0.715002  0.614747  -0.003641  2.462055  -0.006
H  H2  1  0.37603243  0.59179463  0.29070043  1  0.319984  0.280498  -2e-06  0.996977  0.0
H  H3  1  0.97286967  0.92600272  0.60532792  1  0.321204  0.281259  2e-06  0.994124  0.0
H  H4  1  0.78390859  0.65976666  0.52023239  1  0.317974  0.268147  3e-06  0.984157  0.0
H  H5  1  0.55951240  0.84670614  0.38214005  1  0.315465  0.265413  -4e-06  0.996709  0.0
H  H6  1  0.18769257  0.12423458  0.99438081  1  0.097076  0.099412  1e-06  1.008151  0.0
H  H7  1  0.12437616  0.11710298  0.12442177  1  0.095903  0.095998  0.0  0.99377  0.0
H  H8  1  0.22149073  0.39830695  0.78453269  1  0.096479  0.096913  0.0  0.982242  0.0
H  H9  1  0.15461318  0.38655057  0.91271154  1  0.097143  0.096108  -1e-06  1.015248  0.0
H  H10  1  0.31927346  0.78937049  0.91976258  1  0.096115  0.140174  1e-06  1.038857  0.0
H  H11  1  0.38773842  0.96646513  0.90615107  1  0.087632  0.122956  3e-06  0.995314  0.0
H  H12  1  0.18489880  0.91427945  0.89280560  1  0.093958  0.135203  3e-06  1.020658  0.0
H  H13  1  0.20240310  0.36020896  0.38393126  1  0.093416  0.127061  -2e-06  1.017306  0.0
H  H14  1  0.05418586  0.27311196  0.23278825  1  0.093707  0.128833  -2e-06  1.04087  0.0
H  H15  1  0.07974144  0.45796593  0.25938142  1  0.102738  0.149157  -8e-06  0.981059  0.0
H  H16  1  0.02341995  0.72729100  0.98243756  1  0.095782  0.145368  -1e-06  1.023557  0.0
H  H17  1  0.16866689  0.61247773  0.00795708  1  0.093935  0.135666  -3e-06  1.022494  0.0
H  H18  1  0.97253509  0.54801384  0.00318987  1  0.087015  0.122262  -4e-06  1.000671  0.0
H  H19  1  0.33333875  0.15391994  0.71190282  1  0.094855  0.13182  6e-06  1.000789  0.0
H  H20  1  0.21222491  0.25318778  0.58654189  1  0.092576  0.125086  2e-06  1.024461  0.0
H  H21  1  0.18803001  0.06853626  0.55840332  1  0.099149  0.141799  5e-06  1.037871  0.0
H  H22  1  0.42475278  0.54638124  0.65867937  1  0.112811  0.078464  -0.0  0.936943  0.0
H  H23  1  0.71274274  0.25119550  0.78438647  1  0.094966  0.13486  7e-06  0.986788  0.0
H  H24  1  0.88937147  0.26875152  0.93486303  1  0.096788  0.140075  -1e-06  0.990785  0.0
H  H25  1  0.75272883  0.10706422  0.88657513  1  0.093006  0.129705  3e-06  1.040481  0.0
H  H26  1  0.45470933  0.29780810  0.94000100  1  0.094227  0.132959  0.0  1.005408  0.0
H  H27  1  0.56974688  0.21306840  0.08129275  1  0.094242  0.135613  -4e-06  1.006947  0.0
H  H28  1  0.64037603  0.38951278  0.06068417  1  0.094072  0.126182  -5e-06  1.015978  0.0
H  H29  1  0.34769095  0.04334520  0.44915838  1  0.095414  0.136904  3e-06  1.001733  0.0
H  H30  1  0.43921075  0.19769985  0.40440848  1  0.092989  0.134057  0.0  1.012324  0.0
H  H31  1  0.56329303  0.07748202  0.50173978  1  0.096491  0.138787  4e-06  1.007665  0.0
H  H32  1  0.82090090  0.46479830  0.39920875  1  0.097221  0.142878  -5e-06  1.01336  0.0
H  H33  1  0.82518603  0.30677698  0.48108743  1  0.094653  0.136496  0.0  0.993212  0.0
H  H34  1  0.00987202  0.40403102  0.48724575  1  0.092894  0.129417  -1e-06  1.012894  0.0
H  H35  1  0.87317976  0.07189411  0.14271827  1  0.088548  0.122588  -2e-06  1.031341  0.0
H  H36  1  0.95585927  0.08438443  0.32021039  1  0.091727  0.127829  1e-06  1.017091  0.0
H  H37  1  0.74119029  0.03182004  0.22643870  1  0.091224  0.129606  -3e-06  1.025479  0.0
H  H38  1  0.23958470  0.65942421  0.73108936  1  0.089669  0.127415  2e-06  1.044973  0.0
H  H39  1  0.17160869  0.66053665  0.55558273  1  0.091752  0.134016  -4e-06  1.020052  0.0
H  H40  1  0.27861154  0.81489038  0.65676816  1  0.090467  0.133032  5e-06  0.993464  0.0
H  H41  1  0.01439954  0.86830078  0.23470181  1  0.120828  0.095265  5e-06  0.928717  0.0
C  C42  1  0.74605013  0.80190788  0.99474885  1  0.212728  0.348624  3e-06  4.217262  0.0
C  C43  1  0.59610032  0.70887584  0.89783599  1  0.211155  0.35081  -3e-06  4.211601  0.0
C  C44  1  0.23434811  0.13858859  0.10288921  1  -0.149621  -0.147154  1e-06  4.004147  0.0
C  C45  1  0.99863617  0.47845596  0.74438175  1  -0.04425  -0.137349  3e-06  3.996681  0.0
C  C46  1  0.88332498  0.81121660  0.35654996  1  0.214898  0.571386  1.3e-05  4.126226  0.0
C  C47  1  0.45857868  0.70611253  0.53563119  1  0.214404  0.567842  -1.3e-05  4.122571  0.0
C  C48  1  0.34343489  0.03149805  0.16174443  1  -0.044779  -0.138435  -3e-06  3.994608  0.0
C  C49  1  0.11022630  0.37372065  0.80423897  1  -0.149239  -0.149849  -1e-06  4.012297  0.0
C  C50  1  0.37072189  0.92220465  0.09112850  1  0.086152  0.192482  -3e-06  4.04305  0.0
C  C51  1  0.97408850  0.59105600  0.81281575  1  0.086951  0.196907  4e-06  4.02868  0.0
C  C52  1  0.26836450  0.38258514  0.21789912  1  0.096821  0.188348  -6e-06  4.001713  0.0
C  C53  1  0.31158017  0.28770297  0.14660630  1  -0.036226  -0.129802  5e-06  3.988154  0.0
C  C54  1  0.08098880  0.13385343  0.68521235  1  0.097566  0.193134  5e-06  3.992387  0.0
C  C55  1  0.91031698  0.49455022  0.61007683  1  0.09403  0.191362  4e-06  3.991868  0.0
C  C56  1  0.03548238  0.22500214  0.75784248  1  -0.03668  -0.128517  -5e-06  3.997005  0.0
C  C57  1  0.43019863  0.01131304  0.29548212  1  0.091186  0.187654  -2e-06  3.994688  0.0
C  C58  1  0.90521151  0.14684366  0.77990398  1  0.094653  0.201131  -2e-06  4.003854  0.0
C  C59  1  0.31223989  0.89672211  0.94501533  1  -0.240714  -0.422361  2e-06  3.959342  0.0
C  C60  1  0.14422526  0.36736096  0.27604454  1  -0.232413  -0.427766  -8e-06  3.989595  0.0
C  C61  1  0.44018088  0.36365818  0.12032590  1  0.096258  0.20256  0.0  3.998368  0.0
C  C62  1  0.03804887  0.62157319  0.95902538  1  -0.241521  -0.423889  -4e-06  3.951469  0.0
C  C63  1  0.21048557  0.15346236  0.63262546  1  -0.232196  -0.43233  9e-06  3.985948  0.0
C  C64  1  0.43212215  0.66100301  0.65931992  1  0.006297  0.070367  -1e-05  3.923297  0.0
C  C65  1  0.80929928  0.19522260  0.85025801  1  -0.233729  -0.422796  7e-06  3.974217  0.0
C  C66  1  0.53171175  0.31352356  0.04695226  1  -0.232501  -0.412189  -6e-06  3.964331  0.0
C  C67  1  0.44641144  0.08684689  0.41924877  1  -0.233292  -0.413299  5e-06  3.957586  0.0
C  C68  1  0.88991058  0.41323935  0.48789397  1  -0.231677  -0.413254  -4e-06  3.952579  0.0
C  C69  1  0.86365588  0.02565391  0.23005223  1  -0.241394  -0.401423  -1e-06  3.894417  0.0
C  C70  1  0.27012277  0.70102943  0.65088287  1  -0.246313  -0.402474  -4e-06  3.892974  0.0
C  C71  1  0.89100702  0.87290351  0.23115525  1  0.00763  0.067386  1.2e-05  3.902267  0.0
N  N72  1  0.57202948  0.72694642  0.77459116  1  -0.403012  -0.385351  -0.000305  3.62347  -0.001
N  N73  1  0.47169291  0.49629862  0.17220245  1  -0.289687  -0.23514  0.000143  3.58053  0.0
N  N74  1  0.76647621  0.78890713  0.11781229  1  -0.405328  -0.383864  0.0003  3.634276  0.001
N  N75  1  0.87474152  0.01556871  0.72468262  1  -0.289816  -0.242356  -0.000144  3.572983  0.0
N  N76  1  0.87898825  0.67242579  0.72609405  1  -0.263136  -0.276634  -1e-06  3.369203  0.0
N  N77  1  0.46584794  0.83933624  0.17576541  1  -0.260684  -0.281083  3e-06  3.369685  0.0
N  N78  1  0.36628968  0.50555950  0.23006819  1  -0.288566  -0.149566  -2e-06  3.696459  0.0
N  N79  1  0.98250640  0.01000841  0.66830068  1  -0.286536  -0.147219  2e-06  3.692121  0.0
N  N80  1  0.84024557  0.61030209  0.60468565  1  -0.293748  -0.141888  5e-06  3.73101  0.0
N  N81  1  0.50256683  0.89738864  0.29829326  1  -0.295302  -0.148054  -5e-06  3.748067  0.0
O  O82  1  0.76508395  0.71123025  0.34214262  1  -0.320601  -0.537782  0.000308  2.32529  0.001
O  O83  1  0.58750459  0.79545362  0.55216643  1  -0.320798  -0.534661  -0.000307  2.341427  -0.001
O  O84  1  0.83567355  0.88288565  0.95126474  1  -0.29104  -0.443707  -0.000287  2.305749  -0.001
O  O85  1  0.50693628  0.62807222  0.94188502  1  -0.291636  -0.442102  0.000282  2.281773  0.001
O  O86  1  0.98899750  0.86282925  0.46652089  1  -0.306781  -0.534399  8.8e-05  2.219778  0.0
O  O87  1  0.35333489  0.65707296  0.42465601  1  -0.312159  -0.527475  -9.8e-05  2.177237  0.0
