# generated using pymatgen
data_ZnH6C8(NO)4
_symmetry_space_group_name_H-M   'P 1'
_cell_length_a   7.31736828
_cell_length_b   7.44326497
_cell_length_c   18.43180107
_cell_angle_alpha   89.99952615
_cell_angle_beta   89.99940552
_cell_angle_gamma   89.99984194
_symmetry_Int_Tables_number   1
_chemical_formula_structural   ZnH6C8(NO)4
_chemical_formula_sum   'Zn4 H24 C32 N16 O16'
_cell_volume   1003.89009062
_cell_formula_units_Z   4
loop_
 _symmetry_equiv_pos_site_id
 _symmetry_equiv_pos_as_xyz
  1  'x, y, z'
loop_
 _atom_site_type_symbol
 _atom_site_label
 _atom_site_symmetry_multiplicity
 _atom_site_fract_x
 _atom_site_fract_y
 _atom_site_fract_z
 _atom_site_occupancy
 _atom_site_hle17_bader_spin_density
 _atom_site_hle17_ddec_charge
 _atom_site_hle17_ddec_spin_density
 _atom_site_hle17_ddec_sum_bond_order
 _atom_site_hle17_magmom
 _atom_site_hse06_10hf_bader_spin_density
 _atom_site_hse06_10hf_ddec_charge
 _atom_site_hse06_10hf_ddec_spin_density
 _atom_site_hse06_10hf_ddec_sum_bond_order
 _atom_site_hse06_10hf_magmom
 _atom_site_hse06_bader_spin_density
 _atom_site_hse06_ddec_charge
 _atom_site_hse06_ddec_spin_density
 _atom_site_hse06_ddec_sum_bond_order
 _atom_site_hse06_magmom
 _atom_site_pbe_bader_spin_density
 _atom_site_pbe_cm5_charge
 _atom_site_pbe_ddec_charge
 _atom_site_pbe_ddec_spin_density
 _atom_site_pbe_ddec_sum_bond_order
 _atom_site_pbe_magmom
Zn  Zn0  1  0.99999963  0.49999727  0.50000076  1  0  1.13026  0  1.829177  0  0  0.975773  0  2.287127  0  0  1.019436  0  2.231359  0  0  0.698145  0.945185  0  2.325551  0
Zn  Zn1  1  0.99999863  0.00000134  0.00000000  1  0  1.130265  0  1.829143  0  0  0.975703  0  2.287184  0  0  1.019362  0  2.231418  0  0  0.698233  0.945111  0  2.325615  0
Zn  Zn2  1  0.50000453  0.49999928  0.50000189  1  0  1.130215  0  1.829218  0  0  0.975656  0  2.287248  0  0  1.019324  0  2.231478  0  0  0.698148  0.945066  0  2.325672  0
Zn  Zn3  1  0.50000080  0.00000201  0.99999897  1  0  1.130211  0  1.829243  0  0  0.97574  0  2.287206  0  0  1.019398  0  2.231439  0  0  0.69813  0.945153  0  2.32563  0
H  H4  1  0.04456920  0.47802799  0.27155151  1  0  0.135344  0  0.933622  0  0  0.141755  0  0.993912  0  0  0.145899  0  0.991679  0  0  0.12134  0.138728  0  0.995724  0
H  H5  1  0.95543316  0.02197181  0.77155362  1  0  0.135289  0  0.933711  0  0  0.141691  0  0.994018  0  0  0.145835  0  0.991787  0  0  0.121304  0.138663  0  0.995829  0
H  H6  1  0.54457083  0.52197381  0.72844716  1  0  0.135329  0  0.933726  0  0  0.141734  0  0.994028  0  0  0.145878  0  0.991797  0  0  0.121364  0.138709  0  0.995837  0
H  H7  1  0.45542852  0.97802216  0.22844714  1  0  0.1353  0  0.933611  0  0  0.141712  0  0.9939  0  0  0.145856  0  0.991668  0  0  0.121352  0.138684  0  0.995712  0
H  H8  1  0.95543165  0.52197191  0.72844793  1  0  0.135322  0  0.933624  0  0  0.141731  0  0.993918  0  0  0.145876  0  0.991685  0  0  0.121333  0.138702  0  0.99573  0
H  H9  1  0.04456632  0.97802406  0.22844582  1  0  0.135344  0  0.933736  0  0  0.141747  0  0.994025  0  0  0.145891  0  0.991795  0  0  0.121353  0.138721  0  0.995834  0
H  H10  1  0.45543003  0.47803281  0.27155392  1  0  0.135265  0  0.933766  0  0  0.141717  0  0.994025  0  0  0.145843  0  0.991813  0  0  0.121313  0.138667  0  0.995861  0
H  H11  1  0.54457097  0.02197102  0.77155285  1  0  0.135278  0  0.933624  0  0  0.141679  0  0.993945  0  0  0.145823  0  0.991713  0  0  0.121328  0.138649  0  0.995755  0
H  H12  1  0.03393047  0.51772165  0.13554902  1  0  0.117159  0  0.915966  0  0  0.125685  0  0.974136  0  0  0.129002  0  0.971038  0  0  0.138534  0.12315  0  0.976579  0
H  H13  1  0.96606582  0.98228025  0.63555117  1  0  0.117174  0  0.915944  0  0  0.125678  0  0.974145  0  0  0.128994  0  0.971048  0  0  0.138554  0.123146  0  0.976586  0
H  H14  1  0.53393551  0.48228018  0.86444969  1  0  0.117173  0  0.915913  0  0  0.125667  0  0.974109  0  0  0.128983  0  0.971014  0  0  0.138533  0.12313  0  0.976543  0
H  H15  1  0.46606444  0.01771907  0.36444955  1  0  0.117164  0  0.915956  0  0  0.125676  0  0.974138  0  0  0.128992  0  0.971042  0  0  0.138542  0.12314  0  0.976577  0
H  H16  1  0.96606765  0.48227825  0.86444988  1  0  0.117222  0  0.915939  0  0  0.12571  0  0.974132  0  0  0.129027  0  0.971034  0  0  0.13855  0.123174  0  0.976568  0
H  H17  1  0.03393230  0.01771965  0.36444882  1  0  0.117196  0  0.915906  0  0  0.125703  0  0.974103  0  0  0.129017  0  0.971006  0  0  0.138547  0.123165  0  0.976542  0
H  H18  1  0.46606261  0.51772375  0.13555139  1  0  0.117188  0  0.915924  0  0  0.125687  0  0.974112  0  0  0.129003  0  0.971016  0  0  0.13855  0.123153  0  0.976551  0
H  H19  1  0.53393368  0.98227412  0.63555098  1  0  0.11719  0  0.915979  0  0  0.125682  0  0.974174  0  0  0.128998  0  0.971077  0  0  0.138556  0.123149  0  0.976612  0
H  H20  1  0.62697819  0.60579879  0.03618568  1  0  0.135303  0  0.966072  0  0  0.139602  0  1.035174  0  0  0.143197  0  1.0329  0  0  0.119247  0.13701  0  1.036852  0
H  H21  1  0.37301659  0.89419840  0.53618624  1  0  0.135209  0  0.966179  0  0  0.13959  0  1.035187  0  0  0.143186  0  1.032909  0  0  0.119253  0.136997  0  1.036866  0
H  H22  1  0.12698202  0.39420278  0.96381482  1  0  0.135222  0  0.966147  0  0  0.139572  0  1.03517  0  0  0.143167  0  1.032895  0  0  0.119265  0.136979  0  1.036843  0
H  H23  1  0.87301534  0.10580251  0.46381270  1  0  0.135254  0  0.966215  0  0  0.139608  0  1.035245  0  0  0.143206  0  1.032969  0  0  0.119254  0.137013  0  1.03692  0
H  H24  1  0.37301856  0.39420514  0.96381431  1  0  0.135235  0  0.966176  0  0  0.139584  0  1.03519  0  0  0.143181  0  1.032913  0  0  0.119246  0.136993  0  1.036868  0
H  H25  1  0.62698153  0.10580284  0.46381375  1  0  0.135254  0  0.966133  0  0  0.139594  0  1.03518  0  0  0.143191  0  1.032903  0  0  0.119246  0.137003  0  1.036858  0
H  H26  1  0.87301473  0.60580249  0.03618517  1  0  0.135148  0  0.966286  0  0  0.139516  0  1.035289  0  0  0.143112  0  1.033012  0  0  0.119248  0.136925  0  1.036967  0
H  H27  1  0.12698278  0.89419874  0.53618729  1  0  0.13524  0  0.96619  0  0  0.13962  0  1.035189  0  0  0.143218  0  1.032911  0  0  0.119253  0.137028  0  1.036867  0
C  C28  1  0.74999106  0.45037829  0.36319714  1  0  0.644149  0  3.912493  0  0  0.593476  0  4.211642  0  0  0.626667  0  4.204054  0  0  0.21008  0.571142  0  4.215831  0
C  C29  1  0.24998978  0.04962233  0.86319719  1  0  0.644153  0  3.912569  0  0  0.593475  0  4.211705  0  0  0.626666  0  4.204112  0  0  0.210072  0.571118  0  4.215917  0
C  C30  1  0.25000843  0.54962564  0.63680231  1  0  0.644135  0  3.912506  0  0  0.593459  0  4.211653  0  0  0.62665  0  4.204065  0  0  0.210076  0.571117  0  4.215855  0
C  C31  1  0.75000970  0.95037892  0.13680225  1  0  0.644092  0  3.912612  0  0  0.593446  0  4.211713  0  0  0.626636  0  4.204125  0  0  0.210092  0.571107  0  4.215915  0
C  C32  1  0.75000166  0.47347248  0.28130874  1  0  0.007426  0  3.681236  0  0  0.018581  0  3.922268  0  0  0.019807  0  3.940423  0  0  0.013109  0.017636  0  3.910169  0
C  C33  1  0.25000455  0.02653383  0.78130833  1  0  0.007327  0  3.68131  0  0  0.018523  0  3.922281  0  0  0.019744  0  3.940445  0  0  0.013041  0.017584  0  3.910189  0
C  C34  1  0.24999783  0.52652876  0.71869071  1  0  0.007426  0  3.681197  0  0  0.018589  0  3.922216  0  0  0.019814  0  3.940377  0  0  0.013105  0.017638  0  3.910137  0
C  C35  1  0.74999494  0.97346741  0.21869058  1  0  0.007491  0  3.681244  0  0  0.018634  0  3.922235  0  0  0.019859  0  3.940397  0  0  0.013062  0.017686  0  3.910144  0
C  C36  1  0.91469523  0.48585834  0.24306415  1  0  -0.103674  0  3.694968  0  0  -0.12839  0  3.95407  0  0  -0.134753  0  3.973307  0  0  -0.064212  -0.124491  0  3.941636  0
C  C37  1  0.08530104  0.01414472  0.74306446  1  0  -0.103535  0  3.694925  0  0  -0.128252  0  3.95402  0  0  -0.134614  0  3.973259  0  0  -0.064093  -0.124349  0  3.941578  0
C  C38  1  0.41470274  0.51414380  0.75693733  1  0  -0.1036  0  3.69497  0  0  -0.128346  0  3.954105  0  0  -0.134708  0  3.97334  0  0  -0.064174  -0.124448  0  3.941667  0
C  C39  1  0.58530270  0.98585563  0.25693621  1  0  -0.103579  0  3.695064  0  0  -0.128274  0  3.954146  0  0  -0.134635  0  3.973383  0  0  -0.064123  -0.124372  0  3.941709  0
C  C40  1  0.08530562  0.51414156  0.75693692  1  0  -0.103527  0  3.695133  0  0  -0.128243  0  3.954198  0  0  -0.134606  0  3.973434  0  0  -0.064133  -0.124341  0  3.941762  0
C  C41  1  0.91469981  0.98585652  0.25693607  1  0  -0.103643  0  3.694926  0  0  -0.128337  0  3.954029  0  0  -0.134701  0  3.973264  0  0  -0.06414  -0.124432  0  3.941589  0
C  C42  1  0.58529812  0.48586148  0.24306375  1  0  -0.103491  0  3.694911  0  0  -0.128268  0  3.954019  0  0  -0.134612  0  3.973264  0  0  -0.064129  -0.124343  0  3.941586  0
C  C43  1  0.41469815  0.01414427  0.74306432  1  0  -0.103412  0  3.694902  0  0  -0.128157  0  3.954009  0  0  -0.134517  0  3.973246  0  0  -0.064089  -0.12425  0  3.941558  0
C  C44  1  0.91152016  0.50955569  0.16870947  1  0  0.106667  0  3.562688  0  0  0.061571  0  3.818967  0  0  0.070302  0  3.832461  0  0  0.07206  0.055653  0  3.810284  0
C  C45  1  0.08848211  0.99044553  0.66871088  1  0  0.106616  0  3.562908  0  0  0.061521  0  3.819222  0  0  0.070253  0  3.832717  0  0  0.071972  0.055599  0  3.810543  0
C  C46  1  0.41151760  0.49044780  0.83128822  1  0  0.106656  0  3.562853  0  0  0.06161  0  3.819141  0  0  0.070341  0  3.832636  0  0  0.072021  0.055694  0  3.810446  0
C  C47  1  0.58847638  0.00955481  0.33128869  1  0  0.106652  0  3.562755  0  0  0.061563  0  3.819042  0  0  0.070294  0  3.832536  0  0  0.07199  0.055634  0  3.810363  0
C  C48  1  0.08847933  0.49044421  0.83128889  1  0  0.10648  0  3.562871  0  0  0.061439  0  3.819131  0  0  0.070171  0  3.832624  0  0  0.071961  0.055522  0  3.810441  0
C  C49  1  0.91151738  0.00955437  0.33128802  1  0  0.106671  0  3.562768  0  0  0.061565  0  3.81909  0  0  0.070305  0  3.832577  0  0  0.072018  0.055639  0  3.810408  0
C  C50  1  0.58848052  0.50955747  0.16871123  1  0  0.10663  0  3.562793  0  0  0.061582  0  3.819077  0  0  0.070314  0  3.832566  0  0  0.072024  0.055658  0  3.810387  0
C  C51  1  0.41152174  0.99044375  0.66871021  1  0  0.106561  0  3.56274  0  0  0.061521  0  3.819013  0  0  0.070251  0  3.832509  0  0  0.072012  0.055598  0  3.81033  0
C  C52  1  0.74999634  0.53376420  0.05332658  1  0  -0.202698  0  3.544439  0  0  -0.26231  0  3.786894  0  0  -0.26478  0  3.791282  0  0  -0.06554  -0.260475  0  3.784127  0
C  C53  1  0.24999936  0.96623802  0.55332686  1  0  -0.202728  0  3.544562  0  0  -0.262403  0  3.786962  0  0  -0.26488  0  3.791362  0  0  -0.06556  -0.260565  0  3.784196  0
C  C54  1  0.25000041  0.46623973  0.94667341  1  0  -0.202716  0  3.544456  0  0  -0.262352  0  3.786907  0  0  -0.264822  0  3.791296  0  0  -0.065559  -0.26052  0  3.784132  0
C  C55  1  0.74999876  0.03376457  0.44667259  1  0  -0.202771  0  3.54457  0  0  -0.262411  0  3.787008  0  0  -0.264892  0  3.791421  0  0  -0.06556  -0.260572  0  3.784234  0
C  C56  1  0.75001203  0.33952985  0.02381649  1  0  0.69721  0  3.843649  0  0  0.650905  0  4.139927  0  0  0.683763  0  4.134171  0  0  0.219243  0.628649  0  4.142712  0
C  C57  1  0.25000498  0.16047364  0.52381617  1  0  0.696997  0  3.843841  0  0  0.650755  0  4.140039  0  0  0.683617  0  4.134286  0  0  0.219185  0.628499  0  4.142825  0
C  C58  1  0.24998882  0.66047543  0.97618350  1  0  0.697063  0  3.843657  0  0  0.65081  0  4.13986  0  0  0.683667  0  4.134101  0  0  0.219212  0.628563  0  4.142638  0
C  C59  1  0.74999451  0.83952760  0.47618273  1  0  0.697046  0  3.843753  0  0  0.650806  0  4.139948  0  0  0.683666  0  4.13419  0  0  0.219229  0.628556  0  4.142729  0
N  N60  1  0.75000100  0.41968424  0.54750365  1  0  -0.613981  0  2.832604  0  0  -0.572036  0  3.157007  0  0  -0.594276  0  3.153491  0  0  -0.313142  -0.556933  0  3.159519  0
N  N61  1  0.25000172  0.08029862  0.04749335  1  0  -0.614045  0  2.833243  0  0  -0.572131  0  3.157645  0  0  -0.594392  0  3.154179  0  0  -0.313175  -0.556984  0  3.160039  0
N  N62  1  0.24999848  0.58030626  0.45250176  1  0  -0.614174  0  2.832611  0  0  -0.572278  0  3.157037  0  0  -0.594547  0  3.153568  0  0  -0.313186  -0.557117  0  3.159415  0
N  N63  1  0.75000187  0.91969994  0.95250338  1  0  -0.613995  0  2.833091  0  0  -0.572118  0  3.157558  0  0  -0.594362  0  3.154047  0  0  -0.313129  -0.556984  0  3.159991  0
N  N64  1  0.75000312  0.33674292  0.60363124  1  0  0.441074  0  4.197218  0  0  0.469934  0  4.483676  0  0  0.487345  0  4.510366  0  0  0.092243  0.458073  0  4.465892  0
N  N65  1  0.24999814  0.16324417  0.10362120  1  0  0.441362  0  4.197799  0  0  0.470231  0  4.484258  0  0  0.487641  0  4.510934  0  0  0.09244  0.458381  0  4.466478  0
N  N66  1  0.25000046  0.66324758  0.39637146  1  0  0.44154  0  4.197417  0  0  0.470433  0  4.483847  0  0  0.487845  0  4.510517  0  0  0.092535  0.458574  0  4.466088  0
N  N67  1  0.75000271  0.83675438  0.89637553  1  0  0.441451  0  4.197886  0  0  0.470317  0  4.484344  0  0  0.48773  0  4.511019  0  0  0.092413  0.458462  0  4.466559  0
N  N68  1  0.75000390  0.25599017  0.65788110  1  0  -0.419553  0  2.384484  0  0  -0.420694  0  2.614955  0  0  -0.429275  0  2.624256  0  0  -0.201964  -0.414435  0  2.608816  0
N  N69  1  0.24999595  0.24399851  0.15786970  1  0  -0.419784  0  2.384606  0  0  -0.420919  0  2.615058  0  0  -0.429489  0  2.624347  0  0  -0.202156  -0.414678  0  2.608933  0
N  N70  1  0.25000105  0.74399496  0.34212269  1  0  -0.4199  0  2.385021  0  0  -0.421047  0  2.615472  0  0  -0.429618  0  2.624755  0  0  -0.202237  -0.414814  0  2.609354  0
N  N71  1  0.75000353  0.75600408  0.84212812  1  0  -0.41991  0  2.384805  0  0  -0.421016  0  2.615225  0  0  -0.429589  0  2.624515  0  0  -0.202181  -0.41478  0  2.609097  0
N  N72  1  0.74999532  0.52102436  0.13293086  1  0  0.035236  0  3.546705  0  0  0.129833  0  3.75333  0  0  0.118495  0  3.777967  0  0  -0.199657  0.136956  0  3.737059  0
N  N73  1  0.24999967  0.97897893  0.63293110  1  0  0.03527  0  3.546769  0  0  0.129862  0  3.753426  0  0  0.118526  0  3.778065  0  0  -0.199669  0.136982  0  3.737163  0
N  N74  1  0.25000416  0.47897823  0.86706967  1  0  0.035267  0  3.546654  0  0  0.129833  0  3.753283  0  0  0.118497  0  3.777917  0  0  -0.199658  0.136956  0  3.737005  0
N  N75  1  0.74999981  0.02102366  0.36706835  1  0  0.035166  0  3.546678  0  0  0.129781  0  3.753329  0  0  0.118442  0  3.777967  0  0  -0.199721  0.136909  0  3.737054  0
O  O76  1  0.90613973  0.44141128  0.39263020  1  0  -0.620829  0  2.055578  0  0  -0.565779  0  2.31779  0  0  -0.592328  0  2.307759  0  0  -0.309029  -0.547193  0  2.32388  0
O  O77  1  0.09386905  0.05858874  0.89262707  1  0  -0.620642  0  2.0558  0  0  -0.565539  0  2.317941  0  0  -0.592068  0  2.307896  0  0  -0.308935  -0.546967  0  2.324083  0
O  O78  1  0.40613597  0.55859760  0.60737185  1  0  -0.620594  0  2.055667  0  0  -0.565512  0  2.317836  0  0  -0.592049  0  2.307796  0  0  -0.308935  -0.54694  0  2.323968  0
O  O79  1  0.59385696  0.94141293  0.10737031  1  0  -0.620805  0  2.05554  0  0  -0.565788  0  2.317761  0  0  -0.592336  0  2.307729  0  0  -0.309044  -0.547193  0  2.323841  0
O  O80  1  0.09385839  0.55858324  0.60737033  1  0  -0.620769  0  2.055494  0  0  -0.565743  0  2.31775  0  0  -0.592295  0  2.30772  0  0  -0.308987  -0.547146  0  2.323839  0
O  O81  1  0.90613453  0.94140848  0.10737183  1  0  -0.620594  0  2.055669  0  0  -0.565548  0  2.317857  0  0  -0.592078  0  2.307813  0  0  -0.308931  -0.54698  0  2.323987  0
O  O82  1  0.59386352  0.44141439  0.39262868  1  0  -0.620619  0  2.05561  0  0  -0.565548  0  2.317801  0  0  -0.592085  0  2.307758  0  0  -0.308937  -0.546972  0  2.323902  0
O  O83  1  0.40614526  0.05858697  0.89262914  1  0  -0.62081  0  2.055446  0  0  -0.565784  0  2.317661  0  0  -0.592332  0  2.307628  0  0  -0.30903  -0.547196  0  2.323779  0
O  O84  1  0.90581553  0.26975256  0.01467991  1  0  -0.629483  0  2.077743  0  0  -0.56614  0  2.33498  0  0  -0.594887  0  2.325693  0  0  -0.304233  -0.545724  0  2.340376  0
O  O85  1  0.09417438  0.23024978  0.51467131  1  0  -0.629517  0  2.077461  0  0  -0.566208  0  2.334639  0  0  -0.594936  0  2.325293  0  0  -0.304236  -0.545788  0  2.340044  0
O  O86  1  0.40582469  0.73025767  0.98532215  1  0  -0.629531  0  2.077285  0  0  -0.566244  0  2.334526  0  0  -0.594986  0  2.325221  0  0  -0.304251  -0.545831  0  2.339924  0
O  O87  1  0.59418164  0.76974920  0.48532227  1  0  -0.629469  0  2.077749  0  0  -0.566186  0  2.334991  0  0  -0.594933  0  2.325693  0  0  -0.304254  -0.545768  0  2.340386  0
O  O88  1  0.09418122  0.73024869  0.98532714  1  0  -0.629532  0  2.077891  0  0  -0.566166  0  2.335008  0  0  -0.594918  0  2.325733  0  0  -0.304238  -0.545755  0  2.340408  0
O  O89  1  0.90582374  0.76974744  0.48532488  1  0  -0.629501  0  2.077479  0  0  -0.566213  0  2.334699  0  0  -0.594954  0  2.325385  0  0  -0.304217  -0.545798  0  2.340096  0
O  O90  1  0.59417480  0.26974761  0.01467187  1  0  -0.629704  0  2.077431  0  0  -0.566361  0  2.334627  0  0  -0.595095  0  2.325298  0  0  -0.304284  -0.545944  0  2.340024  0
O  O91  1  0.40581648  0.23025339  0.51467989  1  0  -0.629451  0  2.077878  0  0  -0.566122  0  2.335071  0  0  -0.594856  0  2.32574  0  0  -0.304189  -0.545699  0  2.340469  0
