# generated using pymatgen
data_CdH10C14N2O5
_symmetry_space_group_name_H-M   'P 1'
_cell_length_a   6.09908189
_cell_length_b   7.47660623
_cell_length_c   15.01601120
_cell_angle_alpha   92.31118753
_cell_angle_beta   92.86868095
_cell_angle_gamma   84.87156518
_symmetry_Int_Tables_number   1
_chemical_formula_structural   CdH10C14N2O5
_chemical_formula_sum   'Cd2 H20 C28 N4 O10'
_cell_volume   680.69830297
_cell_formula_units_Z   2
loop_
 _symmetry_equiv_pos_site_id
 _symmetry_equiv_pos_as_xyz
  1  'x, y, z'
loop_
 _atom_site_type_symbol
 _atom_site_label
 _atom_site_symmetry_multiplicity
 _atom_site_fract_x
 _atom_site_fract_y
 _atom_site_fract_z
 _atom_site_occupancy
 _atom_site_hle17_bader_spin_density
 _atom_site_hle17_ddec_charge
 _atom_site_hle17_ddec_spin_density
 _atom_site_hle17_ddec_sum_bond_order
 _atom_site_hle17_magmom
 _atom_site_hse06_10hf_bader_spin_density
 _atom_site_hse06_10hf_ddec_charge
 _atom_site_hse06_10hf_ddec_spin_density
 _atom_site_hse06_10hf_ddec_sum_bond_order
 _atom_site_hse06_10hf_magmom
 _atom_site_hse06_bader_spin_density
 _atom_site_hse06_ddec_charge
 _atom_site_hse06_ddec_spin_density
 _atom_site_hse06_ddec_sum_bond_order
 _atom_site_hse06_magmom
 _atom_site_pbe_bader_spin_density
 _atom_site_pbe_cm5_charge
 _atom_site_pbe_ddec_charge
 _atom_site_pbe_ddec_spin_density
 _atom_site_pbe_ddec_sum_bond_order
 _atom_site_pbe_magmom
Cd  Cd0  1  0.18260158  0.75103390  0.00455823  1  0  1.290574  0  1.563843  0  0  1.114662  0  2.011939  0  0  1.172084  0  1.950287  0  0  0.793465  1.07327  0  2.054802  0
Cd  Cd1  1  0.81739384  0.24896552  0.99544416  1  0  1.290562  0  1.563915  0  0  1.114642  0  2.012026  0  0  1.172062  0  1.950373  0  0  0.79347  1.07325  0  2.05489  0
H  H2  1  0.12430905  0.60001016  0.70465804  1  0  0.116566  0  0.9517  0  0  0.122966  0  1.020057  0  0  0.126163  0  1.018628  0  0  0.109435  0.120496  0  1.021446  0
H  H3  1  0.12848522  0.90999070  0.29961111  1  0  0.11231  0  0.965061  0  0  0.118853  0  1.034377  0  0  0.121986  0  1.03306  0  0  0.107812  0.1164  0  1.035807  0
H  H4  1  0.87567613  0.40000692  0.29533461  1  0  0.116533  0  0.951788  0  0  0.122966  0  1.020089  0  0  0.126158  0  1.018656  0  0  0.109452  0.12049  0  1.021481  0
H  H5  1  0.87153310  0.08997591  0.70038284  1  0  0.112272  0  0.965015  0  0  0.118881  0  1.03424  0  0  0.122015  0  1.032918  0  0  0.107861  0.116425  0  1.035673  0
H  H6  1  0.54334993  0.41445109  0.81017487  1  0  0.109046  0  0.945477  0  0  0.117041  0  1.008587  0  0  0.120656  0  1.005748  0  0  0.106221  0.114431  0  1.010636  0
H  H7  1  0.49843567  0.09433194  0.17745501  1  0  0.104304  0  0.933319  0  0  0.114075  0  0.992411  0  0  0.117528  0  0.990007  0  0  0.106098  0.111593  0  0.99416  0
H  H8  1  0.45664541  0.58558046  0.18981410  1  0  0.109029  0  0.945518  0  0  0.117097  0  1.008577  0  0  0.120698  0  1.005751  0  0  0.106261  0.114489  0  1.01062  0
H  H9  1  0.50156636  0.90564588  0.82254970  1  0  0.104171  0  0.933356  0  0  0.113995  0  0.992364  0  0  0.117449  0  0.989953  0  0  0.106092  0.111507  0  0.994124  0
H  H10  1  0.63599745  0.37896172  0.52625079  1  0  0.099716  0  0.97414  0  0  0.103947  0  1.048308  0  0  0.107208  0  1.045497  0  0  0.10541  0.101628  0  1.050322  0
H  H11  1  0.59915955  0.11444919  0.46434659  1  0  0.102574  0  0.96323  0  0  0.109598  0  1.031404  0  0  0.112911  0  1.028484  0  0  0.107583  0.107307  0  1.033364  0
H  H12  1  0.36397820  0.62106900  0.47373738  1  0  0.09983  0  0.974022  0  0  0.104009  0  1.048205  0  0  0.10727  0  1.045385  0  0  0.105445  0.101689  0  1.050219  0
H  H13  1  0.40089873  0.88556466  0.53565447  1  0  0.102495  0  0.963366  0  0  0.109552  0  1.031469  0  0  0.112854  0  1.028587  0  0  0.107545  0.107272  0  1.0334  0
H  H14  1  0.40784462  0.33134694  0.65558239  1  0  0.095113  0  0.949862  0  0  0.104875  0  1.009249  0  0  0.107044  0  1.010273  0  0  0.101038  0.102996  0  1.009216  0
H  H15  1  0.35455873  0.16863211  0.32820249  1  0  0.092354  0  0.967586  0  0  0.101049  0  1.030019  0  0  0.102895  0  1.03161  0  0  0.099215  0.09952  0  1.029449  0
H  H16  1  0.59216608  0.66868423  0.34441335  1  0  0.095236  0  0.949539  0  0  0.104921  0  1.009027  0  0  0.107136  0  1.010001  0  0  0.101021  0.103059  0  1.008972  0
H  H17  1  0.64546728  0.83135849  0.67180527  1  0  0.092344  0  0.967544  0  0  0.101095  0  1.02994  0  0  0.102899  0  1.031574  0  0  0.099213  0.099564  0  1.02937  0
H  H18  1  0.63939842  0.64570845  0.98787245  1  0  0.430064  0  0.877641  0  0  0.398187  0  0.942915  0  0  0.408873  0  0.927409  0  0  0.289198  0.390633  0  0.953861  0
H  H19  1  0.62080415  0.82587720  0.04678633  1  0  0.429635  0  0.877194  0  0  0.399812  0  0.938517  0  0  0.41039  0  0.923225  0  0  0.288794  0.392347  0  0.94929  0
H  H20  1  0.36056418  0.35426906  0.01213133  1  0  0.430145  0  0.877562  0  0  0.398267  0  0.942808  0  0  0.408949  0  0.927309  0  0  0.289261  0.390713  0  0.953753  0
H  H21  1  0.37919042  0.17407941  0.95322927  1  0  0.429809  0  0.877064  0  0  0.399997  0  0.938328  0  0  0.410569  0  0.923053  0  0  0.288951  0.392533  0  0.949098  0
C  C22  1  0.96809633  0.54011804  0.69435386  1  0  -0.111138  0  3.662412  0  0  -0.144741  0  3.909991  0  0  -0.143966  0  3.930099  0  0  -0.069493  -0.145088  0  3.896769  0
C  C23  1  0.95905525  0.96710059  0.30538868  1  0  -0.109122  0  3.667264  0  0  -0.144055  0  3.914094  0  0  -0.144184  0  3.935415  0  0  -0.069552  -0.14377  0  3.900021  0
C  C24  1  0.03187839  0.45991274  0.30564297  1  0  -0.111096  0  3.662606  0  0  -0.144636  0  3.910277  0  0  -0.143848  0  3.930377  0  0  -0.069458  -0.144983  0  3.897053  0
C  C25  1  0.04096638  0.03287132  0.69461005  1  0  -0.10911  0  3.667045  0  0  -0.144  0  3.913939  0  0  -0.144132  0  3.935254  0  0  -0.06956  -0.143703  0  3.899865  0
C  C26  1  0.84142017  0.51283433  0.76710243  1  0  -0.079845  0  3.760432  0  0  -0.05371  0  3.993855  0  0  -0.064293  0  4.018261  0  0  -0.022173  -0.046761  0  3.977256  0
C  C27  1  0.82204184  0.99643157  0.22892305  1  0  -0.069278  0  3.762491  0  0  -0.042249  0  3.993607  0  0  -0.052105  0  4.017594  0  0  -0.02072  -0.035756  0  3.977256  0
C  C28  1  0.15856555  0.48720287  0.23289392  1  0  -0.079835  0  3.76066  0  0  -0.053668  0  3.994044  0  0  -0.064256  0  4.018442  0  0  -0.022219  -0.046719  0  3.977445  0
C  C29  1  0.17795504  0.00355041  0.77108237  1  0  -0.069306  0  3.762269  0  0  -0.042386  0  3.993529  0  0  -0.052236  0  4.017525  0  0  -0.020752  -0.035892  0  3.977168  0
C  C30  1  0.63969314  0.43664852  0.75304420  1  0  -0.029315  0  3.66729  0  0  -0.057867  0  3.9165  0  0  -0.055348  0  3.93511  0  0  -0.068638  -0.059202  0  3.903692  0
C  C31  1  0.60396302  0.06985777  0.23721941  1  0  -0.030727  0  3.662615  0  0  -0.058049  0  3.910093  0  0  -0.056367  0  3.929356  0  0  -0.069483  -0.058788  0  3.896786  0
C  C32  1  0.36029114  0.56338334  0.24695004  1  0  -0.029445  0  3.66769  0  0  -0.058084  0  3.916906  0  0  -0.05555  0  3.935517  0  0  -0.068663  -0.059418  0  3.904103  0
C  C33  1  0.39603601  0.93011745  0.76278656  1  0  -0.030574  0  3.662349  0  0  -0.057887  0  3.909833  0  0  -0.056206  0  3.929092  0  0  -0.069442  -0.058625  0  3.896518  0
C  C34  1  0.89409362  0.49067447  0.60776203  1  0  0.142545  0  3.806878  0  0  0.151302  0  4.057492  0  0  0.148875  0  4.082308  0  0  0.082765  0.152764  0  4.040842  0
C  C35  1  0.87992483  0.01154199  0.38993576  1  0  0.144163  0  3.815346  0  0  0.15152  0  4.068434  0  0  0.149479  0  4.093171  0  0  0.083362  0.152698  0  4.051736  0
C  C36  1  0.10588440  0.50933613  0.39223778  1  0  0.142677  0  3.806732  0  0  0.151123  0  4.057715  0  0  0.148695  0  4.082528  0  0  0.082714  0.152587  0  4.041064  0
C  C37  1  0.12012003  0.98843201  0.61006783  1  0  0.144313  0  3.815283  0  0  0.15143  0  4.068675  0  0  0.149399  0  4.093397  0  0  0.083304  0.152589  0  4.052013  0
C  C38  1  0.91956001  0.56688833  0.85919812  1  0  0.67765  0  3.877395  0  0  0.624052  0  4.164022  0  0  0.660489  0  4.156237  0  0  0.218232  0.599244  0  4.168379  0
C  C39  1  0.91232473  0.95025619  0.13991975  1  0  0.667356  0  3.889311  0  0  0.61177  0  4.179087  0  0  0.647835  0  4.171343  0  0  0.212845  0.58722  0  4.183459  0
C  C40  1  0.08041477  0.43311832  0.14079893  1  0  0.677618  0  3.876981  0  0  0.624035  0  4.16361  0  0  0.660475  0  4.155816  0  0  0.218212  0.599227  0  4.16797  0
C  C41  1  0.08766268  0.04973943  0.86008185  1  0  0.667318  0  3.889338  0  0  0.611775  0  4.179109  0  0  0.647816  0  4.171411  0  0  0.212895  0.587233  0  4.183456  0
C  C42  1  0.69057958  0.41587649  0.59404968  1  0  -0.097362  0  3.686382  0  0  -0.124356  0  3.938548  0  0  -0.124207  0  3.958016  0  0  -0.071253  -0.12433  0  3.925377  0
C  C43  1  0.65963207  0.08234608  0.39811910  1  0  -0.100276  0  3.685414  0  0  -0.126842  0  3.936329  0  0  -0.12695  0  3.955697  0  0  -0.071265  -0.126603  0  3.923133  0
C  C44  1  0.30940049  0.58414072  0.40594093  1  0  -0.097671  0  3.686157  0  0  -0.124483  0  3.938356  0  0  -0.124334  0  3.957839  0  0  -0.071298  -0.12446  0  3.925192  0
C  C45  1  0.34042171  0.91763840  0.60188207  1  0  -0.100299  0  3.685428  0  0  -0.126787  0  3.936358  0  0  -0.126904  0  3.95571  0  0  -0.071122  -0.126544  0  3.923182  0
C  C46  1  0.56496777  0.38967184  0.66645293  1  0  -0.067362  0  3.749163  0  0  -0.076875  0  4.002519  0  0  -0.081918  0  4.025098  0  0  -0.084367  -0.073497  0  3.987672  0
C  C47  1  0.52394745  0.11150500  0.32190161  1  0  -0.066311  0  3.759822  0  0  -0.07562  0  4.011701  0  0  -0.080699  0  4.035962  0  0  -0.084833  -0.072206  0  3.995461  0
C  C48  1  0.43502174  0.61037461  0.33353761  1  0  -0.067342  0  3.748684  0  0  -0.076788  0  4.00202  0  0  -0.081873  0  4.024582  0  0  -0.084349  -0.073424  0  3.98717  0
C  C49  1  0.47607836  0.88849098  0.67810824  1  0  -0.066354  0  3.759531  0  0  -0.075715  0  4.011387  0  0  -0.08076  0  4.035675  0  0  -0.084956  -0.0723  0  3.995142  0
N  N50  1  0.03713704  0.51868757  0.53911637  1  0  -0.147972  0  2.991658  0  0  -0.124174  0  3.272571  0  0  -0.123523  0  3.281786  0  0  -0.146155  -0.124512  0  3.26659  0
N  N51  1  0.03747187  0.98453360  0.46164972  1  0  -0.146721  0  2.998427  0  0  -0.122677  0  3.281197  0  0  -0.122606  0  3.290819  0  0  -0.143849  -0.122279  0  3.274459  0
N  N52  1  0.96282486  0.48131943  0.46088393  1  0  -0.147885  0  2.991465  0  0  -0.123918  0  3.272424  0  0  -0.123272  0  3.281643  0  0  -0.145973  -0.124255  0  3.266442  0
N  N53  1  0.96258448  0.01543875  0.53835258  1  0  -0.14641  0  2.998478  0  0  -0.122257  0  3.281276  0  0  -0.122183  0  3.290889  0  0  -0.143675  -0.121855  0  3.274546  0
O  O54  1  0.54623793  0.71373810  0.03270946  1  0  -0.849859  0  1.843707  0  0  -0.779064  0  2.039423  0  0  -0.803795  0  2.005079  0  0  -0.593505  -0.761524  0  2.063181  0
O  O55  1  0.45374740  0.28621609  0.96731137  1  0  -0.850124  0  1.843604  0  0  -0.779304  0  2.039496  0  0  -0.804034  0  2.005145  0  0  -0.593724  -0.761762  0  2.063259  0
O  O56  1  0.81251251  0.52708824  0.92582605  1  0  -0.722197  0  2.131811  0  0  -0.646297  0  2.387338  0  0  -0.675368  0  2.371541  0  0  -0.336084  -0.625783  0  2.397531  0
O  O57  1  0.78862722  0.97856155  0.06873836  1  0  -0.735553  0  2.098603  0  0  -0.660636  0  2.352992  0  0  -0.688665  0  2.33486  0  0  -0.341541  -0.640836  0  2.364819  0
O  O58  1  0.18745385  0.47290921  0.07416079  1  0  -0.722123  0  2.131344  0  0  -0.646253  0  2.386884  0  0  -0.675317  0  2.371085  0  0  -0.336072  -0.625749  0  2.3971  0
O  O59  1  0.21136815  0.02141105  0.93126088  1  0  -0.735494  0  2.098665  0  0  -0.66059  0  2.353027  0  0  -0.688603  0  2.334898  0  0  -0.341485  -0.640799  0  2.364867  0
O  O60  1  0.09011150  0.65426210  0.86778585  1  0  -0.629946  0  2.024542  0  0  -0.557199  0  2.275435  0  0  -0.589434  0  2.265639  0  0  -0.310702  -0.534551  0  2.281252  0
O  O61  1  0.10970905  0.88020431  0.13717598  1  0  -0.621203  0  2.020417  0  0  -0.549594  0  2.270354  0  0  -0.581293  0  2.262029  0  0  -0.308044  -0.527341  0  2.275191  0
O  O62  1  0.90989241  0.34572904  0.13221312  1  0  -0.629931  0  2.024748  0  0  -0.557196  0  2.275637  0  0  -0.589428  0  2.265842  0  0  -0.310705  -0.534552  0  2.281457  0
O  O63  1  0.89029449  0.11981634  0.86282352  1  0  -0.621133  0  2.020408  0  0  -0.549535  0  2.270311  0  0  -0.581202  0  2.261948  0  0  -0.308064  -0.527304  0  2.275185  0
