# generated using pymatgen
data_GdH10(C3O4)2
_symmetry_space_group_name_H-M   'P 1'
_cell_length_a   8.58796247
_cell_length_b   9.30228129
_cell_length_c   12.52269664
_cell_angle_alpha   89.99992708
_cell_angle_beta   89.99998328
_cell_angle_gamma   101.95665457
_symmetry_Int_Tables_number   1
_chemical_formula_structural   GdH10(C3O4)2
_chemical_formula_sum   'Gd4 H40 C24 O32'
_cell_volume   978.70445589
_cell_formula_units_Z   4
loop_
 _symmetry_equiv_pos_site_id
 _symmetry_equiv_pos_as_xyz
  1  'x, y, z'
loop_
 _atom_site_type_symbol
 _atom_site_label
 _atom_site_symmetry_multiplicity
 _atom_site_fract_x
 _atom_site_fract_y
 _atom_site_fract_z
 _atom_site_occupancy
 _atom_site_hle17_bader_spin_density
 _atom_site_hle17_ddec_charge
 _atom_site_hle17_ddec_spin_density
 _atom_site_hle17_ddec_sum_bond_order
 _atom_site_hle17_magmom
 _atom_site_hse06_10hf_bader_spin_density
 _atom_site_hse06_10hf_ddec_charge
 _atom_site_hse06_10hf_ddec_spin_density
 _atom_site_hse06_10hf_ddec_sum_bond_order
 _atom_site_hse06_10hf_magmom
 _atom_site_hse06_bader_spin_density
 _atom_site_hse06_ddec_charge
 _atom_site_hse06_ddec_spin_density
 _atom_site_hse06_ddec_sum_bond_order
 _atom_site_hse06_magmom
 _atom_site_pbe_bader_spin_density
 _atom_site_pbe_cm5_charge
 _atom_site_pbe_ddec_charge
 _atom_site_pbe_ddec_spin_density
 _atom_site_pbe_ddec_sum_bond_order
 _atom_site_pbe_magmom
Gd  Gd0  1  0.59724447  0.22081487  0.90710957  1  0  2.189118  0  1.785869  0  0  2.098415  0  2.142834  0  0  2.150885  0  2.086967  0  0  1.479244  2.056971  0  2.188616  0
Gd  Gd1  1  0.90275623  0.77918330  0.40710994  1  0  2.189121  0  1.785865  0  0  2.098347  0  2.142916  0  0  2.15083  0  2.087025  0  0  1.47923  2.056915  0  2.188678  0
Gd  Gd2  1  0.40275586  0.77918185  0.09288933  1  0  2.189095  0  1.785884  0  0  2.098401  0  2.142826  0  0  2.15088  0  2.08694  0  0  1.479241  2.057011  0  2.188518  0
Gd  Gd3  1  0.09724294  0.22081341  0.59288976  1  0  2.189144  0  1.785819  0  0  2.098412  0  2.142813  0  0  2.150889  0  2.086938  0  0  1.479239  2.056962  0  2.188609  0
H  H4  1  0.02474557  0.10062255  0.16741437  1  0  0.073815  0  0.931925  0  0  0.091265  0  0.992236  0  0  0.092715  0  0.992316  0  0  0.095765  0.090012  0  0.992568  0
H  H5  1  0.47525295  0.89937695  0.66741328  1  0  0.073818  0  0.931932  0  0  0.091271  0  0.992238  0  0  0.092719  0  0.992323  0  0  0.095773  0.090018  0  0.99257  0
H  H6  1  0.97525150  0.89937524  0.83258692  1  0  0.073836  0  0.931937  0  0  0.091293  0  0.992236  0  0  0.092741  0  0.992321  0  0  0.095782  0.09004  0  0.992568  0
H  H7  1  0.52474717  0.10062415  0.33258561  1  0  0.073834  0  0.931929  0  0  0.091286  0  0.992239  0  0  0.092735  0  0.992323  0  0  0.095773  0.090032  0  0.992571  0
H  H8  1  0.03817788  0.29110670  0.18647487  1  0  0.078014  0  0.91764  0  0  0.101689  0  0.966826  0  0  0.102204  0  0.96784  0  0  0.102145  0.101217  0  0.966275  0
H  H9  1  0.46182272  0.70889169  0.68647396  1  0  0.078005  0  0.917643  0  0  0.10168  0  0.966834  0  0  0.102215  0  0.96782  0  0  0.10214  0.101209  0  0.966279  0
H  H10  1  0.96182176  0.70889221  0.81352642  1  0  0.078012  0  0.917641  0  0  0.101687  0  0.966832  0  0  0.102221  0  0.967818  0  0  0.102145  0.101216  0  0.966277  0
H  H11  1  0.53817599  0.29110831  0.31352573  1  0  0.078028  0  0.91764  0  0  0.101701  0  0.966827  0  0  0.102235  0  0.967814  0  0  0.102142  0.101229  0  0.966272  0
H  H12  1  0.14513004  0.34188449  0.00085986  1  0  0.119183  0  0.951385  0  0  0.135423  0  1.006697  0  0  0.137663  0  1.006501  0  0  0.109235  0.133901  0  1.006746  0
H  H13  1  0.35486745  0.65811531  0.50085982  1  0  0.119223  0  0.951338  0  0  0.135422  0  1.006689  0  0  0.137663  0  1.006493  0  0  0.109232  0.133901  0  1.006739  0
H  H14  1  0.85486844  0.65811440  0.99914143  1  0  0.119198  0  0.951341  0  0  0.135406  0  1.006688  0  0  0.137645  0  1.006494  0  0  0.109236  0.133884  0  1.006739  0
H  H15  1  0.64513126  0.34188469  0.49914067  1  0  0.119164  0  0.951401  0  0  0.135405  0  1.006707  0  0  0.137644  0  1.006513  0  0  0.10924  0.133883  0  1.006759  0
H  H16  1  0.12684146  0.15287313  0.97743076  1  0  0.117415  0  0.917728  0  0  0.134522  0  0.972668  0  0  0.136836  0  0.972241  0  0  0.111126  0.13273  0  0.973524  0
H  H17  1  0.37315586  0.84712688  0.47743028  1  0  0.117396  0  0.917725  0  0  0.134498  0  0.972658  0  0  0.136814  0  0.97223  0  0  0.111104  0.132707  0  0.973513  0
H  H18  1  0.87315725  0.84712686  0.02257053  1  0  0.117377  0  0.917735  0  0  0.134482  0  0.972671  0  0  0.136797  0  0.972243  0  0  0.111117  0.132689  0  0.973526  0
H  H19  1  0.62684168  0.15287310  0.52256862  1  0  0.117411  0  0.917692  0  0  0.134518  0  0.972625  0  0  0.136834  0  0.972196  0  0  0.111126  0.132726  0  0.973481  0
H  H20  1  0.33174320  0.33961028  0.15715525  1  0  0.104637  0  0.936976  0  0  0.118141  0  0.99742  0  0  0.119873  0  0.996945  0  0  0.103042  0.116729  0  0.998413  0
H  H21  1  0.16825650  0.66038925  0.65715605  1  0  0.104644  0  0.937006  0  0  0.118104  0  0.997472  0  0  0.119836  0  0.996999  0  0  0.103036  0.116696  0  0.998465  0
H  H22  1  0.66825621  0.66038753  0.84284444  1  0  0.10462  0  0.937029  0  0  0.118084  0  0.997499  0  0  0.119816  0  0.997025  0  0  0.10302  0.116675  0  0.998491  0
H  H23  1  0.83174105  0.33961073  0.34284364  1  0  0.104681  0  0.936921  0  0  0.118125  0  0.997422  0  0  0.119857  0  0.996946  0  0  0.103039  0.116716  0  0.998414  0
H  H24  1  0.26778838  0.22171204  0.26714441  1  0  0.120602  0  0.938233  0  0  0.133131  0  0.99932  0  0  0.13619  0  0.997745  0  0  0.109002  0.130834  0  1.000507  0
H  H25  1  0.23220958  0.77828508  0.76714508  1  0  0.120555  0  0.938283  0  0  0.1331  0  0.99934  0  0  0.136159  0  0.997764  0  0  0.108985  0.130804  0  1.000531  0
H  H26  1  0.73220939  0.77828356  0.73285529  1  0  0.12057  0  0.938281  0  0  0.133115  0  0.999343  0  0  0.136174  0  0.997769  0  0  0.108988  0.130819  0  1.000535  0
H  H27  1  0.76778773  0.22171381  0.23285382  1  0  0.120587  0  0.938235  0  0  0.133115  0  0.999323  0  0  0.136174  0  0.997746  0  0  0.108993  0.130819  0  1.000511  0
H  H28  1  0.30316289  0.99156357  0.88869627  1  0  0.445071  0  0.852794  0  0  0.413575  0  0.918656  0  0  0.424278  0  0.902817  0  0  0.306227  0.4059  0  0.93  0
H  H29  1  0.19683592  0.00843771  0.38869820  1  0  0.445018  0  0.852855  0  0  0.413514  0  0.918734  0  0  0.424219  0  0.902891  0  0  0.306199  0.405839  0  0.930078  0
H  H30  1  0.69683466  0.00843641  0.11130183  1  0  0.445025  0  0.852851  0  0  0.413525  0  0.918722  0  0  0.42423  0  0.902881  0  0  0.306206  0.405849  0  0.930068  0
H  H31  1  0.80316350  0.99156558  0.61130309  1  0  0.445127  0  0.852712  0  0  0.413591  0  0.918657  0  0  0.424301  0  0.902805  0  0  0.306229  0.405917  0  0.930002  0
H  H32  1  0.74112061  0.34829476  0.69275710  1  0  0.454212  0  0.830837  0  0  0.425135  0  0.889672  0  0  0.436515  0  0.873017  0  0  0.307399  0.417061  0  0.901503  0
H  H33  1  0.75887841  0.65170599  0.19275842  1  0  0.454241  0  0.830804  0  0  0.425149  0  0.889666  0  0  0.436532  0  0.873006  0  0  0.307386  0.417071  0  0.901504  0
H  H34  1  0.25887810  0.65170523  0.30724180  1  0  0.454212  0  0.830848  0  0  0.425119  0  0.889712  0  0  0.436503  0  0.87305  0  0  0.307371  0.417042  0  0.901547  0
H  H35  1  0.24112030  0.34829400  0.80724208  1  0  0.454253  0  0.830791  0  0  0.42517  0  0.889637  0  0  0.436552  0  0.872979  0  0  0.307389  0.417094  0  0.90147  0
H  H36  1  0.30434449  0.05531393  0.77144081  1  0  0.447334  0  0.854642  0  0  0.417378  0  0.915948  0  0  0.428709  0  0.89964  0  0  0.301778  0.409234  0  0.927684  0
H  H37  1  0.19565370  0.94468427  0.27144266  1  0  0.447357  0  0.854605  0  0  0.417401  0  0.915911  0  0  0.42873  0  0.899605  0  0  0.301785  0.409255  0  0.927649  0
H  H38  1  0.69565258  0.94468385  0.22855728  1  0  0.44742  0  0.854522  0  0  0.417435  0  0.915886  0  0  0.428766  0  0.899577  0  0  0.301785  0.409285  0  0.927626  0
H  H39  1  0.80434571  0.05531353  0.72855863  1  0  0.447354  0  0.854608  0  0  0.417408  0  0.915897  0  0  0.428738  0  0.899591  0  0  0.301785  0.409263  0  0.927636  0
H  H40  1  0.55032283  0.32327894  0.68588800  1  0  0.448308  0  0.845065  0  0  0.418305  0  0.905753  0  0  0.429771  0  0.889168  0  0  0.301857  0.410197  0  0.917433  0
H  H41  1  0.94967760  0.67672293  0.18588846  1  0  0.448344  0  0.845007  0  0  0.418335  0  0.905705  0  0  0.429799  0  0.889122  0  0  0.301858  0.410227  0  0.917386  0
H  H42  1  0.44967728  0.67672216  0.31411249  1  0  0.448358  0  0.844989  0  0  0.418351  0  0.905685  0  0  0.429816  0  0.8891  0  0  0.301866  0.410243  0  0.917365  0
H  H43  1  0.05032252  0.32327817  0.81411123  1  0  0.448352  0  0.845  0  0  0.418343  0  0.9057  0  0  0.429807  0  0.889117  0  0  0.301861  0.410235  0  0.917381  0
C  C44  1  0.34556670  0.11433064  0.13195152  1  0  0.778159  0  3.765192  0  0  0.735404  0  4.060905  0  0  0.769468  0  4.051721  0  0  0.244032  0.712088  0  4.066523  0
C  C45  1  0.15443230  0.88566564  0.63195051  1  0  0.777926  0  3.765377  0  0  0.735364  0  4.060814  0  0  0.769429  0  4.051629  0  0  0.244044  0.71205  0  4.066438  0
C  C46  1  0.65443130  0.88566606  0.86804977  1  0  0.777886  0  3.765481  0  0  0.735375  0  4.06085  0  0  0.769451  0  4.051642  0  0  0.244061  0.712061  0  4.06647  0
C  C47  1  0.84556570  0.11433106  0.36804838  1  0  0.777956  0  3.765577  0  0  0.735304  0  4.061133  0  0  0.769387  0  4.051918  0  0  0.243966  0.711987  0  4.066755  0
C  C48  1  0.09090213  0.20993153  0.14344663  1  0  -0.041808  0  3.652385  0  0  -0.084619  0  3.910962  0  0  -0.084049  0  3.923883  0  0  -0.155386  -0.084686  0  3.901879  0
C  C49  1  0.40909874  0.79006803  0.64344566  1  0  -0.041759  0  3.652395  0  0  -0.084586  0  3.910937  0  0  -0.084031  0  3.923872  0  0  -0.15537  -0.084645  0  3.90185  0
C  C50  1  0.90909867  0.79006738  0.85655466  1  0  -0.041818  0  3.65237  0  0  -0.084644  0  3.910937  0  0  -0.084091  0  3.923872  0  0  -0.155396  -0.084704  0  3.901851  0
C  C51  1  0.59090138  0.20993307  0.35655324  1  0  -0.041853  0  3.652368  0  0  -0.084669  0  3.910925  0  0  -0.084114  0  3.923853  0  0  -0.155391  -0.084731  0  3.901839  0
C  C52  1  0.90984834  0.22556828  0.98311553  1  0  0.727065  0  3.795871  0  0  0.677327  0  4.101471  0  0  0.711109  0  4.093499  0  0  0.21455  0.654864  0  4.10495  0
C  C53  1  0.59015231  0.77443524  0.48311596  1  0  0.727163  0  3.795849  0  0  0.677375  0  4.101508  0  0  0.711158  0  4.093534  0  0  0.214549  0.654913  0  4.104988  0
C  C54  1  0.09015341  0.77443503  0.01688337  1  0  0.727099  0  3.795931  0  0  0.677336  0  4.101565  0  0  0.711119  0  4.093592  0  0  0.214517  0.654874  0  4.105048  0
C  C55  1  0.40984851  0.22556916  0.51688533  1  0  0.72707  0  3.795865  0  0  0.677328  0  4.101461  0  0  0.711109  0  4.093488  0  0  0.214559  0.654866  0  4.104944  0
C  C56  1  0.07620315  0.23330673  0.02374557  1  0  -0.280807  0  3.662718  0  0  -0.313778  0  3.906063  0  0  -0.320551  0  3.91509  0  0  -0.164355  -0.309516  0  3.90026  0
C  C57  1  0.42379549  0.76669303  0.52374382  1  0  -0.280848  0  3.66268  0  0  -0.313755  0  3.905999  0  0  -0.320534  0  3.915034  0  0  -0.164336  -0.309497  0  3.900195  0
C  C58  1  0.92379439  0.76669325  0.97625572  1  0  -0.280787  0  3.662656  0  0  -0.313715  0  3.905993  0  0  -0.320493  0  3.91503  0  0  -0.164365  -0.309455  0  3.900187  0
C  C59  1  0.57620206  0.23330695  0.47625508  1  0  -0.280765  0  3.662683  0  0  -0.313718  0  3.906003  0  0  -0.320497  0  3.915041  0  0  -0.164354  -0.309457  0  3.900201  0
C  C60  1  0.26526929  0.22992460  0.17966564  1  0  -0.282526  0  3.633758  0  0  -0.320265  0  3.88252  0  0  -0.325964  0  3.889383  0  0  -0.159914  -0.315997  0  3.877935  0
C  C61  1  0.23473201  0.77007161  0.67966632  1  0  -0.282459  0  3.633868  0  0  -0.320212  0  3.88256  0  0  -0.325915  0  3.889428  0  0  -0.159909  -0.315956  0  3.877989  0
C  C62  1  0.73473081  0.77007102  0.82033405  1  0  -0.282443  0  3.633852  0  0  -0.320217  0  3.882532  0  0  -0.325923  0  3.889399  0  0  -0.159894  -0.315961  0  3.877963  0
C  C63  1  0.76526833  0.22992511  0.32033337  1  0  -0.282505  0  3.633797  0  0  -0.320226  0  3.882528  0  0  -0.32593  0  3.889389  0  0  -0.15991  -0.315966  0  3.877954  0
C  C64  1  0.57479791  0.51144391  0.03663079  1  0  0.548551  0  3.947793  0  0  0.501432  0  4.262121  0  0  0.530614  0  4.254268  0  0  0.217521  0.48109  0  4.26789  0
C  C65  1  0.92520592  0.48856265  0.53662131  1  0  0.548711  0  3.947908  0  0  0.501556  0  4.262224  0  0  0.530743  0  4.25436  0  0  0.217496  0.481198  0  4.268028  0
C  C66  1  0.42520922  0.48856273  0.96337849  1  0  0.548938  0  3.947844  0  0  0.501771  0  4.26217  0  0  0.53096  0  4.254301  0  0  0.217565  0.481409  0  4.267972  0
C  C67  1  0.07479490  0.51144174  0.46336880  1  0  0.548655  0  3.947694  0  0  0.501531  0  4.262012  0  0  0.530713  0  4.254158  0  0  0.21752  0.481175  0  4.267807  0
O  O68  1  0.58541459  0.61068819  0.10770888  1  0  -0.659457  0  2.087171  0  0  -0.609686  0  2.321864  0  0  -0.635007  0  2.313238  0  0  -0.347706  -0.591969  0  2.328601  0
O  O69  1  0.91459688  0.38931611  0.60769870  1  0  -0.659642  0  2.087164  0  0  -0.609881  0  2.32189  0  0  -0.635203  0  2.313256  0  0  -0.347791  -0.59215  0  2.328641  0
O  O70  1  0.41459836  0.38931302  0.89229880  1  0  -0.659734  0  2.087097  0  0  -0.609966  0  2.32183  0  0  -0.635288  0  2.313194  0  0  -0.347815  -0.592235  0  2.32858  0
O  O71  1  0.08541189  0.61069274  0.39229220  1  0  -0.659536  0  2.087156  0  0  -0.609753  0  2.321854  0  0  -0.635075  0  2.313228  0  0  -0.347763  -0.592022  0  2.328598  0
O  O72  1  0.44337458  0.14616716  0.05574826  1  0  -0.754379  0  2.072542  0  0  -0.71488  0  2.33918  0  0  -0.741648  0  2.328969  0  0  -0.40193  -0.695863  0  2.347175  0
O  O73  1  0.05662451  0.85383474  0.55574890  1  0  -0.754313  0  2.07266  0  0  -0.714873  0  2.339197  0  0  -0.741642  0  2.328984  0  0  -0.40194  -0.695856  0  2.347194  0
O  O74  1  0.55662578  0.85383504  0.94425143  1  0  -0.754276  0  2.072726  0  0  -0.71487  0  2.339262  0  0  -0.741642  0  2.329042  0  0  -0.401946  -0.69586  0  2.347253  0
O  O75  1  0.94337375  0.14616854  0.44425079  1  0  -0.754281  0  2.072672  0  0  -0.714814  0  2.339245  0  0  -0.74159  0  2.329026  0  0  -0.40189  -0.695795  0  2.347242  0
O  O76  1  0.30794003  0.98315584  0.16900224  1  0  -0.742399  0  2.093828  0  0  -0.688397  0  2.332357  0  0  -0.716002  0  2.322543  0  0  -0.372693  -0.668541  0  2.339122  0
O  O77  1  0.19206197  0.01683820  0.66900364  1  0  -0.742268  0  2.0938  0  0  -0.688339  0  2.332251  0  0  -0.71594  0  2.322428  0  0  -0.372677  -0.668472  0  2.339017  0
O  O78  1  0.69206193  0.01683760  0.83099586  1  0  -0.742263  0  2.093846  0  0  -0.688375  0  2.332293  0  0  -0.715979  0  2.322462  0  0  -0.372686  -0.668511  0  2.339058  0
O  O79  1  0.80793813  0.98315742  0.33099605  1  0  -0.742371  0  2.09391  0  0  -0.688369  0  2.332379  0  0  -0.715984  0  2.322559  0  0  -0.37267  -0.668501  0  2.339146  0
O  O80  1  0.89036140  0.28816330  0.89408436  1  0  -0.69303  0  1.962428  0  0  -0.638175  0  2.184582  0  0  -0.6648  0  2.174667  0  0  -0.358401  -0.618476  0  2.189776  0
O  O81  1  0.60963838  0.71183598  0.39408485  1  0  -0.693054  0  1.962417  0  0  -0.638171  0  2.184588  0  0  -0.664798  0  2.174672  0  0  -0.358391  -0.618473  0  2.189782  0
O  O82  1  0.10963824  0.71183560  0.10591534  1  0  -0.693062  0  1.96241  0  0  -0.638186  0  2.184561  0  0  -0.664813  0  2.174645  0  0  -0.358399  -0.618492  0  2.189752  0
O  O83  1  0.39036314  0.28816623  0.60591564  1  0  -0.693006  0  1.962437  0  0  -0.638166  0  2.184607  0  0  -0.664792  0  2.174691  0  0  -0.358385  -0.618465  0  2.189803  0
O  O84  1  0.78771342  0.15812575  0.03456668  1  0  -0.706175  0  2.02947  0  0  -0.652933  0  2.269158  0  0  -0.679141  0  2.259535  0  0  -0.363665  -0.633918  0  2.275078  0
O  O85  1  0.71228433  0.84187418  0.53456730  1  0  -0.706264  0  2.029517  0  0  -0.653001  0  2.269262  0  0  -0.679214  0  2.259638  0  0  -0.36366  -0.633991  0  2.275183  0
O  O86  1  0.21228505  0.84187314  0.96543301  1  0  -0.706167  0  2.029619  0  0  -0.652938  0  2.269343  0  0  -0.679146  0  2.25972  0  0  -0.363628  -0.633934  0  2.275265  0
O  O87  1  0.28771322  0.15812580  0.46543479  1  0  -0.706237  0  2.029504  0  0  -0.652986  0  2.269198  0  0  -0.679196  0  2.259574  0  0  -0.36369  -0.633971  0  2.275121  0
O  O88  1  0.64201522  0.32466022  0.73594670  1  0  -0.923305  0  1.809378  0  0  -0.882285  0  1.994964  0  0  -0.902021  0  1.959801  0  0  -0.654303  -0.867628  0  2.020502  0
O  O89  1  0.85798821  0.67534488  0.23594718  1  0  -0.923383  0  1.809299  0  0  -0.882348  0  1.994905  0  0  -0.902087  0  1.95974  0  0  -0.654296  -0.867689  0  2.02044  0
O  O90  1  0.35798654  0.67534309  0.26405299  1  0  -0.923375  0  1.809325  0  0  -0.882351  0  1.994921  0  0  -0.902091  0  1.959754  0  0  -0.65429  -0.8677  0  2.020452  0
O  O91  1  0.14201330  0.32465733  0.76405252  1  0  -0.923376  0  1.809272  0  0  -0.882345  0  1.994866  0  0  -0.902082  0  1.959706  0  0  -0.654281  -0.867681  0  2.0204  0
O  O92  1  0.35973830  0.07200307  0.84252214  1  0  -0.933441  0  1.84776  0  0  -0.896542  0  2.049435  0  0  -0.916003  0  2.016451  0  0  -0.660601  -0.882316  0  2.073141  0
O  O93  1  0.14025821  0.92799828  0.34252242  1  0  -0.933401  0  1.847775  0  0  -0.896501  0  2.049456  0  0  -0.915964  0  2.016473  0  0  -0.660579  -0.882277  0  2.073162  0
O  O94  1  0.64025808  0.92799690  0.15747756  1  0  -0.933432  0  1.847681  0  0  -0.896527  0  2.049344  0  0  -0.91599  0  2.016361  0  0  -0.66058  -0.882304  0  2.073057  0
O  O95  1  0.85973980  0.07200390  0.65747728  1  0  -0.933505  0  1.847639  0  0  -0.896595  0  2.049298  0  0  -0.916058  0  2.016316  0  0  -0.660618  -0.882367  0  2.073004  0
O  O96  1  0.67461451  0.43210619  0.01929829  1  0  -0.634218  0  2.057298  0  0  -0.599592  0  2.29661  0  0  -0.621657  0  2.287922  0  0  -0.363961  -0.583937  0  2.302175  0
O  O97  1  0.82538978  0.56789163  0.51929515  1  0  -0.634126  0  2.057588  0  0  -0.599483  0  2.29691  0  0  -0.621549  0  2.288218  0  0  -0.363866  -0.583826  0  2.302487  0
O  O98  1  0.32539328  0.56788729  0.98070540  1  0  -0.634208  0  2.057649  0  0  -0.599578  0  2.296993  0  0  -0.621644  0  2.288296  0  0  -0.363902  -0.583929  0  2.302572  0
O  O99  1  0.17461079  0.43210618  0.48070055  1  0  -0.634206  0  2.057316  0  0  -0.599568  0  2.29662  0  0  -0.621633  0  2.28793  0  0  -0.36392  -0.583909  0  2.302195  0
