# generated using pymatgen
data_MnH10C12(SN2)2
_symmetry_space_group_name_H-M   'P 1'
_cell_length_a   8.66087144
_cell_length_b   8.43510891
_cell_length_c   15.70354447
_cell_angle_alpha   93.45468871
_cell_angle_beta   96.41821263
_cell_angle_gamma   114.06177239
_symmetry_Int_Tables_number   1
_chemical_formula_structural   MnH10C12(SN2)2
_chemical_formula_sum   'Mn3 H30 C36 S6 N12'
_cell_volume   1033.87097849
_cell_formula_units_Z   3
loop_
 _symmetry_equiv_pos_site_id
 _symmetry_equiv_pos_as_xyz
  1  'x, y, z'
loop_
 _atom_site_type_symbol
 _atom_site_label
 _atom_site_symmetry_multiplicity
 _atom_site_fract_x
 _atom_site_fract_y
 _atom_site_fract_z
 _atom_site_occupancy
 _atom_site_hle17_ddec_charge
 _atom_site_hle17_ddec_spin_density
 _atom_site_hle17_ddec_sum_bond_order
 _atom_site_hle17_magmom
 _atom_site_hse06_10hf_ddec_charge
 _atom_site_hse06_10hf_ddec_spin_density
 _atom_site_hse06_10hf_ddec_sum_bond_order
 _atom_site_hse06_10hf_magmom
 _atom_site_hse06_ddec_charge
 _atom_site_hse06_ddec_spin_density
 _atom_site_hse06_ddec_sum_bond_order
 _atom_site_hse06_magmom
 _atom_site_pbe_cm5_charge
 _atom_site_pbe_ddec_charge
 _atom_site_pbe_ddec_spin_density
 _atom_site_pbe_ddec_sum_bond_order
 _atom_site_pbe_magmom
Mn  Mn0  1  0.50000237  0.50000334  0.49999959  1  0.900984  -4.755331  2.195847  -4.608  0.739897  -4.661182  2.715817  -4.441  0.797769  -4.721717  2.653726  -4.526  0.556036  0.693495  -4.60022  2.762475  -4.358
Mn  Mn1  1  0.83120533  0.82416067  0.83549985  1  0.898405  -4.742706  2.199655  -4.609  0.736252  -4.653719  2.720977  -4.442  0.793772  -4.713809  2.659553  -4.526  0.551926  0.690151  -4.593117  2.767074  -4.359
Mn  Mn2  1  0.16879548  0.17584216  0.16450343  1  0.898397  -4.742719  2.199653  -4.609  0.736246  -4.653719  2.720963  -4.442  0.793745  -4.713807  2.659579  -4.526  0.551913  0.690142  -4.593117  2.767064  -4.359
H  H3  1  0.70555875  0.88318641  0.01033390  1  0.077018  -7.8e-05  0.950772  0.0  0.085571  -0.000501  1.014709  0.0  0.086882  -0.000316  1.014376  0.0  0.11406  0.084553  -0.000696  1.015072  -0.001
H  H4  1  0.29444680  0.11681112  0.98967079  1  0.077054  -8.4e-05  0.950778  0.0  0.085611  -0.000501  1.014702  0.0  0.086933  -0.000315  1.01434  0.0  0.114097  0.084589  -0.000696  1.015069  -0.001
H  H5  1  0.44223687  0.77821957  0.08185554  1  0.096425  -0.000167  0.981333  0.0  0.100099  -0.000365  1.053001  0.0  0.103005  -0.000225  1.053269  0.0  0.096826  0.098004  -0.000518  1.05297  0.0
H  H6  1  0.55776467  0.22177669  0.91814886  1  0.096496  -0.000171  0.981386  0.0  0.100187  -0.000365  1.053015  0.0  0.103095  -0.000225  1.053283  0.0  0.096866  0.098091  -0.000518  1.052991  0.0
H  H7  1  0.17341962  0.53964259  0.00207788  1  0.094332  3.7e-05  0.94342  0.0  0.106589  -0.000359  1.002802  0.0  0.108645  -0.000198  1.001544  0.0  0.103856  0.104867  -0.000535  1.004069  0.0
H  H8  1  0.82658117  0.46036021  0.99792285  1  0.09428  4.1e-05  0.943415  0.0  0.106525  -0.000359  1.002812  0.0  0.108602  -0.000198  1.001529  0.0  0.103849  0.104812  -0.000535  1.00407  0.0
H  H9  1  0.17770697  0.41382164  0.85361133  1  0.094705  -0.000144  0.985087  0.0  0.099691  -0.000347  1.054833  0.0  0.102769  -0.000197  1.054704  0.0  0.094592  0.097413  -0.000513  1.055128  0.0
H  H10  1  0.82229315  0.58618510  0.14638948  1  0.094687  -0.000141  0.985119  0.0  0.099645  -0.000347  1.054886  0.0  0.102719  -0.000197  1.054768  0.0  0.094609  0.097369  -0.000513  1.05518  0.0
H  H11  1  0.45174954  0.53494040  0.79107082  1  0.069178  -0.000181  0.96026  0.0  0.076758  -0.000658  1.029008  0.0  0.078231  -0.000447  1.028197  0.0  0.11011  0.075592  -0.000876  1.029712  -0.001
H  H12  1  0.54825119  0.46506503  0.20893062  1  0.069147  -0.000173  0.960309  0.0  0.076731  -0.000658  1.029061  0.0  0.078204  -0.000447  1.028248  0.0  0.110104  0.075578  -0.000876  1.029752  -0.001
H  H13  1  0.00956599  0.08127072  0.70026070  1  0.071238  -8.3e-05  0.963133  0.0  0.077435  -0.000558  1.032364  0.0  0.079041  -0.00035  1.032005  0.0  0.109304  0.076179  -0.00078  1.032807  0.0
H  H14  1  0.99042908  0.91872950  0.29973833  1  0.071273  -8.1e-05  0.963093  0.0  0.077468  -0.000558  1.03232  0.0  0.079074  -0.00035  1.031962  0.0  0.109335  0.076218  -0.00078  1.032762  0.0
H  H15  1  0.28592884  0.20304302  0.63962160  1  0.103958  0.000242  0.986158  0.0  0.110681  0.00016  1.051136  0.0  0.113036  0.000265  1.052117  0.0  0.10298  0.108966  3.7e-05  1.050662  0.0
H  H16  1  0.71406390  0.79695721  0.36037473  1  0.103938  0.000239  0.986177  0.0  0.110671  0.00016  1.051141  0.0  0.113026  0.000265  1.052121  0.0  0.10296  0.108954  3.7e-05  1.050665  0.0
H  H17  1  0.51665269  0.10989832  0.69186312  1  0.093138  -0.000124  0.950659  0.0  0.103728  -0.00065  1.012413  0.0  0.106033  -0.00044  1.010616  0.0  0.102372  0.101814  -0.000879  1.014087  0.0
H  H18  1  0.48334066  0.89010058  0.30813258  1  0.093135  -0.000126  0.95065  0.0  0.103691  -0.000651  1.012446  0.0  0.106016  -0.00044  1.010627  0.0  0.102349  0.101784  -0.000879  1.014113  0.0
H  H19  1  0.46211200  0.89792545  0.80201037  1  0.105328  0.000274  0.981771  0.0  0.110538  0.000209  1.049205  0.0  0.112954  0.000307  1.050028  0.0  0.103021  0.108797  9.5e-05  1.048756  0.0
H  H20  1  0.53788811  0.10208127  0.19798789  1  0.105346  0.000274  0.981785  0.0  0.110558  0.000209  1.049216  0.0  0.112974  0.000307  1.050039  0.0  0.103013  0.108819  9.5e-05  1.048768  0.0
H  H21  1  0.17757171  0.78639447  0.85496520  1  0.070754  -8.3e-05  0.973763  0.0  0.076799  -0.000594  1.043692  0.0  0.078443  -0.000363  1.043333  0.0  0.108977  0.075569  -0.000839  1.04403  0.0
H  H22  1  0.82242956  0.21361225  0.14503440  1  0.070747  -8.2e-05  0.973765  0.0  0.076791  -0.000594  1.043702  0.0  0.078443  -0.000363  1.043328  0.0  0.108948  0.075557  -0.000839  1.044058  0.0
H  H23  1  0.11861943  0.24579173  0.42193785  1  0.07493  -8.4e-05  0.951132  0.0  0.082852  -0.000499  1.016193  0.0  0.084239  -0.000313  1.015691  0.0  0.113006  0.08178  -0.000694  1.01668  -0.001
H  H24  1  0.88137727  0.75421240  0.57805948  1  0.074964  -7.9e-05  0.951018  0.0  0.082816  -0.000499  1.016162  0.0  0.084203  -0.000314  1.015659  0.0  0.112983  0.081742  -0.000694  1.016647  -0.001
H  H25  1  0.82197598  0.13489064  0.46056935  1  0.096259  -0.000172  0.981994  0.0  0.100686  -0.000338  1.052949  0.0  0.103488  -0.000208  1.053243  0.0  0.096906  0.098664  -0.000481  1.052888  0.0
H  H26  1  0.17802371  0.86510953  0.53943059  1  0.096219  -0.000175  0.981963  0.0  0.100643  -0.000338  1.052932  0.0  0.103445  -0.000208  1.053228  0.0  0.096877  0.09862  -0.000481  1.052876  0.0
H  H27  1  0.77951023  0.25154099  0.60212053  1  0.093733  3.5e-05  0.946555  0.0  0.103594  -0.000382  1.009619  0.0  0.105763  -0.000217  1.008129  0.0  0.102781  0.101864  -0.000563  1.010952  0.0
H  H28  1  0.22049008  0.74845786  0.39787942  1  0.093763  3.9e-05  0.946512  0.0  0.103627  -0.000382  1.009566  0.0  0.105797  -0.000218  1.008081  0.0  0.102794  0.101897  -0.000563  1.010898  0.0
H  H29  1  0.03487970  0.47576863  0.69999031  1  0.094099  -0.000127  0.986688  0.0  0.099175  -0.000294  1.056507  0.0  0.102141  -0.000155  1.056569  0.0  0.094405  0.097  -0.000448  1.056643  0.0
H  H30  1  0.96512211  0.52423938  0.30000809  1  0.09407  -0.000124  0.986669  0.0  0.099142  -0.000294  1.056482  0.0  0.102108  -0.000155  1.056541  0.0  0.094419  0.096968  -0.000448  1.056616  0.0
H  H31  1  0.32335872  0.57170357  0.65181652  1  0.069942  -0.000173  0.960366  0.0  0.076954  -0.000662  1.029816  0.0  0.078431  -0.000446  1.029015  0.0  0.110514  0.075845  -0.000884  1.030447  -0.001
H  H32  1  0.67664192  0.42830444  0.34817990  1  0.070005  -0.000163  0.960335  0.0  0.077031  -0.000661  1.029788  0.0  0.078507  -0.000446  1.028986  0.0  0.110547  0.075942  -0.000883  1.030367  -0.001
C  C33  1  0.64142682  0.84599468  0.64855412  1  0.293884  -0.022905  4.000976  -0.022  0.277016  -0.032289  4.302754  -0.029  0.300292  -0.028024  4.317071  -0.026  0.159626  0.260411  -0.036773  4.292141  -0.032
C  C34  1  0.35857075  0.15399766  0.35144673  1  0.293818  -0.022856  4.001222  -0.022  0.276932  -0.032263  4.303017  -0.029  0.300204  -0.027996  4.31733  -0.026  0.15955  0.260332  -0.036744  4.292405  -0.032
C  C35  1  0.67055036  0.47586861  0.69068798  1  0.299027  -0.023883  3.994742  -0.023  0.281715  -0.033255  4.296805  -0.03  0.304784  -0.028881  4.311501  -0.026  0.162683  0.265268  -0.037841  4.285885  -0.033
C  C36  1  0.32944888  0.52412492  0.30930410  1  0.299032  -0.023918  3.994345  -0.023  0.281732  -0.03328  4.296436  -0.03  0.304803  -0.028905  4.311138  -0.026  0.162667  0.265284  -0.037868  4.285514  -0.033
C  C37  1  0.96391480  0.17689536  0.97830374  1  0.298345  -0.02339  3.992874  -0.022  0.280296  -0.032899  4.296688  -0.029  0.303543  -0.028476  4.310967  -0.026  0.162538  0.263701  -0.037535  4.286063  -0.032
C  C38  1  0.03607995  0.82309300  0.02169046  1  0.298582  -0.023323  3.993299  -0.022  0.280534  -0.032871  4.297073  -0.029  0.303776  -0.028446  4.311344  -0.026  0.162685  0.263936  -0.037501  4.28646  -0.032
C  C39  1  0.58554218  0.78023577  0.97758317  1  0.125544  -0.001829  3.697867  -0.002  0.098854  -0.003864  3.94115  -0.003  0.105501  -0.003198  3.96095  -0.003  0.048446  0.094416  -0.004646  3.927555  -0.004
C  C40  1  0.41446168  0.21976047  0.02242201  1  0.12568  -0.001821  3.697883  -0.002  0.098991  -0.003865  3.941174  -0.003  0.105644  -0.003204  3.960973  -0.003  0.048452  0.094549  -0.004646  3.92758  -0.004
C  C41  1  0.43936375  0.72122432  0.01726482  1  -0.121628  0.000834  3.736326  0.0  -0.130769  0.000348  3.983394  0.0  -0.137919  0.000975  4.005275  0.0  -0.085105  -0.126252  -0.000189  3.968932  0.0
C  C42  1  0.56064010  0.27877190  0.98273845  1  -0.121817  0.000862  3.736402  0.0  -0.130969  0.000348  3.98347  0.0  -0.138125  0.000982  4.005362  0.0  -0.085137  -0.126443  -0.000188  3.96901  0.0
C  C43  1  0.28966608  0.58847455  0.97260193  1  0.00878  -0.001648  3.70013  -0.002  -0.011632  -0.00325  3.94509  -0.003  -0.008096  -0.002808  3.964072  -0.002  -0.064584  -0.013832  -0.003875  3.932519  -0.003
C  C44  1  0.71033540  0.41152433  0.02740191  1  0.008851  -0.001668  3.700017  -0.002  -0.011539  -0.00325  3.944977  -0.003  -0.008021  -0.002809  3.963956  -0.002  -0.064601  -0.013745  -0.003875  3.932405  -0.003
C  C45  1  0.29191208  0.51898192  0.89002104  1  -0.127434  0.000702  3.737672  0.0  -0.133915  9.1e-05  3.979943  0.0  -0.141509  0.000748  4.001582  0.0  -0.087643  -0.129017  -0.000477  3.965578  -0.001
C  C46  1  0.70808866  0.48102353  0.10998168  1  -0.127363  0.000712  3.737526  0.0  -0.133835  9.1e-05  3.979859  0.0  -0.141431  0.000748  4.001511  0.0  -0.087629  -0.128943  -0.000476  3.965501  -0.001
C  C47  1  0.44362609  0.58581239  0.85516042  1  0.116565  -0.001968  3.721504  -0.002  0.08933  -0.004036  3.967193  -0.003  0.096035  -0.003355  3.986957  -0.003  0.04503  0.084908  -0.004821  3.95361  -0.004
C  C48  1  0.55637763  0.41418908  0.14484300  1  0.116586  -0.002004  3.721274  -0.002  0.089356  -0.004036  3.966975  -0.003  0.096063  -0.003356  3.986733  -0.003  0.045025  0.084931  -0.004821  3.953377  -0.004
C  C49  1  0.11311753  0.04358937  0.72070099  1  0.118153  -0.001578  3.713951  -0.002  0.092186  -0.003489  3.957432  -0.003  0.098834  -0.002818  3.976565  -0.003  0.044943  0.087729  -0.004257  3.944324  -0.003
C  C50  1  0.88687808  0.95641217  0.27929875  1  0.118135  -0.001615  3.71404  -0.002  0.092157  -0.00349  3.957518  -0.003  0.098805  -0.002817  3.976648  -0.003  0.044908  0.087688  -0.004257  3.944418  -0.003
C  C51  1  0.26655022  0.11103282  0.68727244  1  -0.127252  0.000697  3.734573  0.0  -0.133822  0.000233  3.975196  0.0  -0.140976  0.000813  3.996711  0.0  -0.087687  -0.12929  -0.000295  3.960994  0.0
C  C52  1  0.73344653  0.88896868  0.31272482  1  -0.127196  0.000744  3.734692  0.0  -0.133746  0.000235  3.975263  0.0  -0.140898  0.000813  3.996784  0.0  -0.087664  -0.129209  -0.000295  3.961059  0.0
C  C53  1  0.39494129  0.05913463  0.71639284  1  9.1e-05  -0.001735  3.722858  -0.002  -0.020276  -0.003421  3.969252  -0.003  -0.016522  -0.002879  3.987521  -0.002  -0.066758  -0.022689  -0.004144  3.957283  -0.003
C  C54  1  0.60505601  0.94086818  0.28360449  1  -3.5e-05  -0.001757  3.722889  -0.002  -0.020391  -0.003422  3.969301  -0.003  -0.016655  -0.002877  3.987566  -0.002  -0.066821  -0.02281  -0.004145  3.957334  -0.003
C  C55  1  0.36475928  0.94104479  0.77763414  1  -0.12655  0.000835  3.73028  0.0  -0.132682  0.000393  3.971461  0.0  -0.139843  0.000955  3.993082  0.0  -0.08742  -0.128149  -0.000129  3.957232  0.0
C  C56  1  0.63523688  0.05895803  0.22236375  1  -0.126496  0.000866  3.730256  0.0  -0.132628  0.000393  3.971423  0.0  -0.139791  0.000953  3.993053  0.0  -0.087349  -0.128106  -0.000129  3.957208  0.0
C  C57  1  0.20720824  0.87894978  0.80717461  1  0.118461  -0.001559  3.710067  -0.002  0.092686  -0.003536  3.951333  -0.003  0.099318  -0.00286  3.970467  -0.003  0.044112  0.088235  -0.004306  3.938262  -0.003
C  C58  1  0.79279079  0.12105434  0.19282541  1  0.11852  -0.001589  3.710154  -0.002  0.09275  -0.003535  3.951387  -0.003  0.099384  -0.002858  3.970519  -0.003  0.044173  0.088303  -0.004306  3.938307  -0.003
C  C59  1  0.09443006  0.29270926  0.48310084  1  0.124021  -0.001991  3.703982  -0.002  0.09714  -0.003987  3.948525  -0.003  0.103757  -0.003319  3.968386  -0.003  0.048174  0.092721  -0.004769  3.93484  -0.004
C  C60  1  0.90556792  0.70728960  0.51689706  1  0.12404  -0.002022  3.704113  -0.002  0.09717  -0.003988  3.948611  -0.003  0.103785  -0.00332  3.968474  -0.003  0.048144  0.092753  -0.00477  3.934924  -0.004
C  C61  1  0.93000899  0.23154645  0.50469734  1  -0.121926  0.000991  3.740139  0.0  -0.131781  0.000398  3.986992  0.0  -0.138861  0.001043  4.00905  0.0  -0.085093  -0.127282  -0.000166  3.972397  0.0
C  C62  1  0.06998960  0.76845109  0.49530055  1  -0.121945  0.001033  3.740019  0.0  -0.13181  0.000398  3.986873  0.0  -0.138888  0.001046  4.008933  0.0  -0.085094  -0.127315  -0.000166  3.972283  0.0
C  C63  1  0.90683171  0.29661788  0.58371040  1  0.005497  -0.001852  3.703776  -0.002  -0.013237  -0.003412  3.948458  -0.003  -0.009663  -0.00295  3.967195  -0.002  -0.065499  -0.015495  -0.004055  3.936007  -0.003
C  C64  1  0.09316693  0.70337702  0.41628614  1  0.005487  -0.001873  3.703574  -0.002  -0.013257  -0.003411  3.94828  -0.003  -0.009688  -0.002954  3.967015  -0.002  -0.065483  -0.015526  -0.004055  3.935871  -0.003
C  C65  1  0.04884024  0.42092204  0.63816594  1  -0.125374  0.000917  3.736295  0.0  -0.132093  0.000184  3.978121  0.0  -0.139696  0.000847  3.999994  0.0  -0.086792  -0.127209  -0.00039  3.963643  0.0
C  C66  1  0.95115822  0.57908075  0.36183083  1  -0.125295  0.000932  3.736191  0.0  -0.132013  0.000182  3.978039  0.0  -0.139613  0.000857  3.999916  0.0  -0.086818  -0.127132  -0.00039  3.963559  0.0
C  C67  1  0.20865357  0.47470228  0.61156621  1  0.116121  -0.00213  3.719368  -0.002  0.088538  -0.004176  3.965823  -0.003  0.095171  -0.003482  3.985512  -0.003  0.044949  0.084106  -0.004984  3.952279  -0.004
C  C68  1  0.79134373  0.52530051  0.38842921  1  0.116095  -0.002171  3.719459  -0.002  0.088433  -0.004174  3.965891  -0.003  0.095068  -0.003491  3.985579  -0.003  0.044905  0.084003  -0.004984  3.952355  -0.004
S  S69  1  0.55790959  0.83380174  0.54927863  1  -0.304831  -0.044204  2.177188  -0.027  -0.280782  -0.060237  2.517583  -0.032  -0.300161  -0.049827  2.51039  -0.025  -0.101069  -0.265076  -0.071028  2.52213  -0.038
S  S70  1  0.44209937  0.16619839  0.45072762  1  -0.304888  -0.044187  2.17688  -0.027  -0.280848  -0.060227  2.517317  -0.032  -0.300231  -0.049814  2.510126  -0.025  -0.101094  -0.265142  -0.071017  2.521857  -0.038
S  S71  1  0.77808972  0.49506450  0.78512726  1  -0.304492  -0.04542  2.193386  -0.027  -0.279916  -0.061697  2.533354  -0.032  -0.299095  -0.050991  2.525356  -0.025  -0.09917  -0.26445  -0.072746  2.538513  -0.038
S  S72  1  0.22190833  0.50493176  0.21487247  1  -0.304362  -0.045413  2.193802  -0.027  -0.279788  -0.061706  2.533768  -0.032  -0.29896  -0.051  2.525769  -0.025  -0.099093  -0.264328  -0.072754  2.538922  -0.038
S  S73  1  0.86926411  0.15028570  0.87993967  1  -0.307978  -0.045291  2.201542  -0.027  -0.282358  -0.061178  2.543033  -0.032  -0.301695  -0.050461  2.534692  -0.026  -0.101276  -0.266627  -0.072245  2.548263  -0.039
S  S74  1  0.13073857  0.84971051  0.12006225  1  -0.308179  -0.045279  2.201061  -0.027  -0.282557  -0.06117  2.542527  -0.032  -0.301895  -0.050449  2.534183  -0.026  -0.101389  -0.266822  -0.072235  2.547766  -0.039
N  N75  1  0.70139479  0.85399911  0.72132401  1  -0.538313  -0.025797  2.975242  -0.007  -0.483421  -0.032187  3.273189  -0.007  -0.507707  -0.024867  3.276319  -0.001  -0.392941  -0.46523  -0.039128  3.27094  -0.012
N  N76  1  0.29860690  0.14599196  0.27868598  1  -0.538146  -0.025835  2.975595  -0.007  -0.483248  -0.032185  3.273534  -0.007  -0.507524  -0.02488  3.276662  -0.001  -0.392823  -0.465065  -0.039122  3.271291  -0.012
N  N77  1  0.58956411  0.45881844  0.62192149  1  -0.539404  -0.02552  2.975072  -0.006  -0.487156  -0.03216  3.277302  -0.007  -0.51157  -0.024677  3.280983  -0.001  -0.393585  -0.468845  -0.039302  3.274619  -0.012
N  N78  1  0.41044842  0.54117632  0.37807908  1  -0.539582  -0.02552  2.974528  -0.006  -0.487336  -0.032161  3.276779  -0.007  -0.511755  -0.02467  3.28046  -0.001  -0.393653  -0.469028  -0.039311  3.274099  -0.012
N  N79  1  0.03184100  0.19671199  0.05051582  1  -0.537147  -0.02663  2.979204  -0.008  -0.48559  -0.033366  3.281635  -0.008  -0.509816  -0.025937  3.284963  -0.002  -0.391602  -0.467412  -0.040437  3.27921  -0.014
N  N80  1  0.96816523  0.80328160  0.94949070  1  -0.53715  -0.026677  2.979922  -0.008  -0.485601  -0.033361  3.282334  -0.008  -0.50982  -0.025951  3.285654  -0.002  -0.391627  -0.467429  -0.040433  3.279919  -0.014
N  N81  1  0.58822788  0.71483852  0.89764049  1  -0.33342  -0.028235  3.291566  -0.018  -0.260658  -0.033009  3.55776  -0.02  -0.282091  -0.029182  3.577444  -0.017  -0.319519  -0.244835  -0.036537  3.543485  -0.023
N  N82  1  0.41177073  0.28515907  0.10236250  1  -0.333561  -0.028224  3.291464  -0.018  -0.260817  -0.033007  3.557697  -0.02  -0.282252  -0.029179  3.577379  -0.017  -0.319549  -0.244996  -0.036534  3.543428  -0.023
N  N83  1  0.08298003  0.92910167  0.77958452  1  -0.328718  -0.027762  3.280737  -0.018  -0.254662  -0.032612  3.54184  -0.02  -0.276019  -0.028857  3.561581  -0.017  -0.317125  -0.239006  -0.036124  3.527771  -0.023
N  N84  1  0.91701906  0.07089983  0.22041606  1  -0.328762  -0.027736  3.28087  -0.018  -0.254717  -0.032613  3.541977  -0.02  -0.276072  -0.028858  3.561716  -0.017  -0.317141  -0.239052  -0.036126  3.5279  -0.023
N  N85  1  0.23201895  0.41175263  0.53555241  1  -0.33395  -0.028464  3.296099  -0.018  -0.260363  -0.033457  3.56109  -0.02  -0.281761  -0.029578  3.580505  -0.017  -0.321301  -0.244602  -0.03702  3.547131  -0.023
N  N86  1  0.76797664  0.58824885  0.46444095  1  -0.334067  -0.028451  3.296536  -0.018  -0.260283  -0.033458  3.561262  -0.02  -0.281683  -0.029575  3.580684  -0.017  -0.321212  -0.244519  -0.03702  3.547295  -0.023
