# generated using pymatgen
data_AlH6C24(BrO)6
_symmetry_space_group_name_H-M   'P 1'
_cell_length_a   4.06315930
_cell_length_b   29.18865472
_cell_length_c   29.19140164
_cell_angle_alpha   119.99490715
_cell_angle_beta   90.00124849
_cell_angle_gamma   90.00120098
_symmetry_Int_Tables_number   1
_chemical_formula_structural   AlH6C24(BrO)6
_chemical_formula_sum   'Al2 H12 C48 Br12 O12'
_cell_volume   2998.37393058
_cell_formula_units_Z   2
loop_
 _symmetry_equiv_pos_site_id
 _symmetry_equiv_pos_as_xyz
  1  'x, y, z'
loop_
 _atom_site_type_symbol
 _atom_site_label
 _atom_site_symmetry_multiplicity
 _atom_site_fract_x
 _atom_site_fract_y
 _atom_site_fract_z
 _atom_site_occupancy
 _atom_site_pbe_bader_charge
 _atom_site_pbe_bader_spin_density
 _atom_site_pbe_cm5_charge
 _atom_site_pbe_ddec_charge
 _atom_site_pbe_ddec_spin_density
 _atom_site_pbe_ddec_sum_bond_order
 _atom_site_pbe_magmom
Al  Al0  1  0.00014254  0.49998968  0.49997692  1  2.511365  0  0.427069  1.630681  0  2.511957  0
Al  Al1  1  0.00000873  0.16665624  0.83332803  1  2.50863  0  0.427752  1.632094  0  2.508803  0
H  H2  1  0.65675611  0.21913734  0.63945173  1  0.075431  0  0.110402  0.129883  0  0.983733  0
H  H3  1  0.34249894  0.36057632  0.78086913  1  0.074161  0  0.110356  0.129854  0  0.983712  0
H  H4  1  0.34126080  0.30622093  0.55241640  1  0.106932  0  0.110532  0.129831  0  0.982745  0
H  H5  1  0.65841372  0.44752267  0.69373869  1  0.107228  0  0.110511  0.130059  0  0.98232  0
H  H6  1  0.65694434  0.92033838  0.78097499  1  0.076743  0  0.110195  0.129589  0  0.983635  0
H  H7  1  0.34274446  0.92025686  0.63949709  1  0.128079  0  0.110455  0.129981  0  0.983984  0
H  H8  1  0.34137692  0.74616935  0.69377720  1  0.146436  0  0.110426  0.12971  0  0.982893  0
H  H9  1  0.65855527  0.74624342  0.55250056  1  0.107887  0  0.110392  0.129815  0  0.982257  0
H  H10  1  0.65624389  0.36058422  0.07966943  1  0.124532  0  0.110515  0.129983  0  0.98357  0
H  H11  1  0.34204530  0.21915854  0.07970099  1  0.079403  0  0.110447  0.129736  0  0.98387  0
H  H12  1  0.34098632  0.44760703  0.25380364  1  0.10524  0  0.110639  0.13011  0  0.982995  0
H  H13  1  0.65815356  0.30625891  0.25373494  1  0.146126  0  0.110377  0.129723  0  0.982907  0
C  C14  1  0.50013740  0.45935067  0.41868494  1  1.579874  0  0.272264  0.676649  0  4.071288  0
C  C15  1  0.50015073  0.45933527  0.54061316  1  1.584514  0  0.272363  0.677  0  4.070935  0
C  C16  1  0.50014713  0.58128404  0.54063458  1  1.581806  0  0.272449  0.677296  0  4.071384  0
C  C17  1  0.49996626  0.20736969  0.79266801  1  1.627982  0  0.27146  0.677555  0  4.06994  0
C  C18  1  0.49999692  0.08528808  0.79265062  1  1.619269  0  0.271651  0.677978  0  4.069511  0
C  C19  1  0.50000177  0.20733273  0.91470204  1  1.617387  0  0.271531  0.677991  0  4.069533  0
C  C20  1  0.49987039  0.23725708  0.76279471  1  0.117734  0  -0.016577  -0.126304  0  3.905207  0
C  C21  1  0.58864321  0.21261648  0.70913902  1  -0.112023  0  -0.009561  0.106862  0  3.963326  0
C  C22  1  0.58757758  0.23949461  0.68101072  1  0.104045  0  -0.09077  -0.188181  0  3.932083  0
C  C23  1  0.49952142  0.29333478  0.70667223  1  0.03086  0  0.004872  0.171361  0  4.115049  0
C  C24  1  0.41168160  0.31901100  0.76051732  1  0.104849  0  -0.090721  -0.188188  0  3.932392  0
C  C25  1  0.41099931  0.29090695  0.78742297  1  -0.114152  0  -0.009636  0.106668  0  3.963884  0
C  C26  1  0.49947738  0.32131101  0.67866606  1  -0.33521  0  -0.038749  -0.096761  0  4.089748  0
C  C27  1  0.49964776  0.34541787  0.65453776  1  -0.04333  0  -0.037156  -0.092266  0  4.089139  0
C  C28  1  0.49986706  0.37340183  0.62653892  1  0.141098  0  0.003986  0.167179  0  4.119323  0
C  C29  1  0.41126045  0.34774529  0.57272633  1  0.07936  0  -0.090688  -0.186517  0  3.931327  0
C  C30  1  0.41077617  0.37585486  0.54583846  1  -0.175936  0  -0.009335  0.104879  0  3.965979  0
C  C31  1  0.50009401  0.42948191  0.57047776  1  0.186858  0  -0.017211  -0.123144  0  3.904378  0
C  C32  1  0.58932306  0.45410472  0.62409770  1  -0.175085  0  -0.009422  0.105154  0  3.966315  0
C  C33  1  0.58855760  0.42721357  0.65220546  1  0.079512  0  -0.090666  -0.187035  0  3.931901  0
C  C34  1  0.50000375  0.02552889  0.76279343  1  0.142463  0  -0.016574  -0.126222  0  3.905182  0
C  C35  1  0.58879046  0.99653343  0.78745579  1  -0.122154  0  -0.009448  0.1069  0  3.96332  0
C  C36  1  0.58775288  0.94152786  0.76059782  1  0.044758  0  -0.090515  -0.187732  0  3.931286  0
C  C37  1  0.49977342  0.91333205  0.70675175  1  0.065909  0  0.004714  0.171476  0  4.114954  0
C  C38  1  0.41189193  0.94148900  0.68105415  1  0.081178  0  -0.090716  -0.188538  0  3.93373  0
C  C39  1  0.41117256  0.99649466  0.70914244  1  -0.21306  0  -0.009582  0.106635  0  3.964171  0
C  C40  1  0.49978137  0.85734315  0.67877723  1  -0.257345  0  -0.03891  -0.096957  0  4.089807  0
C  C41  1  0.49988022  0.80911081  0.65462341  1  -0.067525  0  -0.037112  -0.09232  0  4.089661  0
C  C42  1  0.49995955  0.75313411  0.62661203  1  0.220008  0  0.003961  0.167108  0  4.119688  0
C  C43  1  0.41131582  0.72496246  0.65225318  1  0.051126  0  -0.090629  -0.1865  0  3.931677  0
C  C44  1  0.41077507  0.66996558  0.62412461  1  -0.148091  0  -0.009357  0.104956  0  3.966048  0
C  C45  1  0.50008860  0.64099347  0.57050452  1  0.139015  0  -0.017116  -0.123174  0  3.905028  0
C  C46  1  0.58929880  0.67001074  0.54589564  1  -0.04009  0  -0.009373  0.105101  0  3.965512  0
C  C47  1  0.58862097  0.72500947  0.57280294  1  -0.110106  0  -0.090413  -0.18649  0  3.930841  0
C  C48  1  0.49982008  0.23720850  0.97445390  1  0.143586  0  -0.016741  -0.126776  0  3.906027  0
C  C49  1  0.58846993  0.29087246  0.00346241  1  -0.214046  0  -0.009347  0.10673  0  3.964077  0
C  C50  1  0.58716693  0.31901626  0.05846385  1  0.083  0  -0.091178  -0.188198  0  3.931268  0
C  C51  1  0.49894020  0.29336102  0.08664609  1  0.147399  0  0.005132  0.171696  0  4.112992  0
C  C52  1  0.41124825  0.23950106  0.05847997  1  0.043317  0  -0.090899  -0.188098  0  3.932694  0
C  C53  1  0.41081389  0.21258543  0.00347952  1  -0.121707  0  -0.009491  0.106951  0  3.964762  0
C  C54  1  0.49877940  0.32137575  0.14263636  1  -0.134056  0  -0.039389  -0.097876  0  4.090304  0
C  C55  1  0.49913282  0.34548672  0.19085490  1  -0.170364  0  -0.036912  -0.091522  0  4.089662  0
C  C56  1  0.49954053  0.37346922  0.24683629  1  0.117921  0  0.003882  0.167258  0  4.118179  0
C  C57  1  0.41104446  0.42729044  0.27501249  1  -0.109897  0  -0.090629  -0.187094  0  3.931874  0
C  C58  1  0.41062479  0.45416873  0.33000369  1  -0.041309  0  -0.009493  0.104885  0  3.965952  0
C  C59  1  0.49999669  0.42951335  0.35897548  1  0.139227  0  -0.016925  -0.122556  0  3.904271  0
C  C60  1  0.58919155  0.37588547  0.32996885  1  -0.14542  0  -0.009507  0.104925  0  3.966129  0
C  C61  1  0.58833860  0.34779457  0.27497206  1  0.052075  0  -0.090258  -0.186409  0  3.931302  0
Br  Br62  1  0.72171527  0.14064606  0.67314757  1  -0.03097  0  0.03957  -0.041377  0  1.592582  0
Br  Br63  1  0.27820573  0.32692226  0.85940616  1  -0.030636  0  0.039372  -0.0415  0  1.59267  0
Br  Br64  1  0.27800793  0.33987355  0.47385945  1  -0.037061  0  0.03943  -0.041322  0  1.594931  0
Br  Br65  1  0.72207863  0.52607384  0.66008720  1  -0.036455  0  0.039542  -0.041266  0  1.595783  0
Br  Br66  1  0.72180489  0.03253298  0.85943228  1  -0.032588  0  0.039331  -0.041651  0  1.592932  0
Br  Br67  1  0.27843810  0.03243500  0.67310026  1  -0.02906  0  0.039514  -0.041285  0  1.59229  0
Br  Br68  1  0.27806835  0.63395926  0.66009416  1  -0.026221  0  0.039447  -0.041281  0  1.595795  0
Br  Br69  1  0.72209977  0.63404431  0.47392454  1  -0.029137  0  0.039433  -0.041403  0  1.595066  0
Br  Br70  1  0.72175468  0.32686096  0.96749246  1  -0.02925  0  0.039532  -0.041355  0  1.593136  0
Br  Br71  1  0.27826474  0.14060776  0.96752421  1  -0.030953  0  0.039571  -0.041354  0  1.59381  0
Br  Br72  1  0.27799082  0.52614078  0.36601337  1  -0.029958  0  0.039584  -0.04118  0  1.595784  0
Br  Br73  1  0.72198512  0.33987971  0.36592843  1  -0.025333  0  0.039533  -0.041284  0  1.5956  0
O  O74  1  0.73724909  0.55846471  0.54948310  1  -1.247953  0  -0.232032  -0.592569  0  2.413365  0
O  O75  1  0.73720794  0.49102698  0.44150327  1  -1.250076  0  -0.232068  -0.592624  0  2.413442  0
O  O76  1  0.73722525  0.45048357  0.50894263  1  -1.247126  0  -0.231999  -0.59256  0  2.413591  0
O  O77  1  0.26313249  0.55846718  0.50895088  1  -1.250759  0  -0.231842  -0.592559  0  2.41354  0
O  O78  1  0.26309904  0.49101738  0.54948034  1  -1.246072  0  -0.231653  -0.592318  0  2.413619  0
O  O79  1  0.26309452  0.45049217  0.44150612  1  -1.246768  0  -0.231875  -0.592522  0  2.413585  0
O  O80  1  0.73713857  0.17567295  0.89187329  1  -1.249765  0  -0.231624  -0.592594  0  2.412289  0
O  O81  1  0.73712861  0.21618752  0.82432163  1  -1.255131  0  -0.231475  -0.592489  0  2.412611  0
O  O82  1  0.73709985  0.10812669  0.78381699  1  -1.253303  0  -0.231763  -0.592831  0  2.412411  0
O  O83  1  0.26287912  0.21615039  0.89185669  1  -1.253289  0  -0.231641  -0.592819  0  2.412582  0
O  O84  1  0.26282881  0.10812082  0.82430002  1  -1.250656  0  -0.231544  -0.592578  0  2.412406  0
O  O85  1  0.26283523  0.17570118  0.78383662  1  -1.254895  0  -0.231668  -0.592662  0  2.412693  0
