# generated using pymatgen
data_KCuPH14C16(OF)6
_symmetry_space_group_name_H-M   'P 1'
_cell_length_a   8.56292511
_cell_length_b   9.32506211
_cell_length_c   12.60155511
_cell_angle_alpha   91.11634830
_cell_angle_beta   72.95143875
_cell_angle_gamma   84.15265878
_symmetry_Int_Tables_number   1
_chemical_formula_structural   KCuPH14C16(OF)6
_chemical_formula_sum   'K2 Cu2 P2 H28 C32 O12 F12'
_cell_volume   955.71976758
_cell_formula_units_Z   2
loop_
 _symmetry_equiv_pos_site_id
 _symmetry_equiv_pos_as_xyz
  1  'x, y, z'
loop_
 _atom_site_type_symbol
 _atom_site_label
 _atom_site_symmetry_multiplicity
 _atom_site_fract_x
 _atom_site_fract_y
 _atom_site_fract_z
 _atom_site_occupancy
 _atom_site_hle17_ddec_charge
 _atom_site_hle17_ddec_spin_density
 _atom_site_hle17_ddec_sum_bond_order
 _atom_site_hle17_magmom
 _atom_site_hse06_10hf_ddec_charge
 _atom_site_hse06_10hf_ddec_spin_density
 _atom_site_hse06_10hf_ddec_sum_bond_order
 _atom_site_hse06_10hf_magmom
 _atom_site_hse06_ddec_charge
 _atom_site_hse06_ddec_spin_density
 _atom_site_hse06_ddec_sum_bond_order
 _atom_site_hse06_magmom
 _atom_site_pbe_cm5_charge
 _atom_site_pbe_ddec_charge
 _atom_site_pbe_ddec_spin_density
 _atom_site_pbe_ddec_sum_bond_order
 _atom_site_pbe_magmom
K  K0  1  0.64964567  0.08073512  0.63879971  1  0.946369  -0.000438  0.442456  0.0  0.889382  -0.000422  0.627685  0.0  0.905802  -0.000133  0.603786  0.0  0.792397  0.877726  -0.000707  0.644085  0.0
K  K1  1  0.35034276  0.91924230  0.36119898  1  0.946383  0.000427  0.442473  0.0  0.889364  0.000413  0.627719  0.0  0.905782  0.000133  0.603819  0.0  0.792345  0.877732  0.000708  0.644077  0.0
Cu  Cu2  1  0.29213415  0.22555629  0.88246150  1  0.931894  -0.715529  1.758496  -0.494  0.93371  -0.805363  2.1487  -0.613  1.032996  -0.884681  2.065206  -0.705  0.712976  0.875222  -0.748873  2.20254  -0.555
Cu  Cu3  1  0.70786668  0.77444600  0.11753006  1  0.931957  0.715505  1.758343  0.494  0.933674  0.805344  2.148643  0.613  1.033033  0.884677  2.065097  0.705  0.712985  0.875168  0.748851  2.202579  0.555
P  P4  1  0.85507626  0.88140998  0.37791315  1  1.864873  -4e-06  4.464599  0.0  1.65806  -4.1e-05  5.043296  0.0  1.717969  -2e-05  4.969545  0.0  0.372509  1.616017  -5.9e-05  5.095186  0.0
P  P5  1  0.14492060  0.11859587  0.62210304  1  1.865013  5e-06  4.464616  0.0  1.658258  4.1e-05  5.04299  0.0  1.718242  2.2e-05  4.969064  0.0  0.372567  1.616216  5.9e-05  5.094889  0.0
H  H6  1  0.64657970  0.64919249  0.52789480  1  0.111738  -0.000648  0.972024  -0.001  0.118955  -0.000355  1.041522  0.0  0.122149  -0.000223  1.038041  0.0  0.105378  0.116585  -0.000452  1.044174  -0.001
H  H7  1  0.35341881  0.35080004  0.47209559  1  0.111848  0.000648  0.971987  0.001  0.118992  0.000355  1.041572  0.0  0.122182  0.000223  1.038099  0.0  0.10537  0.116625  0.000452  1.04422  0.001
H  H8  1  0.42222051  0.83699837  0.62670725  1  0.091716  -9e-06  0.967977  0.0  0.098365  -2.2e-05  1.037397  0.0  0.102101  -6e-06  1.034839  0.0  0.100957  0.09591  -3.5e-05  1.038615  0.0
H  H9  1  0.57777064  0.16299402  0.37327907  1  0.09178  1e-05  0.967867  0.0  0.098479  2.2e-05  1.037231  0.0  0.102218  7e-06  1.034666  0.0  0.100963  0.096029  3.5e-05  1.038444  0.0
H  H10  1  0.20428032  0.77718127  0.79391011  1  0.099774  -0.000388  0.944725  0.0  0.110226  -0.000226  1.006705  0.0  0.112266  -0.000135  1.005807  0.0  0.102086  0.108719  -0.000301  1.007401  0.0
H  H11  1  0.79570687  0.22281324  0.20607703  1  0.09969  0.000388  0.944797  0.0  0.110124  0.000226  1.006814  0.0  0.112164  0.000135  1.005913  0.0  0.102036  0.108618  0.000301  1.00751  0.0
H  H12  1  0.08545051  0.61777005  0.92293177  1  0.068059  -0.009219  0.938231  -0.012  0.070803  -0.00618  1.010423  -0.008  0.070731  -0.004148  1.00563  -0.005  0.113129  0.070657  -0.007713  1.013468  -0.01
H  H13  1  0.91455074  0.38222894  0.07705492  1  0.068  0.009222  0.938212  0.012  0.070787  0.006182  1.010377  0.008  0.070712  0.004148  1.005589  0.005  0.11309  0.070645  0.007715  1.013411  0.01
H  H14  1  0.77635161  0.44376034  0.42649352  1  0.086769  -3.1e-05  0.962118  0.0  0.102595  -1.4e-05  1.029744  0.0  0.101753  -8e-06  1.032481  0.0  0.095218  0.103132  -2.1e-05  1.027874  0.0
H  H15  1  0.22364721  0.55622148  0.57350388  1  0.086709  3.2e-05  0.962155  0.0  0.10258  1.4e-05  1.029756  0.0  0.101738  8e-06  1.032493  0.0  0.095244  0.103117  2.1e-05  1.027897  0.0
H  H16  1  0.90019786  0.31136192  0.47794895  1  0.101948  -2.5e-05  0.954564  0.0  0.116621  -1.1e-05  1.021964  0.0  0.117419  -3e-06  1.021187  0.0  0.104238  0.115949  -2e-05  1.022659  0.0
H  H17  1  0.09980447  0.68862104  0.52204933  1  0.102087  2.5e-05  0.954479  0.0  0.11674  1.1e-05  1.021893  0.0  0.117542  3e-06  1.021107  0.0  0.104296  0.116067  2e-05  1.022588  0.0
H  H18  1  0.86902267  0.49599749  0.52972204  1  0.077976  7e-06  0.953482  0.0  0.096619  1e-06  1.018211  0.0  0.096643  1e-06  1.018045  0.0  0.097177  0.096514  3e-06  1.018451  0.0
H  H19  1  0.13099185  0.50399408  0.47026510  1  0.077933  -6e-06  0.953624  0.0  0.096588  -1e-06  1.018328  0.0  0.09661  -1e-06  1.018162  0.0  0.097157  0.096483  -3e-06  1.018569  0.0
H  H20  1  0.66875609  0.61817481  0.91077562  1  0.104318  -0.000643  0.969238  -0.001  0.115737  -0.000405  1.032925  0.0  0.118343  -0.000285  1.031405  0.0  0.105637  0.113785  -0.00051  1.034269  -0.001
H  H21  1  0.33124560  0.38183094  0.08923007  1  0.104338  0.000642  0.96918  0.001  0.115768  0.000405  1.032878  0.0  0.118401  0.000285  1.03132  0.0  0.105649  0.113813  0.000511  1.034223  0.001
H  H22  1  0.42930003  0.58365938  0.07204655  1  0.094159  1e-05  0.973409  0.0  0.108638  -3.9e-05  1.029994  0.0  0.110737  -3.7e-05  1.030988  0.0  0.099235  0.107109  -4.9e-05  1.029459  0.0
H  H23  1  0.57069712  0.41635285  0.92796248  1  0.094107  -1e-05  0.973485  0.0  0.108574  3.8e-05  1.030076  0.0  0.11067  3.7e-05  1.031074  0.0  0.099228  0.107045  4.9e-05  1.029541  0.0
H  H24  1  0.18767760  0.77135348  0.12826452  1  0.105472  -0.000298  0.939283  0.0  0.116289  -0.000236  0.998748  0.0  0.119374  -0.000137  0.995702  0.0  0.10754  0.113779  -0.000324  1.001188  0.0
H  H25  1  0.81232423  0.22865975  0.87173484  1  0.105435  0.000299  0.93912  0.0  0.116251  0.000236  0.99859  0.0  0.11934  0.000137  0.995549  0.0  0.107513  0.113744  0.000324  1.001029  0.0
H  H26  1  0.05946343  0.99057579  0.11345073  1  0.06699  -0.008145  0.925839  -0.01  0.076306  -0.005601  0.988896  -0.007  0.075355  -0.003762  0.985227  -0.005  0.113292  0.076666  -0.007058  0.991818  -0.009
H  H27  1  0.94053253  0.00942647  0.88654262  1  0.067022  0.008148  0.925811  0.01  0.076329  0.005603  0.988871  0.007  0.07538  0.003763  0.985207  0.005  0.11329  0.076689  0.00706  0.991793  0.009
H  H28  1  0.88491326  0.71926664  0.81912228  1  0.08648  -5.5e-05  0.959577  0.0  0.102072  -8.2e-05  1.026905  0.0  0.102139  -6.4e-05  1.027011  0.0  0.097709  0.101828  -9.1e-05  1.026983  0.0
H  H29  1  0.11508146  0.28074560  0.18088963  1  0.086501  5.5e-05  0.959381  0.0  0.102073  8.2e-05  1.026766  0.0  0.10214  6.4e-05  1.026871  0.0  0.097714  0.101826  9e-05  1.026844  0.0
H  H30  1  0.92339892  0.79051408  0.68390859  1  0.109154  4e-06  0.946559  0.0  0.124689  6e-06  1.011022  0.0  0.125815  8e-06  1.010143  0.0  0.107312  0.123635  2e-06  1.011905  0.0
H  H31  1  0.07661015  0.20949185  0.31610434  1  0.109151  -5e-06  0.946545  0.0  0.124703  -6e-06  1.011002  0.0  0.125826  -8e-06  1.010131  0.0  0.107367  0.123646  -2e-06  1.011882  0.0
H  H32  1  0.79808803  0.64467688  0.71896726  1  0.086258  -1.2e-05  0.935486  0.0  0.104946  1.5e-05  0.996924  0.0  0.105151  1.4e-05  0.99749  0.0  0.098432  0.104571  1.9e-05  0.996768  0.0
H  H33  1  0.20192893  0.35532474  0.28104087  1  0.086176  1.2e-05  0.935508  0.0  0.10493  -1.5e-05  0.9969  0.0  0.10513  -1.5e-05  0.997472  0.0  0.098411  0.104553  -1.9e-05  0.996743  0.0
C  C34  1  0.43032679  0.44077335  0.73002518  1  0.281942  0.00177  3.825991  0.006  0.270075  -0.001499  4.08581  0.001  0.291633  -0.00074  4.100952  0.001  0.096835  0.255981  -0.002047  4.07543  0.001
C  C35  1  0.56967680  0.55922685  0.26996899  1  0.282092  -0.001769  3.825941  -0.006  0.270142  0.001499  4.085828  -0.001  0.291741  0.000738  4.100922  -0.001  0.096848  0.256047  0.002048  4.075439  -0.001
C  C36  1  0.55595730  0.48125929  0.63559523  1  0.135972  -0.013226  3.781065  -0.014  0.131992  -0.007034  4.034577  -0.009  0.133958  -0.005063  4.050915  -0.006  0.069085  0.130363  -0.00848  4.023333  -0.01
C  C37  1  0.44404524  0.51873985  0.36440152  1  0.135687  0.013226  3.781376  0.014  0.131815  0.007036  4.034821  0.009  0.133779  0.005066  4.051141  0.006  0.068956  0.130183  0.008482  4.023567  0.01
C  C38  1  0.55158981  0.62112639  0.60050070  1  -0.145045  0.004121  3.7406  0.004  -0.176014  0.001006  4.006955  0.001  -0.173125  0.001106  4.02338  0.001  -0.095593  -0.177845  0.00093  3.995583  0.001
C  C39  1  0.44841327  0.37886833  0.39948877  1  -0.14515  -0.004119  3.740808  -0.004  -0.176081  -0.001005  4.007152  -0.001  -0.173202  -0.001109  4.023588  -0.001  -0.095624  -0.177921  -0.00093  3.995792  -0.001
C  C40  1  0.42416688  0.72866165  0.65701234  1  -0.075284  -0.001874  3.79438  -0.002  -0.098646  0.000218  4.070124  0.0  -0.103828  0.000127  4.089876  0.0  -0.103225  -0.094504  0.000162  4.055442  0.0
C  C41  1  0.57582610  0.27132647  0.34297597  1  -0.075248  0.001872  3.794281  0.002  -0.098671  -0.000218  4.070036  0.0  -0.10385  -0.000126  4.089786  0.0  -0.103063  -0.094533  -0.000161  4.055356  0.0
C  C42  1  0.30287694  0.69535812  0.74877088  1  -0.08321  0.004457  3.769291  0.004  -0.111139  0.001297  4.033308  0.001  -0.107008  0.001229  4.056137  0.001  -0.093259  -0.113536  0.001262  4.0174  0.001
C  C43  1  0.69711715  0.30463976  0.25121964  1  -0.083026  -0.004452  3.769382  -0.004  -0.110943  -0.001296  4.033373  -0.001  -0.106808  -0.00123  4.056206  -0.001  -0.093237  -0.113342  -0.001262  4.017468  -0.001
C  C44  1  0.30371116  0.55234119  0.78671828  1  -0.154617  -0.007598  3.857705  -0.01  -0.140177  -0.003908  4.101069  -0.006  -0.161684  -0.002013  4.132492  -0.003  -0.048299  -0.126571  -0.005556  4.079981  -0.008
C  C45  1  0.69628336  0.44765341  0.21326896  1  -0.154797  0.007598  3.857844  0.01  -0.140349  0.003909  4.101254  0.006  -0.161884  0.002015  4.132686  0.003  -0.048376  -0.126745  0.005557  4.080163  0.008
C  C46  1  0.17638907  0.52557978  0.88276975  1  0.31883  0.010839  3.67671  0.014  0.281164  0.002562  3.942103  0.005  0.313728  0.002975  3.943133  0.005  0.077879  0.260111  0.001984  3.940335  0.005
C  C47  1  0.82360717  0.47442030  0.11722114  1  0.318684  -0.010831  3.677036  -0.014  0.281005  -0.00256  3.942397  -0.005  0.31357  -0.002974  3.943439  -0.005  0.077853  0.259956  -0.001982  3.94063  -0.005
C  C48  1  0.81297473  0.40906176  0.49943311  1  -0.079399  0.000118  3.623516  0.0  -0.174222  8e-05  3.884606  0.0  -0.168  7.3e-05  3.890257  0.0  -0.141927  -0.178207  7.1e-05  3.880528  0.0
C  C49  1  0.18702868  0.59092229  0.50056496  1  -0.079379  -0.000122  3.623536  0.0  -0.174217  -8e-05  3.884591  0.0  -0.167989  -7.3e-05  3.890239  0.0  -0.141953  -0.178206  -7.1e-05  3.880516  0.0
C  C50  1  0.42889014  0.93495662  0.90380761  1  0.28602  0.003329  3.822077  0.007  0.275636  -0.000749  4.07642  0.002  0.296826  -0.000138  4.092587  0.002  0.103415  0.261704  -0.001547  4.065667  0.001
C  C51  1  0.57110762  0.06504133  0.09618455  1  0.286251  -0.003332  3.822128  -0.007  0.275693  0.000749  4.076673  -0.002  0.296947  0.00014  4.092752  -0.002  0.103445  0.261768  0.001548  4.065922  -0.001
C  C52  1  0.56579877  0.82325382  0.87392814  1  0.147928  -0.014478  3.780704  -0.015  0.143294  -0.007067  4.033855  -0.008  0.145805  -0.005199  4.052393  -0.006  0.072067  0.140394  -0.008351  4.022361  -0.01
C  C53  1  0.43420226  0.17674751  0.12607131  1  0.147756  0.014489  3.780772  0.015  0.143237  0.007068  4.033849  0.008  0.145727  0.005198  4.052385  0.006  0.072115  0.140319  0.008353  4.022373  0.01
C  C54  1  0.56337727  0.70049155  0.93396976  1  -0.184487  0.002945  3.805137  0.003  -0.223021  0.000171  4.089856  0.001  -0.223765  0.000335  4.109023  0.001  -0.108369  -0.222799  0.000248  4.078314  0.001
C  C55  1  0.43662518  0.29951742  0.06603421  1  -0.184481  -0.002946  3.805129  -0.003  -0.223044  -0.000169  4.089759  -0.001  -0.223804  -0.000332  4.108908  -0.001  -0.108421  -0.222816  -0.000248  4.078216  -0.001
C  C56  1  0.42597043  0.68000939  0.02530800  1  -0.099093  -0.003606  3.837675  -0.003  -0.123796  -0.000467  4.118142  0.0  -0.131765  -0.000486  4.142443  0.0  -0.113045  -0.118936  -0.00029  4.102001  0.0
C  C57  1  0.57403250  0.32000501  0.97469749  1  -0.098955  0.003613  3.837734  0.003  -0.123619  0.000466  4.118162  0.0  -0.131587  0.000484  4.142467  0.0  -0.112999  -0.118761  0.000289  4.102021  0.0
C  C58  1  0.29317805  0.78363209  0.05668176  1  -0.060537  0.001788  3.739704  0.002  -0.091062  0.000408  4.005798  0.001  -0.085121  0.000594  4.025015  0.001  -0.086522  -0.094943  0.000451  3.992538  0.001
C  C59  1  0.70681690  0.21637784  0.94331897  1  -0.060585  -0.001793  3.739603  -0.002  -0.09112  -0.000407  4.005695  -0.001  -0.085189  -0.000592  4.024923  -0.001  -0.086552  -0.095002  -0.000451  3.992437  -0.001
C  C60  1  0.29283283  0.91257078  0.99800185  1  -0.148902  -0.006692  3.826918  -0.009  -0.136422  -0.003489  4.075264  -0.005  -0.156837  -0.001851  4.104236  -0.003  -0.044072  -0.122625  -0.005123  4.055749  -0.007
C  C61  1  0.70716377  0.08743585  0.00199377  1  -0.14904  0.006699  3.826814  0.009  -0.136522  0.003491  4.075236  0.005  -0.156957  0.00185  4.104195  0.003  -0.044077  -0.122725  0.005125  4.055725  0.007
C  C62  1  0.15632443  0.01894818  0.04016239  1  0.324353  0.008444  3.676451  0.011  0.279255  0.001612  3.952928  0.004  0.312007  0.002222  3.952663  0.004  0.076983  0.256553  0.000874  3.953452  0.004
C  C63  1  0.84367199  0.98105088  0.95983322  1  0.324411  -0.008447  3.676408  -0.011  0.27933  -0.001614  3.952874  -0.004  0.312079  -0.002222  3.952616  -0.004  0.07698  0.256629  -0.000874  3.953401  -0.004
C  C64  1  0.83318560  0.74365600  0.75046863  1  -0.081376  0.000125  3.606362  0.0  -0.173667  6.1e-05  3.862787  0.0  -0.167908  5.2e-05  3.868222  0.0  -0.140062  -0.177313  5.8e-05  3.859363  0.0
C  C65  1  0.16681841  0.25635092  0.24954136  1  -0.081294  -0.000123  3.606101  0.0  -0.173663  -6.2e-05  3.862552  0.0  -0.167904  -5.2e-05  3.867993  0.0  -0.140121  -0.177308  -5.8e-05  3.859131  0.0
O  O66  1  0.44062462  0.30727601  0.75824778  1  -0.584556  -0.098437  2.187693  -0.125  -0.56529  -0.063206  2.489256  -0.089  -0.609865  -0.049013  2.485278  -0.073  -0.391957  -0.536636  -0.071125  2.491441  -0.096
O  O67  1  0.55938144  0.69272429  0.24175144  1  -0.584573  0.09843  2.187768  0.125  -0.565212  0.063206  2.489319  0.089  -0.609804  0.049006  2.485315  0.073  -0.391935  -0.536558  0.071122  2.491527  0.096
O  O68  1  0.67511460  0.37119637  0.58613272  1  -0.269011  -0.000817  2.404858  0.0  -0.193403  -0.000444  2.644676  0.0  -0.210485  -0.000336  2.649022  0.0  -0.238014  -0.18117  -0.000554  2.640914  0.0
O  O69  1  0.32489634  0.62879539  0.41387022  1  -0.268915  0.000818  2.404959  0.0  -0.1934  0.000443  2.644801  0.0  -0.210494  0.000336  2.64915  0.0  -0.23799  -0.181167  0.000553  2.641036  0.0
O  O70  1  0.15354170  0.40692012  0.92927670  1  -0.457914  -0.08236  2.172125  -0.106  -0.418584  -0.05729  2.45104  -0.082  -0.458179  -0.044481  2.439067  -0.067  -0.288935  -0.393722  -0.065298  2.457921  -0.089
O  O71  1  0.84646018  0.59307461  0.07071460  1  -0.457801  0.082352  2.172446  0.106  -0.418464  0.057289  2.451354  0.082  -0.458077  0.044478  2.439393  0.067  -0.288911  -0.393587  0.065296  2.458224  0.089
O  O72  1  0.43758550  0.04765405  0.84425521  1  -0.581164  -0.087183  2.189464  -0.111  -0.556158  -0.056721  2.485275  -0.08  -0.598924  -0.044364  2.481971  -0.066  -0.389094  -0.52954  -0.064339  2.487054  -0.086
O  O73  1  0.56241226  0.95234387  0.15573536  1  -0.58128  0.0872  2.189552  0.111  -0.556205  0.056733  2.485425  0.08  -0.599014  0.044371  2.48211  0.066  -0.389098  -0.529582  0.064347  2.487225  0.086
O  O74  1  0.69385289  0.85187448  0.78558764  1  -0.26508  -0.001226  2.3999  -0.001  -0.187227  -0.000447  2.637961  0.0  -0.205333  -0.000342  2.644569  0.0  -0.21841  -0.174797  -0.000503  2.633328  0.0
O  O75  1  0.30614966  0.14812471  0.21441228  1  -0.265042  0.001227  2.399881  0.001  -0.187175  0.000448  2.637906  0.0  -0.205282  0.000341  2.644513  0.0  -0.218383  -0.174743  0.000503  2.633274  0.0
O  O76  1  0.13322809  0.14349455  0.00489203  1  -0.474222  -0.07428  2.157895  -0.096  -0.437283  -0.053223  2.447244  -0.076  -0.475396  -0.041703  2.435895  -0.063  -0.291752  -0.412793  -0.060727  2.454656  -0.083
O  O77  1  0.86676866  0.85651101  0.99510435  1  -0.474233  0.074279  2.158107  0.096  -0.437284  0.053225  2.447415  0.076  -0.475415  0.041703  2.436086  0.063  -0.291705  -0.41279  0.060725  2.454848  0.083
F  F78  1  0.85521515  0.05295337  0.41056618  1  -0.470468  3.3e-05  1.080018  0.0  -0.423954  1.3e-05  1.265622  0.0  -0.43654  1.1e-05  1.244834  0.0  -0.174909  -0.414956  1.5e-05  1.27999  0.0
F  F79  1  0.14478573  0.94705047  0.58945713  1  -0.470545  -3.3e-05  1.079925  0.0  -0.424039  -1.2e-05  1.26551  0.0  -0.436666  -1.1e-05  1.244726  0.0  -0.174929  -0.415042  -1.5e-05  1.279879  0.0
F  F80  1  0.85317994  0.92260683  0.25281381  1  -0.450288  -0.001283  1.098746  0.0  -0.412438  -0.001335  1.295245  -0.001  -0.424774  -0.001173  1.270128  -0.001  -0.141958  -0.403711  -0.001457  1.312658  -0.001
F  F81  1  0.14682366  0.07740342  0.74720264  1  -0.450443  0.001284  1.09883  0.0  -0.412531  0.001336  1.295249  0.001  -0.424886  0.001174  1.270129  0.001  -0.141997  -0.403807  0.001457  1.312665  0.001
F  F82  1  0.85390483  0.71167721  0.34732322  1  -0.437103  -0.000192  1.058495  0.0  -0.390571  -0.00019  1.233797  0.0  -0.403212  -0.000172  1.213559  0.0  -0.148939  -0.382076  -0.000196  1.248357  0.0
F  F83  1  0.14609644  0.28833185  0.65268734  1  -0.437144  0.000192  1.058474  0.0  -0.390605  0.00019  1.233755  0.0  -0.403216  0.000172  1.21347  0.0  -0.14894  -0.382106  0.000196  1.248317  0.0
F  F84  1  0.85451190  0.84322926  0.50486557  1  -0.473349  8e-06  1.087935  0.0  -0.427556  1e-06  1.276187  0.0  -0.440198  2e-06  1.255  0.0  -0.177193  -0.41853  -0.0  1.290967  0.0
F  F85  1  0.14548142  0.15676682  0.49514969  1  -0.473333  -8e-06  1.087991  0.0  -0.427489  -2e-06  1.276185  0.0  -0.440121  -3e-06  1.254973  0.0  -0.1771  -0.418463  0.0  1.290961  0.0
F  F86  1  0.05668421  0.86194065  0.33697163  1  -0.470003  -3.5e-05  1.064068  0.0  -0.425878  -6.4e-05  1.249755  0.0  -0.437513  -3.1e-05  1.226447  0.0  -0.19658  -0.417447  -9.9e-05  1.265789  0.0
F  F87  1  0.94331497  0.13806634  0.66304728  1  -0.469879  3.5e-05  1.064014  0.0  -0.425869  6.4e-05  1.249764  0.0  -0.43752  3e-05  1.226451  0.0  -0.196557  -0.417432  9.9e-05  1.265798  0.0
F  F88  1  0.65184073  0.90389109  0.42087371  1  -0.483873  -4.3e-05  1.063764  0.0  -0.438908  -4.5e-05  1.250942  0.0  -0.451236  -3.4e-05  1.229821  0.0  -0.189392  -0.430247  -5.5e-05  1.265583  0.0
F  F89  1  0.34815826  0.09611690  0.57913968  1  -0.483877  4.3e-05  1.063736  0.0  -0.438947  4.6e-05  1.250895  0.0  -0.451289  3.4e-05  1.229766  0.0  -0.189437  -0.430286  5.5e-05  1.265538  0.0
