# generated using pymatgen
data_CdH6C3(NO)4
_symmetry_space_group_name_H-M   'P 1'
_cell_length_a   7.94027566
_cell_length_b   8.69678613
_cell_length_c   10.68713739
_cell_angle_alpha   89.99926445
_cell_angle_beta   92.67845808
_cell_angle_gamma   90.00151043
_symmetry_Int_Tables_number   1
_chemical_formula_structural   CdH6C3(NO)4
_chemical_formula_sum   'Cd4 H24 C12 N16 O16'
_cell_volume   737.19272920
_cell_formula_units_Z   4
loop_
 _symmetry_equiv_pos_site_id
 _symmetry_equiv_pos_as_xyz
  1  'x, y, z'
loop_
 _atom_site_type_symbol
 _atom_site_label
 _atom_site_symmetry_multiplicity
 _atom_site_fract_x
 _atom_site_fract_y
 _atom_site_fract_z
 _atom_site_occupancy
 _atom_site_pbe_bader_spin_density
 _atom_site_pbe_cm5_charge
 _atom_site_pbe_ddec_charge
 _atom_site_pbe_ddec_spin_density
 _atom_site_pbe_ddec_sum_bond_order
 _atom_site_pbe_magmom
Cd  Cd0  1  0.23319349  0.52526051  0.29451556  1  0  0.780036  0.965507  0  2.141453  0
Cd  Cd1  1  0.26679482  0.02527892  0.20548412  1  0  0.780024  0.96551  0  2.141468  0
Cd  Cd2  1  0.76679663  0.47473158  0.70548201  1  0  0.780002  0.965547  0  2.141515  0
Cd  Cd3  1  0.73318268  0.97471892  0.79451308  1  0  0.779995  0.965445  0  2.141364  0
H  H4  1  0.92930771  0.40021661  0.37466724  1  0  0.286089  0.331141  0  1.039672  0
H  H5  1  0.57068188  0.90021168  0.12533637  1  0  0.286081  0.331109  0  1.039717  0
H  H6  1  0.07069118  0.59977893  0.62532591  1  0  0.286089  0.331211  0  1.039561  0
H  H7  1  0.42931837  0.09978731  0.87466711  1  0  0.286075  0.331103  0  1.039707  0
H  H8  1  0.89094950  0.57265256  0.36471979  1  0  0.299078  0.382001  0  0.945048  0
H  H9  1  0.60905218  0.07264061  0.13526054  1  0  0.298988  0.381911  0  0.945237  0
H  H10  1  0.10904571  0.42734643  0.63528355  1  0  0.299045  0.381956  0  0.945046  0
H  H11  1  0.39094164  0.92735493  0.86472873  1  0  0.299012  0.381922  0  0.945103  0
H  H12  1  0.58701772  0.54215373  0.37496532  1  0  0.286618  0.38601  0  0.949486  0
H  H13  1  0.91298167  0.04214449  0.12503778  1  0  0.286624  0.386047  0  0.94945  0
H  H14  1  0.41298626  0.45784181  0.62503360  1  0  0.286593  0.386023  0  0.949494  0
H  H15  1  0.08701845  0.95783610  0.87495073  1  0  0.286671  0.386112  0  0.949365  0
H  H16  1  0.57027222  0.55668544  0.22593459  1  0  0.276216  0.331583  0  1.039821  0
H  H17  1  0.92973467  0.05668904  0.27407002  1  0  0.276237  0.33162  0  1.039763  0
H  H18  1  0.42973813  0.44330090  0.77407107  1  0  0.276218  0.331574  0  1.039829  0
H  H19  1  0.07025289  0.94329615  0.72592467  1  0  0.276237  0.331553  0  1.039843  0
H  H20  1  0.43350164  0.12868262  0.58014209  1  0  0.115761  0.152752  0  0.998666  0
H  H21  1  0.06648248  0.62870498  0.91984434  1  0  0.115795  0.152864  0  0.9986  0
H  H22  1  0.56643558  0.87130832  0.41986140  1  0  0.115835  0.152827  0  0.998702  0
H  H23  1  0.93354798  0.37130435  0.08015537  1  0  0.115804  0.152802  0  0.99876  0
H  H24  1  0.23698701  0.15994535  0.64198689  1  0  0.118551  0.156682  0  0.964156  0
H  H25  1  0.26301749  0.65995155  0.85801839  1  0  0.11852  0.156695  0  0.964177  0
H  H26  1  0.76297926  0.84005479  0.35802214  1  0  0.118572  0.156689  0  0.964181  0
H  H27  1  0.73701934  0.34004169  0.14198806  1  0  0.118567  0.15665  0  0.964161  0
C  C28  1  0.24097782  0.97369655  0.51669522  1  0  0.221951  0.331751  0  3.991993  0
C  C29  1  0.25902574  0.47369882  0.98329677  1  0  0.221992  0.33177  0  3.991657  0
C  C30  1  0.75899838  0.02630474  0.48329726  1  0  0.221914  0.33148  0  3.992022  0
C  C31  1  0.74099714  0.52629672  0.01669991  1  0  0.22193  0.331585  0  3.991936  0
C  C32  1  0.29707738  0.13046610  0.55475092  1  0  -0.152386  -0.393193  0  3.923806  0
C  C33  1  0.20291080  0.63047454  0.94524948  1  0  -0.152457  -0.393353  0  3.923418  0
C  C34  1  0.70286737  0.86953520  0.44524812  1  0  -0.152489  -0.393171  0  3.923348  0
C  C35  1  0.79712227  0.36954054  0.05475872  1  0  -0.152408  -0.39304  0  3.92372  0
C  C36  1  0.26920624  0.26005893  0.46125105  1  0  0.213096  0.650749  0  4.140907  0
C  C37  1  0.23080387  0.76005627  0.03875833  1  0  0.213124  0.650721  0  4.140867  0
C  C38  1  0.73077003  0.73994466  0.53874892  1  0  0.213054  0.650898  0  4.140681  0
C  C39  1  0.76923561  0.23995997  0.96126316  1  0  0.213052  0.650765  0  4.140868  0
N  N40  1  0.15753265  0.88209278  0.59372257  1  0  -0.206272  -0.250059  0  3.271249  0
N  N41  1  0.34248361  0.38210158  0.90627285  1  0  -0.206447  -0.250234  0  3.271378  0
N  N42  1  0.84246121  0.11789816  0.40627137  1  0  -0.206407  -0.250187  0  3.271357  0
N  N43  1  0.65753931  0.61789396  0.09372944  1  0  -0.206462  -0.250349  0  3.271421  0
N  N44  1  0.13618942  0.74839499  0.53348125  1  0  -0.083245  -0.045502  0  3.358326  0
N  N45  1  0.36382470  0.24840174  0.96650942  1  0  -0.083079  -0.045331  0  3.358477  0
N  N46  1  0.86380818  0.25159940  0.46650812  1  0  -0.083075  -0.045222  0  3.35838  0
N  N47  1  0.63619575  0.75159610  0.03349747  1  0  -0.08295  -0.044995  0  3.358437  0
N  N48  1  0.20330695  0.75710302  0.42350060  1  0  -0.102249  -0.070534  0  3.394945  0
N  N49  1  0.29670653  0.25710310  0.07649048  1  0  -0.102295  -0.070597  0  3.395157  0
N  N50  1  0.79668813  0.24289712  0.57648870  1  0  -0.102312  -0.07066  0  3.395122  0
N  N51  1  0.70330760  0.74290279  0.92351529  1  0  -0.102342  -0.070764  0  3.395386  0
N  N52  1  0.27016003  0.89860990  0.40950682  1  0  -0.230792  -0.284899  0  3.337649  0
N  N53  1  0.22985872  0.39860766  0.09048454  1  0  -0.230746  -0.284804  0  3.337515  0
N  N54  1  0.72983254  0.10139254  0.59048333  1  0  -0.23072  -0.284708  0  3.337564  0
N  N55  1  0.77015659  0.60140168  0.90951191  1  0  -0.230755  -0.284753  0  3.33755  0
O  O56  1  0.24684051  0.23603947  0.34485158  1  0  -0.317987  -0.562661  0  2.333599  0
O  O57  1  0.25317012  0.73602120  0.15515379  1  0  -0.317988  -0.562552  0  2.333473  0
O  O58  1  0.75312817  0.76397447  0.65514535  1  0  -0.317941  -0.562722  0  2.333704  0
O  O59  1  0.74687181  0.26399619  0.84485936  1  0  -0.318021  -0.562798  0  2.333532  0
O  O60  1  0.95084696  0.49211579  0.32015826  1  0  -0.585476  -0.73886  0  2.174068  0
O  O61  1  0.54915388  0.99211258  0.17983979  1  0  -0.585412  -0.738788  0  2.174256  0
O  O62  1  0.04915581  0.50789010  0.67984530  1  0  -0.58543  -0.738872  0  2.173881  0
O  O63  1  0.45084508  0.00788986  0.82015992  1  0  -0.5854  -0.738744  0  2.174139  0
O  O64  1  0.27219235  0.39661333  0.50588625  1  0  -0.317223  -0.583441  0  2.260765  0
O  O65  1  0.22781507  0.89660900  0.99411487  1  0  -0.317224  -0.583489  0  2.260705  0
O  O66  1  0.72781036  0.60339026  0.49411076  1  0  -0.317226  -0.583531  0  2.260678  0
O  O67  1  0.77220172  0.10340494  0.00590501  1  0  -0.317178  -0.583436  0  2.260637  0
O  O68  1  0.51877188  0.50666545  0.30038503  1  0  -0.601758  -0.759042  0  2.140577  0
O  O69  1  0.98123091  0.00666978  0.19961722  1  0  -0.60178  -0.759119  0  2.140595  0
O  O70  1  0.48123716  0.49331630  0.69961498  1  0  -0.601716  -0.759065  0  2.140658  0
O  O71  1  0.01876799  0.99332576  0.80037593  1  0  -0.601798  -0.759091  0  2.140464  0
