# generated using pymatgen
data_CuH22C22SN2O5
_symmetry_space_group_name_H-M   'P 1'
_cell_length_a   5.43147134
_cell_length_b   20.50628287
_cell_length_c   20.19061223
_cell_angle_alpha   89.99973796
_cell_angle_beta   89.99985955
_cell_angle_gamma   90.00043234
_symmetry_Int_Tables_number   1
_chemical_formula_structural   CuH22C22SN2O5
_chemical_formula_sum   'Cu4 H88 C88 S4 N8 O20'
_cell_volume   2248.81600636
_cell_formula_units_Z   4
loop_
 _symmetry_equiv_pos_site_id
 _symmetry_equiv_pos_as_xyz
  1  'x, y, z'
loop_
 _atom_site_type_symbol
 _atom_site_label
 _atom_site_symmetry_multiplicity
 _atom_site_fract_x
 _atom_site_fract_y
 _atom_site_fract_z
 _atom_site_occupancy
 _atom_site_pbe_bader_charge
 _atom_site_pbe_bader_spin_density
 _atom_site_pbe_cm5_charge
 _atom_site_pbe_ddec_charge
 _atom_site_pbe_ddec_spin_density
 _atom_site_pbe_ddec_sum_bond_order
 _atom_site_pbe_magmom
Cu  Cu0  1  0.45208727  0.75000374  0.49999917  1  1.065173  -0.567248  0.746077  0.785086  -0.731357  2.266098  -0.567
Cu  Cu1  1  0.54792804  0.74999695  0.99999686  1  1.065029  -0.567247  0.746116  0.785214  -0.731368  2.266056  -0.567
Cu  Cu2  1  0.54793881  0.24999952  0.50000139  1  1.064992  -0.567253  0.746103  0.78511  -0.731378  2.266225  -0.567
Cu  Cu3  1  0.45209488  0.24999740  0.99999913  1  1.065256  -0.56726  0.746077  0.785048  -0.73137  2.266184  -0.567
H  H4  1  0.96393573  0.76793092  0.53651496  1  0.647085  0.000117  0.273849  0.359093  0.000478  1.007704  0.0
H  H5  1  0.03608556  0.76792658  0.96347851  1  0.647787  0.000117  0.273888  0.359111  0.000479  1.007644  0.0
H  H6  1  0.96393195  0.73208255  0.46347813  1  0.64716  0.000118  0.273827  0.359103  0.000478  1.007677  0.0
H  H7  1  0.03606396  0.73207462  0.03651563  1  0.646581  0.000118  0.273787  0.359001  0.000479  1.007807  0.0
H  H8  1  0.03607746  0.23207722  0.46348065  1  0.64744  0.000117  0.273827  0.359018  0.000479  1.007784  0.0
H  H9  1  0.96394420  0.23207473  0.03652452  1  0.647281  0.000118  0.273804  0.358997  0.000478  1.007848  0.0
H  H10  1  0.03608124  0.26792315  0.53651896  1  0.647459  0.000117  0.273856  0.35908  0.000478  1.007696  0.0
H  H11  1  0.96393635  0.26792084  0.96348543  1  0.646646  0.000117  0.273812  0.359066  0.000478  1.007712  0.0
H  H12  1  0.73774947  0.74061156  0.61987264  1  0.177045  -0.002024  0.127188  0.117594  -0.000974  1.016963  -0.002
H  H13  1  0.26229505  0.74061684  0.88012443  1  0.177254  -0.002023  0.127162  0.117608  -0.000974  1.016887  -0.002
H  H14  1  0.73770304  0.75938776  0.38012306  1  0.177207  -0.002024  0.127173  0.117621  -0.000975  1.016833  -0.002
H  H15  1  0.26229357  0.75937657  0.11987057  1  0.177103  -0.002022  0.127184  0.117596  -0.000973  1.017079  -0.002
H  H16  1  0.26228029  0.25938634  0.38013980  1  0.177183  -0.002023  0.127169  0.117591  -0.000974  1.016997  -0.002
H  H17  1  0.73774392  0.25938886  0.11987811  1  0.176859  -0.002024  0.12719  0.11758  -0.000974  1.017001  -0.002
H  H18  1  0.26227148  0.24060769  0.61986710  1  0.177383  -0.002023  0.127221  0.117687  -0.000974  1.016955  -0.002
H  H19  1  0.73773251  0.24061499  0.88012603  1  0.177169  -0.002024  0.127181  0.117617  -0.000975  1.016901  -0.002
H  H20  1  0.14124715  0.63684384  0.54527257  1  0.128931  -0.002188  0.122773  0.093348  -0.00095  1.012311  -0.001
H  H21  1  0.85873577  0.63683207  0.95473295  1  0.128719  -0.002188  0.12279  0.093378  -0.000949  1.01223  -0.001
H  H22  1  0.14124132  0.86316783  0.45472993  1  0.128674  -0.002189  0.122762  0.093374  -0.00095  1.012209  -0.001
H  H23  1  0.85872483  0.86316801  0.04526466  1  0.129134  -0.002187  0.1228  0.09336  -0.000949  1.012218  -0.001
H  H24  1  0.85876788  0.36316625  0.45472254  1  0.128664  -0.002188  0.122714  0.093298  -0.000949  1.012244  -0.001
H  H25  1  0.14124244  0.36315413  0.04527455  1  0.128956  -0.002189  0.122773  0.09334  -0.00095  1.012376  -0.001
H  H26  1  0.85875898  0.13683445  0.54526964  1  0.128558  -0.002187  0.122753  0.093293  -0.000949  1.012257  -0.001
H  H27  1  0.14125706  0.13683477  0.95472797  1  0.128903  -0.002188  0.122736  0.093272  -0.00095  1.012272  -0.001
H  H28  1  0.78375212  0.66444597  0.71451136  1  0.084806  -0.001004  0.11126  0.12431  -0.000515  0.993262  0.0
H  H29  1  0.21628491  0.66445350  0.78548411  1  0.084437  -0.001004  0.111284  0.124369  -0.000515  0.9932  0.0
H  H30  1  0.78369388  0.83554955  0.28548085  1  0.084348  -0.001004  0.111299  0.124386  -0.000515  0.993212  0.0
H  H31  1  0.21626788  0.83553737  0.21450843  1  0.084493  -0.001004  0.111259  0.124338  -0.000515  0.993253  0.0
H  H32  1  0.21622977  0.33554851  0.28550059  1  0.08512  -0.001004  0.111228  0.124321  -0.000515  0.993241  0.0
H  H33  1  0.78371724  0.33555074  0.21452090  1  0.084259  -0.001004  0.1113  0.124287  -0.000515  0.993216  0.0
H  H34  1  0.21626776  0.16444201  0.71450733  1  0.084876  -0.001004  0.111283  0.124378  -0.000515  0.993274  0.0
H  H35  1  0.78375452  0.16445272  0.78548569  1  0.08477  -0.001005  0.111193  0.124236  -0.000515  0.993205  0.0
H  H36  1  0.15311538  0.55870273  0.63933430  1  0.081713  -0.001147  0.104946  0.114579  -0.000598  1.062988  -0.001
H  H37  1  0.84685632  0.55869425  0.86067012  1  0.081564  -0.001147  0.105001  0.114645  -0.000598  1.063035  -0.001
H  H38  1  0.15309594  0.94130263  0.36066126  1  0.081714  -0.001147  0.104951  0.11465  -0.000598  1.06303  -0.001
H  H39  1  0.84681884  0.94130726  0.13932403  1  0.081793  -0.001146  0.104953  0.114561  -0.000597  1.063038  -0.001
H  H40  1  0.84686651  0.44130102  0.36065982  1  0.081613  -0.001146  0.105006  0.114715  -0.000597  1.062994  -0.001
H  H41  1  0.15308139  0.44128561  0.13934282  1  0.081996  -0.001146  0.104932  0.114663  -0.000597  1.062959  -0.001
H  H42  1  0.84689147  0.05869722  0.63933336  1  0.081571  -0.001147  0.104985  0.11469  -0.000598  1.0631  -0.001
H  H43  1  0.15313728  0.05870087  0.86065969  1  0.081619  -0.001146  0.10497  0.114661  -0.000598  1.062886  -0.001
H  H44  1  0.70085584  0.58471913  0.46398178  1  0.121048  -0.000137  0.097604  0.11403  -0.000215  1.04067  0.0
H  H45  1  0.29914363  0.58471568  0.03601866  1  0.121125  -0.000136  0.097605  0.114011  -0.000215  1.040737  0.0
H  H46  1  0.70084318  0.91528450  0.53601146  1  0.121123  -0.000137  0.097593  0.114053  -0.000215  1.040573  0.0
H  H47  1  0.29915246  0.91528268  0.96399019  1  0.121064  -0.000136  0.0976  0.114046  -0.000215  1.040653  0.0
H  H48  1  0.29914999  0.41528023  0.53600441  1  0.120973  -0.000137  0.097569  0.113987  -0.000215  1.040723  0.0
H  H49  1  0.70086036  0.41527636  0.96399379  1  0.120868  -0.000137  0.097603  0.11405  -0.000215  1.040704  0.0
H  H50  1  0.29912767  0.08472998  0.46399009  1  0.120874  -0.000137  0.097603  0.114035  -0.000215  1.040706  0.0
H  H51  1  0.70084968  0.08471912  0.03601483  1  0.121051  -0.000137  0.097612  0.114043  -0.000215  1.040706  0.0
H  H52  1  0.44275853  0.57428566  0.36887135  1  0.046514  5.6e-05  0.091072  0.102121  5.6e-05  1.016349  0.0
H  H53  1  0.55724067  0.57427701  0.13112617  1  0.04659  5.7e-05  0.091101  0.102128  5.6e-05  1.01648  0.0
H  H54  1  0.44275255  0.92572326  0.63112502  1  0.046637  5.7e-05  0.091078  0.102106  5.6e-05  1.016394  0.0
H  H55  1  0.55727098  0.92571752  0.86887459  1  0.046584  5.7e-05  0.091125  0.102149  5.6e-05  1.016262  0.0
H  H56  1  0.55726755  0.42571614  0.63112921  1  0.04664  5.6e-05  0.0911  0.102131  5.6e-05  1.016363  0.0
H  H57  1  0.44273018  0.42571601  0.86887488  1  0.046615  5.7e-05  0.091139  0.102188  5.6e-05  1.016271  0.0
H  H58  1  0.55725328  0.07428439  0.36887355  1  0.046498  5.6e-05  0.091112  0.102132  5.6e-05  1.01635  0.0
H  H59  1  0.44273853  0.07427940  0.13112795  1  0.046447  5.6e-05  0.091108  0.102102  5.6e-05  1.016475  0.0
H  H60  1  0.28193925  0.61661508  0.30516743  1  0.038473  -0.00142  0.099396  0.117521  -0.000665  0.967717  -0.001
H  H61  1  0.71804631  0.61660799  0.19483137  1  0.03852  -0.001421  0.099436  0.117537  -0.000665  0.967772  -0.001
H  H62  1  0.28193522  0.88339641  0.69483053  1  0.038372  -0.001422  0.099439  0.117515  -0.000665  0.96777  -0.001
H  H63  1  0.71809826  0.88339471  0.80516980  1  0.038434  -0.00142  0.09947  0.117606  -0.000664  0.967718  -0.001
H  H64  1  0.71809972  0.38339257  0.69483115  1  0.03836  -0.001421  0.099442  0.117568  -0.000665  0.967792  -0.001
H  H65  1  0.28190612  0.38339040  0.80517217  1  0.038471  -0.001421  0.099463  0.117594  -0.000665  0.967731  -0.001
H  H66  1  0.71806692  0.11661173  0.30516657  1  0.038518  -0.00142  0.099405  0.1175  -0.000665  0.967778  -0.001
H  H67  1  0.28192966  0.11660758  0.19483374  1  0.038384  -0.001422  0.099402  0.117444  -0.000665  0.967748  -0.001
H  H68  1  0.34085076  0.46611370  0.42617997  1  0.035995  1e-06  0.088434  0.088067  3.4e-05  1.045706  0.0
H  H69  1  0.65915853  0.46610357  0.07381859  1  0.035994  1e-06  0.088376  0.088104  3.4e-05  1.045664  0.0
H  H70  1  0.34082787  0.03389806  0.57381302  1  0.035821  1e-06  0.088366  0.08805  3.4e-05  1.045684  0.0
H  H71  1  0.65915790  0.03388889  0.92618907  1  0.035955  1e-06  0.088366  0.088003  3.4e-05  1.045581  0.0
H  H72  1  0.65915507  0.53388371  0.57380722  1  0.036245  1e-06  0.088397  0.087998  3.4e-05  1.04564  0.0
H  H73  1  0.34084545  0.53388750  0.92619287  1  0.035885  2e-06  0.088373  0.088018  3.4e-05  1.045655  0.0
H  H74  1  0.65914298  0.96611837  0.42618506  1  0.036319  1e-06  0.088426  0.088059  3.4e-05  1.045602  0.0
H  H75  1  0.34084425  0.96611485  0.07381644  1  0.035938  2e-06  0.088427  0.088092  3.5e-05  1.045761  0.0
H  H76  1  0.88048546  0.58764695  0.35690176  1  0.039241  -3e-06  0.094549  0.099845  2.2e-05  0.996032  0.0
H  H77  1  0.11951224  0.58764412  0.14310164  1  0.039494  -3e-06  0.094528  0.099766  2.2e-05  0.996133  0.0
H  H78  1  0.88048270  0.91235513  0.64309435  1  0.039616  -3e-06  0.094571  0.099872  2.2e-05  0.996047  0.0
H  H79  1  0.11954601  0.91236019  0.85690880  1  0.039506  -3e-06  0.094581  0.09988  2.2e-05  0.996024  0.0
H  H80  1  0.11954246  0.41235680  0.64309038  1  0.039513  -3e-06  0.09456  0.09984  2.2e-05  0.996023  0.0
H  H81  1  0.88045860  0.41235768  0.85690685  1  0.039499  -3e-06  0.094591  0.099922  2.2e-05  0.995953  0.0
H  H82  1  0.11952497  0.08765009  0.35690076  1  0.039314  -3e-06  0.094568  0.099868  2.2e-05  0.995954  0.0
H  H83  1  0.88047086  0.08764892  0.14309721  1  0.039436  -3e-06  0.094581  0.099897  2.2e-05  0.995906  0.0
H  H84  1  0.05167245  0.51903688  0.32993816  1  0.020138  -0.000982  0.07921  0.063347  -0.000515  1.045291  -0.001
H  H85  1  0.94831611  0.51902990  0.17006409  1  0.019849  -0.000982  0.079293  0.063512  -0.000514  1.045088  -0.001
H  H86  1  0.05166751  0.98096972  0.67005547  1  0.020021  -0.000982  0.079198  0.063402  -0.000514  1.045251  -0.001
H  H87  1  0.94835192  0.98097134  0.82994833  1  0.020017  -0.000982  0.079211  0.063432  -0.000515  1.045278  -0.001
H  H88  1  0.94835179  0.48096931  0.67004853  1  0.020146  -0.000982  0.079164  0.063327  -0.000515  1.04533  -0.001
H  H89  1  0.05166394  0.48096848  0.82994935  1  0.020017  -0.000982  0.079167  0.063342  -0.000515  1.045326  -0.001
H  H90  1  0.94834016  0.01903647  0.32994311  1  0.020204  -0.000982  0.079196  0.06333  -0.000515  1.045381  -0.001
H  H91  1  0.05164838  0.01903387  0.17006115  1  0.019994  -0.000982  0.079194  0.063364  -0.000514  1.045238  -0.001
C  C92  1  0.25762367  0.66239839  0.40005152  1  1.560156  0.000368  0.204998  0.622637  0.000749  4.157791  0.002
C  C93  1  0.74238148  0.66238930  0.09994754  1  1.559762  0.000368  0.205073  0.62303  0.000748  4.157977  0.002
C  C94  1  0.25763598  0.83760769  0.59994893  1  1.559707  0.000365  0.205044  0.622978  0.000747  4.157597  0.002
C  C95  1  0.74240368  0.83760662  0.90005113  1  1.561134  0.000368  0.204925  0.622396  0.000748  4.15808  0.002
C  C96  1  0.74238952  0.33760341  0.59994855  1  1.560604  0.000369  0.204945  0.622502  0.000749  4.157839  0.002
C  C97  1  0.25760409  0.33760372  0.90005549  1  1.561201  0.00037  0.204909  0.622504  0.000747  4.157936  0.002
C  C98  1  0.74238089  0.16239899  0.40004915  1  1.560598  0.000369  0.204995  0.622497  0.00075  4.157804  0.002
C  C99  1  0.25762608  0.16239518  0.09995042  1  1.560041  0.000368  0.204944  0.622748  0.000747  4.157869  0.002
C  C100  1  0.61394084  0.69920215  0.62541100  1  0.431433  0.001486  0.055702  0.112654  0.001969  3.881862  0.001
C  C101  1  0.38607500  0.69920382  0.87458628  1  0.429237  0.001477  0.055644  0.112698  0.00197  3.881661  0.001
C  C102  1  0.61392499  0.80080178  0.37458576  1  0.429701  0.001477  0.055612  0.112593  0.001969  3.882014  0.001
C  C103  1  0.38607085  0.80078888  0.12541261  1  0.430198  0.001479  0.055617  0.112739  0.001969  3.882049  0.001
C  C104  1  0.38606683  0.30080014  0.37459451  1  0.429869  0.001481  0.055636  0.112647  0.001971  3.882088  0.001
C  C105  1  0.61394187  0.30079603  0.12541379  1  0.431499  0.001486  0.05568  0.112642  0.001969  3.881888  0.001
C  C106  1  0.38607163  0.19919709  0.62541182  1  0.430372  0.00148  0.055589  0.112539  0.00197  3.881956  0.001
C  C107  1  0.61394050  0.19920316  0.87458746  1  0.43126  0.001486  0.055663  0.112602  0.00197  3.881792  0.001
C  C108  1  0.28093845  0.64126012  0.58370523  1  0.486043  0.00168  0.062408  0.126631  0.002109  3.898827  0.001
C  C109  1  0.71906669  0.64125259  0.91629779  1  0.485787  0.00168  0.06231  0.126569  0.00211  3.898272  0.001
C  C110  1  0.28091632  0.85874649  0.41629520  1  0.485345  0.001678  0.062375  0.12651  0.002109  3.898394  0.001
C  C111  1  0.71905156  0.85874328  0.08369892  1  0.485266  0.00168  0.062344  0.126621  0.00211  3.898453  0.001
C  C112  1  0.71908763  0.35874656  0.41629285  1  0.485797  0.001679  0.062384  0.126677  0.002108  3.898323  0.001
C  C113  1  0.28092257  0.35873653  0.08370772  1  0.485562  0.001679  0.062362  0.126619  0.002109  3.899034  0.001
C  C114  1  0.71908951  0.14125433  0.58370288  1  0.485928  0.00168  0.062347  0.126744  0.00211  3.898202  0.001
C  C115  1  0.28094506  0.14125511  0.91629372  1  0.485717  0.001681  0.062426  0.126765  0.00211  3.898409  0.001
C  C116  1  0.47249330  0.60459185  0.68416334  1  -0.108793  0.003828  0.006845  0.087597  0.004255  4.050887  0.003
C  C117  1  0.52750720  0.60459212  0.81583887  1  -0.108684  0.003829  0.0069  0.087677  0.004256  4.050593  0.003
C  C118  1  0.47246208  0.89540446  0.31583252  1  -0.108337  0.003828  0.006948  0.087666  0.004256  4.050604  0.003
C  C119  1  0.52748098  0.89540089  0.18415596  1  -0.10899  0.003828  0.006887  0.087666  0.004256  4.050623  0.003
C  C120  1  0.52748307  0.39540556  0.31584465  1  -0.10837  0.003829  0.006887  0.087684  0.004256  4.050735  0.003
C  C121  1  0.47246364  0.39540041  0.18416664  1  -0.108355  0.003828  0.00694  0.087706  0.004256  4.050711  0.003
C  C122  1  0.52753086  0.10459198  0.68416061  1  -0.108678  0.003829  0.007  0.087742  0.004257  4.05071  0.003
C  C123  1  0.47251380  0.10459359  0.81583618  1  -0.108808  0.003828  0.006762  0.087386  0.004256  4.05097  0.003
C  C124  1  0.63795930  0.65666535  0.67834016  1  0.009776  -0.005388  -0.084451  -0.174242  -0.003609  3.967444  -0.004
C  C125  1  0.36205176  0.65666914  0.82165734  1  0.010225  -0.005387  -0.084447  -0.174312  -0.003609  3.96732  -0.004
C  C126  1  0.63793219  0.84333229  0.32165511  1  0.009845  -0.005388  -0.084478  -0.174319  -0.003609  3.967656  -0.004
C  C127  1  0.36203161  0.84332205  0.17833908  1  0.00865  -0.005388  -0.084479  -0.174392  -0.003607  3.967539  -0.004
C  C128  1  0.36200971  0.34333450  0.32166833  1  0.009299  -0.005385  -0.084411  -0.174306  -0.003608  3.967728  -0.004
C  C129  1  0.63794302  0.34332827  0.17834520  1  0.010083  -0.005388  -0.084496  -0.174167  -0.00361  3.967186  -0.004
C  C130  1  0.36204786  0.15666170  0.67833901  1  0.008845  -0.005388  -0.084471  -0.174299  -0.003608  3.96773  -0.004
C  C131  1  0.63797238  0.15666804  0.82165900  1  0.009661  -0.005388  -0.084347  -0.174035  -0.003609  3.967247  -0.004
C  C132  1  0.02304445  0.52879949  0.43608550  1  -0.084801  -0.000318  -0.021582  0.098104  -0.000169  3.967378  0.0
C  C133  1  0.97695542  0.52879302  0.06391522  1  -0.084609  -0.000318  -0.021552  0.09812  -0.000169  3.967417  0.0
C  C134  1  0.02303847  0.97120461  0.56390617  1  -0.084755  -0.000319  -0.021386  0.09837  -0.000169  3.967254  0.0
C  C135  1  0.97696598  0.97120146  0.93609668  1  -0.083451  -0.000319  -0.021345  0.09839  -0.000169  3.967372  0.0
C  C136  1  0.97695770  0.47119743  0.56390268  1  -0.083046  -0.000318  -0.021297  0.098417  -0.000169  3.967399  0.0
C  C137  1  0.02303936  0.47119610  0.93609723  1  -0.083298  -0.000319  -0.021293  0.09849  -0.00017  3.967204  0.0
C  C138  1  0.97695631  0.02880743  0.43609340  1  -0.083427  -0.000318  -0.021542  0.098175  -0.000169  3.967408  0.0
C  C139  1  0.02304353  0.02879936  0.06391081  1  -0.084613  -0.000318  -0.021573  0.098046  -0.000169  3.967686  0.0
C  C140  1  0.28907169  0.59739054  0.63629265  1  0.010304  -0.005544  -0.087054  -0.184099  -0.00375  3.957875  -0.004
C  C141  1  0.71092310  0.59738418  0.86371108  1  0.010605  -0.005544  -0.087074  -0.184135  -0.00375  3.957774  -0.004
C  C142  1  0.28904386  0.90261219  0.36370431  1  0.010631  -0.005545  -0.087111  -0.184171  -0.00375  3.957951  -0.004
C  C143  1  0.71089570  0.90261362  0.13628513  1  0.011478  -0.005544  -0.087005  -0.184023  -0.00375  3.957748  -0.004
C  C144  1  0.71092493  0.40261516  0.36370791  1  0.010454  -0.005545  -0.087045  -0.184226  -0.00375  3.958099  -0.004
C  C145  1  0.28903670  0.40260201  0.13629591  1  0.010278  -0.005544  -0.087091  -0.184237  -0.00375  3.958053  -0.004
C  C146  1  0.71094908  0.09738619  0.63629130  1  0.01044  -0.005544  -0.087193  -0.184443  -0.00375  3.958105  -0.004
C  C147  1  0.28908619  0.09738818  0.86370553  1  0.010853  -0.005545  -0.087032  -0.184139  -0.00375  3.957668  -0.004
C  C148  1  0.83250101  0.54726048  0.47915126  1  -0.073295  -0.000405  -0.0986  -0.14321  -0.000237  3.961204  0.0
C  C149  1  0.16750301  0.54725778  0.02085035  1  -0.073476  -0.000405  -0.098599  -0.143179  -0.000237  3.96101  0.0
C  C150  1  0.83248947  0.95274295  0.52084290  1  -0.073513  -0.000405  -0.098662  -0.14325  -0.000238  3.961042  0.0
C  C151  1  0.16750898  0.95273981  0.97916302  1  -0.073587  -0.000405  -0.098683  -0.143291  -0.000237  3.961134  0.0
C  C152  1  0.16750482  0.45273595  0.52083592  1  -0.073613  -0.000405  -0.098655  -0.143117  -0.000237  3.961022  0.0
C  C153  1  0.83250281  0.45273085  0.97916408  1  -0.07293  -0.000404  -0.09857  -0.143159  -0.000237  3.961141  0.0
C  C154  1  0.16748874  0.04727104  0.47915915  1  -0.072759  -0.000405  -0.098547  -0.143151  -0.000237  3.961375  0.0
C  C155  1  0.83250237  0.04726199  0.02084695  1  -0.073426  -0.000405  -0.098621  -0.143244  -0.000237  3.961335  0.0
C  C156  1  0.27331682  0.60119189  0.35737787  1  -0.030983  -0.011759  -0.164156  -0.283353  -0.00825  3.912732  -0.009
C  C157  1  0.72666098  0.60119088  0.14261852  1  -0.030772  -0.011754  -0.164272  -0.283535  -0.008248  3.912758  -0.009
C  C158  1  0.27332844  0.89880935  0.64261712  1  -0.030581  -0.011753  -0.164223  -0.283449  -0.008248  3.912819  -0.009
C  C159  1  0.72669807  0.89880891  0.85737917  1  -0.030837  -0.011755  -0.164306  -0.28344  -0.008248  3.912947  -0.009
C  C160  1  0.72668717  0.39880699  0.64262219  1  -0.030941  -0.011757  -0.164251  -0.283422  -0.008249  3.912945  -0.009
C  C161  1  0.27330066  0.39880702  0.85737907  1  -0.031229  -0.011759  -0.164288  -0.283486  -0.008249  3.912852  -0.009
C  C162  1  0.72668475  0.10119343  0.35737800  1  -0.03098  -0.011758  -0.164221  -0.283325  -0.008249  3.912778  -0.009
C  C163  1  0.27332801  0.10119387  0.14261694  1  -0.030796  -0.011753  -0.164183  -0.283284  -0.008246  3.912779  -0.009
C  C164  1  0.18965235  0.48129809  0.45826815  1  -0.028445  -0.000359  -0.100079  -0.13319  -0.000222  3.976568  0.0
C  C165  1  0.81035733  0.48129037  0.04173181  1  -0.0287  -0.000359  -0.100167  -0.133323  -0.000222  3.976584  0.0
C  C166  1  0.18963307  0.01870993  0.54172493  1  -0.028179  -0.000359  -0.100047  -0.133108  -0.000222  3.976612  0.0
C  C167  1  0.81035966  0.01870145  0.95827873  1  -0.029258  -0.000359  -0.099942  -0.132893  -0.000222  3.976428  0.0
C  C168  1  0.81035716  0.51869640  0.54172002  1  -0.029444  -0.00036  -0.100057  -0.133019  -0.000222  3.976511  0.0
C  C169  1  0.18964481  0.51869778  0.95828162  1  -0.029176  -0.00036  -0.099971  -0.132975  -0.000222  3.976321  0.0
C  C170  1  0.81034698  0.98130650  0.45827662  1  -0.029871  -0.000359  -0.099982  -0.133025  -0.000222  3.976471  0.0
C  C171  1  0.18965353  0.98129986  0.04172976  1  -0.028009  -0.00036  -0.100062  -0.133064  -0.000222  3.976626  0.0
C  C172  1  0.04454579  0.55805557  0.36748522  1  -0.013388  -0.000942  -0.161828  -0.181254  -0.000611  3.966756  0.0
C  C173  1  0.95545667  0.55804584  0.13251189  1  -0.013573  -0.000942  -0.161856  -0.181343  -0.000611  3.966509  0.0
C  C174  1  0.04453653  0.94195004  0.63250644  1  -0.013728  -0.000941  -0.161947  -0.181551  -0.00061  3.966664  0.0
C  C175  1  0.95547269  0.94194860  0.86749161  1  -0.013715  -0.000942  -0.161958  -0.181601  -0.000611  3.966746  0.0
C  C176  1  0.95546556  0.44194623  0.63250543  1  -0.013702  -0.000942  -0.161896  -0.181443  -0.000611  3.966831  0.0
C  C177  1  0.04452890  0.44194670  0.86749363  1  -0.01376  -0.000942  -0.161933  -0.18156  -0.000611  3.966809  0.0
C  C178  1  0.95546009  0.05805663  0.36748818  1  -0.013495  -0.000942  -0.161843  -0.181336  -0.000611  3.966835  0.0
C  C179  1  0.04452946  0.05805271  0.13250895  1  -0.013624  -0.000942  -0.161832  -0.181368  -0.000611  3.966652  0.0
S  S180  1  0.50000228  0.54807150  0.74999951  1  0.105622  0.000949  0.049938  0.010376  0.001384  2.652529  0.0
S  S181  1  0.49994556  0.95192974  0.24999237  1  0.105606  0.000949  0.049916  0.010328  0.001384  2.65223  0.0
S  S182  1  0.49994831  0.45193030  0.25000006  1  0.105589  0.000949  0.049894  0.010284  0.001384  2.652285  0.0
S  S183  1  0.50003633  0.04806962  0.75000225  1  0.105557  0.000949  0.049958  0.010479  0.001384  2.652525  0.0
N  N184  1  0.44044286  0.69094605  0.57838774  1  -1.193318  -0.083893  -0.342897  -0.214651  -0.056039  3.600596  -0.073
N  N185  1  0.55957829  0.69094352  0.92161206  1  -1.191111  -0.083888  -0.342845  -0.214757  -0.056044  3.600163  -0.073
N  N186  1  0.44042307  0.80906042  0.42160913  1  -1.191079  -0.083887  -0.342793  -0.214561  -0.056045  3.600148  -0.073
N  N187  1  0.55957298  0.80905200  0.07838424  1  -1.191175  -0.083878  -0.342796  -0.214685  -0.056035  3.600304  -0.073
N  N188  1  0.55958322  0.30906062  0.42161580  1  -1.191445  -0.083887  -0.342792  -0.214617  -0.056042  3.599999  -0.073
N  N189  1  0.44044595  0.30905487  0.07839147  1  -1.193271  -0.083896  -0.342806  -0.21464  -0.056042  3.6006  -0.073
N  N190  1  0.55957907  0.19093991  0.57838301  1  -1.191238  -0.083879  -0.342794  -0.214657  -0.056039  3.59993  -0.073
N  N191  1  0.44044205  0.19094297  0.92161285  1  -1.193181  -0.083896  -0.342844  -0.21469  -0.056042  3.600345  -0.073
O  O192  1  0.43600802  0.67108315  0.44129041  1  -1.121406  -0.105986  -0.323006  -0.54714  -0.067746  2.327899  -0.097
O  O193  1  0.56401393  0.67107385  0.05870613  1  -1.121498  -0.106007  -0.322911  -0.547175  -0.06776  2.327768  -0.097
O  O194  1  0.43599843  0.82892526  0.55870745  1  -1.121396  -0.105981  -0.322929  -0.547107  -0.067746  2.327788  -0.097
O  O195  1  0.56401523  0.82891680  0.94128571  1  -1.122226  -0.105985  -0.32302  -0.547063  -0.067745  2.327652  -0.097
O  O196  1  0.56400517  0.32891913  0.55871164  1  -1.121623  -0.105989  -0.322957  -0.546989  -0.067749  2.327626  -0.097
O  O197  1  0.43599558  0.32891722  0.94128848  1  -1.122042  -0.105969  -0.322946  -0.547027  -0.067735  2.3278  -0.097
O  O198  1  0.56400740  0.17108092  0.44129013  1  -1.121818  -0.105993  -0.322985  -0.547043  -0.067751  2.327788  -0.097
O  O199  1  0.43599059  0.17107622  0.05870742  1  -1.121378  -0.105987  -0.322927  -0.547052  -0.067748  2.327806  -0.097
O  O200  1  0.86085312  0.75001345  0.49999360  1  -1.312587  0.001523  -0.617926  -0.831624  0.001325  2.175835  0.0
O  O201  1  0.13915851  0.74999650  0.99999748  1  -1.31269  0.001521  -0.617928  -0.831589  0.001323  2.17592  0.0
O  O202  1  0.13916376  0.24999908  0.49999953  1  -1.313219  0.001524  -0.617937  -0.831555  0.001325  2.176012  0.0
O  O203  1  0.86085836  0.24999213  0.00000358  1  -1.312238  0.001522  -0.61788  -0.831483  0.001324  2.175981  0.0
O  O204  1  0.07355987  0.69898357  0.39345237  1  -1.193778  -0.001652  -0.325669  -0.56244  -0.00028  2.193693  -0.002
O  O205  1  0.92640756  0.69897632  0.10654750  1  -1.1935  -0.001649  -0.325857  -0.56269  -0.000278  2.193977  -0.002
O  O206  1  0.07360799  0.80101527  0.60655016  1  -1.193593  -0.001651  -0.325812  -0.562662  -0.000279  2.193612  -0.002
O  O207  1  0.92645466  0.80102097  0.89345156  1  -1.193859  -0.00165  -0.325625  -0.562307  -0.000278  2.193971  -0.002
O  O208  1  0.92643491  0.30101481  0.60655066  1  -1.19383  -0.001651  -0.325646  -0.562385  -0.000279  2.193753  -0.002
O  O209  1  0.07354303  0.30101865  0.89345653  1  -1.193929  -0.001652  -0.325691  -0.562437  -0.00028  2.193828  -0.002
O  O210  1  0.92642729  0.19898799  0.39344891  1  -1.193816  -0.00165  -0.325716  -0.562404  -0.000279  2.193777  -0.002
O  O211  1  0.07361008  0.19899058  0.10655742  1  -1.193627  -0.00165  -0.325729  -0.562529  -0.000278  2.193746  -0.002
