# generated using pymatgen
data_AlH6C21Br6NO6
_symmetry_space_group_name_H-M   'P 1'
_cell_length_a   4.16743647
_cell_length_b   13.55033746
_cell_length_c   13.54986837
_cell_angle_alpha   119.99816581
_cell_angle_beta   90.00153489
_cell_angle_gamma   89.99881264
_symmetry_Int_Tables_number   1
_chemical_formula_structural   AlH6C21Br6NO6
_chemical_formula_sum   'Al1 H6 C21 Br6 N1 O6'
_cell_volume   662.66316999
_cell_formula_units_Z   1
loop_
 _symmetry_equiv_pos_site_id
 _symmetry_equiv_pos_as_xyz
  1  'x, y, z'
loop_
 _atom_site_type_symbol
 _atom_site_label
 _atom_site_symmetry_multiplicity
 _atom_site_fract_x
 _atom_site_fract_y
 _atom_site_fract_z
 _atom_site_occupancy
 _atom_site_pbe_bader_charge
 _atom_site_pbe_bader_spin_density
 _atom_site_pbe_cm5_charge
 _atom_site_pbe_ddec_charge
 _atom_site_pbe_ddec_spin_density
 _atom_site_pbe_ddec_sum_bond_order
 _atom_site_pbe_magmom
Al  Al0  1  0.00000493  0.49999355  0.99999929  1  2.515634  0  0.433223  1.655684  0  2.482412  0
H  H1  1  0.23620073  0.90153107  0.87284600  1  0.098952  0  0.104248  0.127106  0  1.027005  0
H  H2  1  0.76379818  0.62716873  0.59845675  1  0.098455  0  0.104242  0.127052  0  1.027111  0
H  H3  1  0.76379612  0.97129023  0.87283982  1  0.081526  0  0.104271  0.127195  0  1.027029  0
H  H4  1  0.23621292  0.97130318  0.59845300  1  0.104766  0  0.104263  0.127172  0  1.026946  0
H  H5  1  0.76377397  0.90153061  0.52868905  1  0.104684  0  0.10425  0.127149  0  1.026889  0
H  H6  1  0.23621423  0.62716012  0.52870838  1  0.08138  0  0.104251  0.127115  0  1.026983  0
C  C7  1  0.50001941  0.32578794  0.91289579  1  1.659212  0  0.270795  0.6831  0  4.07225  0
C  C8  1  0.50000749  0.58709594  0.17419936  1  1.659639  0  0.270698  0.68289  0  4.072756  0
C  C9  1  0.49999626  0.58708677  0.91289169  1  1.649609  0  0.270709  0.683063  0  4.072568  0
C  C10  1  0.36406917  0.76026058  0.89419155  1  -0.062072  0  -0.010582  0.11661  0  3.966916  0
C  C11  1  0.35246276  0.81877059  0.83424437  1  0.040509  0  -0.108305  -0.245852  0  3.987092  0
C  C12  1  0.49999880  0.77284920  0.72715013  1  0.302229  0  0.094835  0.217098  0  4.005395  0
C  C13  1  0.64754434  0.66575665  0.68122097  1  0.040537  0  -0.108236  -0.245782  0  3.987506  0
C  C14  1  0.63593983  0.60580298  0.73972182  1  -0.06169  0  -0.01055  0.11667  0  3.967161  0
C  C15  1  0.49999132  0.65143858  0.84854403  1  0.032086  0  -0.026819  -0.147779  0  3.940288  0
C  C16  1  0.64753435  0.01545435  0.83423991  1  0.103666  0  -0.108341  -0.245985  0  3.987428  0
C  C17  1  0.63595272  0.13390986  0.89418721  1  -0.070489  0  -0.010427  0.116713  0  3.967114  0
C  C18  1  0.50000414  0.19709390  0.84854734  1  0.011987  0  -0.026846  -0.147766  0  3.940307  0
C  C19  1  0.36404267  0.13391672  0.73972858  1  0.036529  0  -0.010486  0.116715  0  3.967184  0
C  C20  1  0.35245185  0.01546318  0.68121991  1  -0.038589  0  -0.108325  -0.245969  0  3.98743  0
C  C21  1  0.49998793  0.95429712  0.72714860  1  0.259781  0  0.094925  0.217291  0  4.005366  0
C  C22  1  0.64752111  0.81877171  0.48452655  1  -0.038292  0  -0.108276  -0.24587  0  3.987188  0
C  C23  1  0.63594008  0.76026592  0.36607342  1  0.036801  0  -0.010599  0.116506  0  3.967047  0
C  C24  1  0.50000851  0.65144367  0.30289587  1  0.012168  0  -0.026718  -0.147509  0  3.940048  0
C  C25  1  0.36406349  0.60580819  0.36608211  1  -0.070346  0  -0.01054  0.116659  0  3.96722  0
C  C26  1  0.35244555  0.66575856  0.48453695  1  0.103719  0  -0.108274  -0.245868  0  3.987476  0
C  C27  1  0.49997895  0.77284935  0.54569849  1  0.259953  0  0.094838  0.217144  0  4.005419  0
Br  Br28  1  0.80849616  0.45611456  0.66568657  1  -0.032689  0  0.046347  -0.0284  0  1.563851  0
Br  Br29  1  0.19157376  0.83430321  0.04389491  1  -0.032416  0  0.046327  -0.028404  0  1.563834  0
Br  Br30  1  0.80849911  0.20956080  0.04388569  1  -0.031632  0  0.046314  -0.028409  0  1.563814  0
Br  Br31  1  0.19153040  0.20957027  0.66567731  1  -0.029878  0  0.046331  -0.028406  0  1.563804  0
Br  Br32  1  0.80845046  0.83431636  0.29042159  1  -0.029889  0  0.046341  -0.028378  0  1.563851  0
Br  Br33  1  0.19156110  0.45611164  0.29043067  1  -0.030867  0  0.046313  -0.028436  0  1.563904  0
N  N34  1  0.49998456  0.83333157  0.66666656  1  -1.245016  0  -0.240046  -0.13359  0  3.592531  0
O  O35  1  0.73688037  0.60357145  0.97816302  1  -1.251835  0  -0.233426  -0.599457  0  2.422648  0
O  O36  1  0.73691090  0.37457854  0.89641573  1  -1.249865  0  -0.233423  -0.599437  0  2.422473  0
O  O37  1  0.73693020  0.52181840  0.12541612  1  -1.259877  0  -0.233257  -0.599268  0  2.422012  0
O  O38  1  0.26307751  0.52180662  0.89639768  1  -1.248182  0  -0.233202  -0.599296  0  2.421901  0
O  O39  1  0.26312300  0.60357852  0.12540731  1  -1.250416  0  -0.23342  -0.599479  0  2.42275  0
O  O40  1  0.26310517  0.37458561  0.97818190  1  -1.259781  0  -0.23342  -0.599596  0  2.421923  0
