# generated using pymatgen
data_ZnH21C31N5O7
_symmetry_space_group_name_H-M   'P 1'
_cell_length_a   10.28737415
_cell_length_b   10.65227399
_cell_length_c   13.64990000
_cell_angle_alpha   90.00000000
_cell_angle_beta   109.20765970
_cell_angle_gamma   90.00000000
_symmetry_Int_Tables_number   1
_chemical_formula_structural   ZnH21C31N5O7
_chemical_formula_sum   'Zn2 H42 C62 N10 O14'
_cell_volume   1412.54152038
_cell_formula_units_Z   2
loop_
 _symmetry_equiv_pos_site_id
 _symmetry_equiv_pos_as_xyz
  1  'x, y, z'
loop_
 _atom_site_type_symbol
 _atom_site_label
 _atom_site_symmetry_multiplicity
 _atom_site_fract_x
 _atom_site_fract_y
 _atom_site_fract_z
 _atom_site_occupancy
 _atom_site_hle17_bader_spin_density
 _atom_site_hle17_ddec_charge
 _atom_site_hle17_ddec_spin_density
 _atom_site_hle17_ddec_sum_bond_order
 _atom_site_hle17_magmom
 _atom_site_hse06_10hf_bader_spin_density
 _atom_site_hse06_10hf_ddec_charge
 _atom_site_hse06_10hf_ddec_spin_density
 _atom_site_hse06_10hf_ddec_sum_bond_order
 _atom_site_hse06_10hf_magmom
 _atom_site_hse06_bader_spin_density
 _atom_site_hse06_ddec_charge
 _atom_site_hse06_ddec_spin_density
 _atom_site_hse06_ddec_sum_bond_order
 _atom_site_hse06_magmom
 _atom_site_pbe_bader_charge
 _atom_site_pbe_bader_spin_density
 _atom_site_pbe_cm5_charge
 _atom_site_pbe_ddec_charge
 _atom_site_pbe_ddec_spin_density
 _atom_site_pbe_ddec_sum_bond_order
 _atom_site_pbe_magmom
Zn  Zn0  1  0.54060647  0.62023001  0.66849266  1  0  0.978366  0  1.850948  0  0  0.788335  0  2.310772  0  0  0.838176  0  2.257438  0  1.261134  0  0.690939  0.753735  0  2.347276  0
Zn  Zn1  1  0.04059724  0.37976117  0.66849942  1  0  0.978302  0  1.851066  0  0  0.788234  0  2.310928  0  0  0.838082  0  2.257606  0  1.261165  0  0.690903  0.753634  0  2.347429  0
H  H2  1  0.03812161  0.71865782  0.65036239  1  0  0.315529  0  0.921165  0  0  0.294551  0  0.991075  0  0  0.30191  0  0.986148  0  0.529785  0  0.30843  0.289191  0  0.994859  0
H  H3  1  0.53812260  0.28132021  0.65033527  1  0  0.315476  0  0.92127  0  0  0.294464  0  0.99124  0  0  0.301848  0  0.986281  0  0.529779  0  0.308418  0.289107  0  0.995019  0
H  H4  1  0.43689766  0.26038008  0.40813400  1  0  0.094437  0  0.948001  0  0  0.104056  0  1.009146  0  0  0.107599  0  1.006643  0  0.053867  0  0.099138  0.101534  0  1.010902  0
H  H5  1  0.93689454  0.73962236  0.40812491  1  0  0.094486  0  0.948009  0  0  0.104065  0  1.009185  0  0  0.107605  0  1.006685  0  0.054039  0  0.099138  0.101545  0  1.010935  0
H  H6  1  0.69314127  0.04458672  0.34605953  1  0  0.308672  0  0.903616  0  0  0.291999  0  0.968296  0  0  0.298955  0  0.962709  0  0.473375  0  0.314828  0.286496  0  0.973095  0
H  H7  1  0.19311763  0.95541666  0.34605172  1  0  0.308881  0  0.903595  0  0  0.292066  0  0.968376  0  0  0.299064  0  0.962752  0  0.473384  0  0.314881  0.28653  0  0.973215  0
H  H8  1  0.25708358  0.15729036  0.25875079  1  0  0.107812  0  0.979146  0  0  0.114067  0  1.048364  0  0  0.117689  0  1.046963  0  0.096513  0  0.09726  0.111467  0  1.049467  0
H  H9  1  0.75707016  0.84270363  0.25874428  1  0  0.107852  0  0.979167  0  0  0.114045  0  1.048451  0  0  0.117651  0  1.047094  0  0.096502  0  0.097237  0.111455  0  1.049525  0
H  H10  1  0.96860730  0.44756453  0.26514665  1  0  0.118474  0  0.936228  0  0  0.129496  0  0.992003  0  0  0.132702  0  0.991516  0  0.097322  0  0.108512  0.127181  0  0.992699  0
H  H11  1  0.46859498  0.55242665  0.26514825  1  0  0.118535  0  0.935979  0  0  0.129543  0  0.991771  0  0  0.13275  0  0.991283  0  0.097226  0  0.108522  0.12723  0  0.992465  0
H  H12  1  0.14749708  0.54711417  0.41643601  1  0  0.10433  0  0.951617  0  0  0.1117  0  1.017016  0  0  0.115058  0  1.014488  0  0.129536  0  0.103276  0.109239  0  1.018919  0
H  H13  1  0.64749499  0.45289297  0.41644403  1  0  0.104274  0  0.951642  0  0  0.11164  0  1.017053  0  0  0.114996  0  1.014528  0  0.129445  0  0.103231  0.109184  0  1.018957  0
H  H14  1  0.74005574  0.20228169  0.10418235  1  0  0.104527  0  0.959965  0  0  0.115213  0  1.020136  0  0  0.118288  0  1.019303  0  0.071968  0  0.100477  0.11323  0  1.020557  0
H  H15  1  0.24005166  0.79771324  0.10417647  1  0  0.104564  0  0.960034  0  0  0.115261  0  1.020202  0  0  0.118335  0  1.019373  0  0.072015  0  0.100513  0.113277  0  1.020623  0
H  H16  1  0.58416828  0.30809102  0.94399166  1  0  0.096885  0  0.948323  0  0  0.105935  0  1.010911  0  0  0.109257  0  1.008305  0  0.044526  0  0.102757  0.103464  0  1.012929  0
H  H17  1  0.08417552  0.69188607  0.94399884  1  0  0.096895  0  0.948289  0  0  0.105894  0  1.010929  0  0  0.109215  0  1.008323  0  0.043557  0  0.102754  0.103422  0  1.012948  0
H  H18  1  0.92925766  0.50838441  0.91050319  1  0  0.110961  0  0.966221  0  0  0.117863  0  1.032611  0  0  0.121153  0  1.030225  0  0.136707  0  0.104314  0.115285  0  1.034696  0
H  H19  1  0.42925975  0.49161897  0.91051275  1  0  0.110973  0  0.966138  0  0  0.117867  0  1.032528  0  0  0.121154  0  1.030146  0  0.136603  0  0.104321  0.115289  0  1.034613  0
H  H20  1  0.08620132  0.40503371  0.07114455  1  0  0.114379  0  0.940395  0  0  0.125604  0  0.99775  0  0  0.128777  0  0.997077  0  0.085074  0  0.106826  0.123432  0  0.998268  0
H  H21  1  0.58620746  0.59497812  0.07114655  1  0  0.114458  0  0.940265  0  0  0.125618  0  0.997689  0  0  0.128792  0  0.997014  0  0.08485  0  0.106839  0.123446  0  0.998207  0
H  H22  1  0.25096090  0.66628403  0.63507354  1  0  0.121226  0  0.942394  0  0  0.126816  0  1.006509  0  0  0.130453  0  1.003067  0  0.176044  0  0.126758  0.124115  0  1.009052  0
H  H23  1  0.75096807  0.33370340  0.63504869  1  0  0.121045  0  0.942586  0  0  0.126777  0  1.006545  0  0  0.130412  0  1.003104  0  0.175875  0  0.126785  0.124074  0  1.009092  0
H  H24  1  0.60764816  0.80382555  0.85010944  1  0  0.072256  0  0.935673  0  0  0.082312  0  0.999406  0  0  0.084514  0  0.997095  0  0.105555  0  0.116615  0.08074  0  1.000977  0
H  H25  1  0.10764511  0.19620412  0.85011260  1  0  0.072244  0  0.935527  0  0  0.082261  0  0.99929  0  0  0.084465  0  0.996977  0  0.105545  0  0.116566  0.080683  0  1.000861  0
H  H26  1  0.47378917  0.95487874  0.92242117  1  0  0.097393  0  0.941579  0  0  0.110077  0  0.995704  0  0  0.112828  0  0.995748  0  0.078687  0  0.106224  0.108069  0  0.995916  0
H  H27  1  0.97376752  0.04513966  0.92242360  1  0  0.097391  0  0.941534  0  0  0.110092  0  0.995642  0  0  0.112843  0  0.995684  0  0.078861  0  0.106246  0.108082  0  0.995858  0
H  H28  1  0.83362630  0.71184143  0.70809132  1  0  0.118706  0  0.924403  0  0  0.124836  0  0.9885  0  0  0.128755  0  0.984249  0  0.183929  0  0.131159  0.121875  0  0.991737  0
H  H29  1  0.33362531  0.28815725  0.70808181  1  0  0.118755  0  0.924358  0  0  0.124897  0  0.988446  0  0  0.128818  0  0.984188  0  0.184056  0  0.131198  0.121931  0  0.991696  0
H  H30  1  0.46008726  0.77616291  0.47740591  1  0  0.093189  0  0.929164  0  0  0.098268  0  0.996455  0  0  0.102092  0  0.991779  0  0.171539  0  0.123722  0.095471  0  0.999789  0
H  H31  1  0.96007693  0.22383859  0.47740456  1  0  0.093142  0  0.929199  0  0  0.098229  0  0.996462  0  0  0.102052  0  0.991789  0  0.17173  0  0.123714  0.09543  0  0.999806  0
H  H32  1  0.80550912  0.01827215  0.49594604  1  0  0.107145  0  0.952183  0  0  0.115656  0  1.017783  0  0  0.11947  0  1.013708  0  0.13256  0  0.115352  0.11274  0  1.020787  0
H  H33  1  0.30549783  0.98171996  0.49594789  1  0  0.107197  0  0.952005  0  0  0.115668  0  1.017655  0  0  0.119497  0  1.013562  0  0.132269  0  0.115356  0.11273  0  1.020685  0
H  H34  1  0.37173868  0.96294557  0.15952421  1  0  0.115015  0  0.970407  0  0  0.120133  0  1.038778  0  0  0.123848  0  1.035423  0  0.11858  0  0.109311  0.117364  0  1.041279  0
H  H35  1  0.87170879  0.03705688  0.15952094  1  0  0.114898  0  0.970524  0  0  0.120141  0  1.038803  0  0  0.123865  0  1.035429  0  0.118457  0  0.109305  0.117369  0  1.041307  0
H  H36  1  0.25056459  0.09754631  0.00524539  1  0  0.090941  0  0.957779  0  0  0.104243  0  1.013692  0  0  0.106926  0  1.013255  0  0.034285  0  0.102034  0.102432  0  1.013978  0
H  H37  1  0.75053676  0.90244769  0.00524337  1  0  0.090841  0  0.957582  0  0  0.104129  0  1.013544  0  0  0.106815  0  1.013101  0  0.034077  0  0.101963  0.102317  0  1.013834  0
H  H38  1  0.33657959  0.31701588  0.99749116  1  0  0.076002  0  0.950951  0  0  0.081366  0  1.019441  0  0  0.084009  0  1.017629  0  0.103701  0  0.10947  0.079528  0  1.0206  0
H  H39  1  0.83656926  0.68299032  0.99749567  1  0  0.076008  0  0.951004  0  0  0.081357  0  1.019517  0  0  0.084  0  1.017706  0  0.103702  0  0.109452  0.07952  0  1.020676  0
H  H40  1  0.64748572  0.27269389  0.27959750  1  0  0.088741  0  0.919735  0  0  0.098145  0  0.979253  0  0  0.10123  0  0.976921  0  0.072871  0  0.115949  0.095884  0  0.981112  0
H  H41  1  0.14747855  0.72730668  0.27959525  1  0  0.088732  0  0.919681  0  0  0.098183  0  0.979148  0  0  0.101274  0  0.976805  0  0.072782  0  0.115988  0.095918  0  0.981012  0
H  H42  1  0.21660781  0.96236353  0.84113534  1  0  0.10562  0  0.943553  0  0  0.116895  0  1.003391  0  0  0.120002  0  1.000707  0  0.082888  0  0.110124  0.114566  0  1.005506  0
H  H43  1  0.71659748  0.03764079  0.84111640  1  0  0.105594  0  0.9435  0  0  0.116877  0  1.003368  0  0  0.119979  0  1.000683  0  0.082399  0  0.110119  0.114549  0  1.005483  0
C  C44  1  0.41014851  0.46683366  0.51145990  1  0  0.641059  0  3.921055  0  0  0.592723  0  4.210636  0  0  0.627014  0  4.203642  0  1.553347  0  0.201713  0.56926  0  4.214828  0
C  C45  1  0.91015156  0.53317442  0.51146041  1  0  0.641005  0  3.921177  0  0  0.592725  0  4.210772  0  0  0.627014  0  4.203782  0  1.553262  0  0.20172  0.569265  0  4.214961  0
C  C46  1  0.30340101  0.41036778  0.42028825  1  0  -0.097044  0  3.791869  0  0  -0.075153  0  4.025064  0  0  -0.085705  0  4.05061  0  -0.027702  0  -0.032353  -0.068183  0  4.007663  0
C  C47  1  0.80339995  0.58962997  0.42028186  1  0  -0.096983  0  3.791605  0  0  -0.075247  0  4.025003  0  0  -0.085785  0  4.050524  0  -0.027694  0  -0.032355  -0.06828  0  4.007608  0
C  C48  1  0.33410499  0.30048420  0.37595142  1  0  -0.051244  0  3.768877  0  0  -0.07357  0  4.018657  0  0  -0.0722  0  4.040278  0  0.006696  0  -0.088797  -0.073938  0  4.003425  0
C  C49  1  0.83410599  0.69951824  0.37594702  1  0  -0.051146  0  3.76902  0  0  -0.073386  0  4.018796  0  0  -0.072018  0  4.040412  0  0.006187  0  -0.088723  -0.073755  0  4.003571  0
C  C50  1  0.23494599  0.24328045  0.29319177  1  0  -0.191917  0  3.775454  0  0  -0.217491  0  4.037293  0  0  -0.223904  0  4.05822  0  0.017404  0  -0.111117  -0.213022  0  4.022904  0
C  C51  1  0.73495213  0.75671918  0.29319450  1  0  -0.19217  0  3.775719  0  0  -0.217669  0  4.037528  0  0  -0.224085  0  4.058449  0  0.017691  0  -0.111194  -0.213197  0  4.02314  0
C  C52  1  0.10404129  0.29636677  0.25493849  1  0  0.278436  0  3.795183  0  0  0.269547  0  4.056331  0  0  0.280974  0  4.071249  0  0.32061  0  0.082977  0.261709  0  4.04619  0
C  C53  1  0.60404331  0.70363192  0.25494533  1  0  0.278574  0  3.794734  0  0  0.269634  0  4.055922  0  0  0.281061  0  4.070836  0  0.320469  0  0.083036  0.261799  0  4.045785  0
C  C54  1  0.07133725  0.40721352  0.29673030  1  0  -0.182639  0  3.740878  0  0  -0.202515  0  3.992939  0  0  -0.208956  0  4.012683  0  0.022085  0  -0.099047  -0.198498  0  3.980113  0
C  C55  1  0.57133001  0.59279174  0.29673411  1  0  -0.182717  0  3.74063  0  0  -0.202533  0  3.992691  0  0  -0.208974  0  4.012437  0  0.02234  0  -0.098971  -0.198517  0  3.979867  0
C  C56  1  0.17152356  0.46348789  0.37968533  1  0  -0.039981  0  3.728368  0  0  -0.063398  0  3.976814  0  0  -0.061108  0  3.996779  0  -0.088455  0  -0.0822  -0.064598  0  3.963317  0
C  C57  1  0.67152043  0.53651737  0.37969016  1  0  -0.039945  0  3.728247  0  0  -0.063316  0  3.976715  0  0  -0.061031  0  3.996684  0  -0.08841  0  -0.082201  -0.064522  0  3.963225  0
C  C58  1  0.92094757  0.29648224  0.09441624  1  0  0.273057  0  3.80026  0  0  0.263108  0  4.062495  0  0  0.274597  0  4.077721  0  0.395901  0  0.081434  0.255434  0  4.051849  0
C  C59  1  0.42095172  0.70352115  0.09442119  1  0  0.272961  0  3.800584  0  0  0.263035  0  4.062788  0  0  0.274525  0  4.07801  0  0.396101  0  0.081314  0.255364  0  4.052141  0
C  C60  1  0.78062312  0.26800381  0.06029772  1  0  -0.191875  0  3.768031  0  0  -0.213126  0  4.02318  0  0  -0.219447  0  4.042808  0  -0.003005  0  -0.107917  -0.208827  0  4.009357  0
C  C61  1  0.28062110  0.73198455  0.06030187  1  0  -0.191955  0  3.76817  0  0  -0.21325  0  4.023314  0  0  -0.219573  0  4.04294  0  -0.002414  0  -0.107988  -0.208948  0  4.009488  0
C  C62  1  0.69428490  0.32757043  0.97227954  1  0  -0.04445  0  3.761009  0  0  -0.06747  0  4.009976  0  0  -0.064828  0  4.029583  0  -0.01558  0  -0.084614  -0.068773  0  3.99638  0
C  C63  1  0.19428802  0.67241699  0.97228643  1  0  -0.044402  0  3.761063  0  0  -0.067353  0  4.009985  0  0  -0.064709  0  4.029594  0  -0.015211  0  -0.084595  -0.068655  0  3.996388  0
C  C64  1  0.74781614  0.41528504  0.91930516  1  0  -0.093177  0  3.790538  0  0  -0.070027  0  4.021558  0  0  -0.080897  0  4.046955  0  -0.042847  0  -0.029918  -0.063055  0  4.004465  0
C  C65  1  0.24781412  0.58470614  0.91930492  1  0  -0.093259  0  3.790651  0  0  -0.070132  0  4.021664  0  0  -0.081001  0  4.047055  0  -0.042837  0  -0.029932  -0.06316  0  4.00457  0
C  C66  1  0.65459042  0.47861518  0.82538433  1  0  0.616297  0  3.940687  0  0  0.569898  0  4.228139  0  0  0.60399  0  4.222223  0  1.524556  0  0.189089  0.54666  0  4.23158  0
C  C67  1  0.15458428  0.52137788  0.82538380  1  0  0.616227  0  3.940549  0  0  0.569842  0  4.227984  0  0  0.603934  0  4.222074  0  1.524574  0  0.18908  0.546605  0  4.231424  0
C  C68  1  0.88910923  0.44258813  0.95467997  1  0  -0.037379  0  3.722053  0  0  -0.061561  0  3.972087  0  0  -0.059071  0  3.992022  0  0.042769  0  -0.080338  -0.062942  0  3.95856  0
C  C69  1  0.38911029  0.55741713  0.95468416  1  0  -0.037297  0  3.722026  0  0  -0.061464  0  3.972042  0  0  -0.058968  0  3.991973  0  0.04264  0  -0.080303  -0.062845  0  3.958517  0
C  C70  1  0.97640373  0.38368709  0.04258654  1  0  -0.185111  0  3.756206  0  0  -0.207768  0  4.014842  0  0  -0.214218  0  4.034345  0  -0.06999  0  -0.100605  -0.203605  0  4.001557  0
C  C71  1  0.47640788  0.61632099  0.04259149  1  0  -0.185214  0  3.756254  0  0  -0.207817  0  4.014866  0  0  -0.214267  0  4.034367  0  -0.069639  0  -0.100579  -0.20365  0  4.001579  0
C  C72  1  0.29678423  0.73251495  0.69793026  1  0  0.046429  0  3.608729  0  0  0.009439  0  3.855095  0  0  0.013932  0  3.871383  0  0.476998  0  0.053945  0.006526  0  3.844319  0
C  C73  1  0.79678420  0.26748467  0.69791388  1  0  0.046552  0  3.609045  0  0  0.009496  0  3.855323  0  0  0.013991  0  3.871613  0  0.477197  0  0.053922  0.006582  0  3.844545  0
C  C74  1  0.49573529  0.80938493  0.81919375  1  0  0.134842  0  3.708896  0  0  0.095559  0  3.971544  0  0  0.103066  0  3.989185  0  0.46976  0  0.047602  0.090455  0  3.959918  0
C  C75  1  0.99573320  0.19061564  0.81918858  1  0  0.13491  0  3.708798  0  0  0.09569  0  3.971378  0  0  0.103194  0  3.989019  0  0.469983  0  0.047745  0.090598  0  3.959738  0
C  C76  1  0.42081173  0.89316985  0.85789536  1  0  -0.108354  0  3.766626  0  0  -0.121558  0  4.024123  0  0  -0.128236  0  4.046455  0  -0.030992  0  -0.083187  -0.117411  0  4.009592  0
C  C77  1  0.92080655  0.10683540  0.85788723  1  0  -0.108306  0  3.766651  0  0  -0.121488  0  4.024163  0  0  -0.128162  0  4.04649  0  -0.031041  0  -0.083156  -0.117341  0  4.00963  0
C  C78  1  0.21455216  0.81420925  0.73222192  1  0  0.219524  0  3.779735  0  0  0.217083  0  4.027484  0  0  0.220358  0  4.050102  0  0.408476  0  0.107991  0.214148  0  4.01293  0
C  C79  1  0.71455109  0.18580258  0.73221407  1  0  0.219354  0  3.779955  0  0  0.216963  0  4.027712  0  0  0.220236  0  4.050337  0  0.4091  0  0.107989  0.214029  0  4.013155  0
C  C80  1  0.98483631  0.90421069  0.65626282  1  0  0.540596  0  3.853329  0  0  0.497214  0  4.134232  0  0  0.526487  0  4.134668  0  1.441068  0  0.240906  0.477473  0  4.133238  0
C  C81  1  0.48483223  0.09577767  0.65625694  1  0  0.540612  0  3.853942  0  0  0.497318  0  4.134655  0  0  0.52659  0  4.135097  0  1.441089  0  0.24102  0.477581  0  4.133657  0
C  C82  1  0.83712512  0.86876098  0.60566212  1  0  -0.083559  0  3.73817  0  0  -0.058964  0  3.979304  0  0  -0.07038  0  4.001311  0  -0.008659  0  -0.000473  -0.052389  0  3.965094  0
C  C83  1  0.33712207  0.13123677  0.60565869  1  0  -0.083494  0  3.738129  0  0  -0.058952  0  3.979263  0  0  -0.070368  0  4.001271  0  -0.008764  0  -0.000424  -0.052388  0  3.965062  0
C  C84  1  0.77625655  0.76969575  0.64176070  1  0  0.13471  0  3.593062  0  0  0.090164  0  3.841145  0  0  0.101018  0  3.854853  0  0.458467  0  0.070074  0.083249  0  3.83167  0
C  C85  1  0.27625143  0.23030388  0.64175456  1  0  0.13474  0  3.59299  0  0  0.090144  0  3.841088  0  0  0.101014  0  3.8548  0  0.458469  0  0.07  0.083236  0  3.831601  0
C  C86  1  0.56672153  0.80569745  0.51301062  1  0  0.162708  0  3.630462  0  0  0.114173  0  3.886853  0  0  0.125867  0  3.900802  0  0.525629  0  0.073529  0.106805  0  3.877378  0
C  C87  1  0.06671127  0.19430499  0.51300467  1  0  0.16276  0  3.630709  0  0  0.11418  0  3.887016  0  0  0.125888  0  3.900973  0  0.525188  0  0.073518  0.106808  0  3.877536  0
C  C88  1  0.62006748  0.90538227  0.47137500  1  0  -0.105768  0  3.746599  0  0  -0.079318  0  3.985428  0  0  -0.092272  0  4.008934  0  -0.058313  0  -0.00496  -0.071468  0  3.969868  0
C  C89  1  0.12005517  0.09461454  0.47137221  1  0  -0.106125  0  3.746805  0  0  -0.079508  0  3.985451  0  0  -0.092455  0  4.008947  0  -0.058266  0  -0.005009  -0.071657  0  3.969885  0
C  C90  1  0.75693017  0.93938909  0.52129098  1  0  -0.011013  0  3.646921  0  0  -0.054708  0  3.895957  0  0  -0.04618  0  3.909729  0  -0.008085  0  -0.047032  -0.059407  0  3.886402  0
C  C91  1  0.25691785  0.06060866  0.52129038  1  0  -0.010915  0  3.646885  0  0  -0.054623  0  3.895876  0  0  -0.046107  0  3.909641  0  -0.007522  0  -0.047042  -0.059303  0  3.886329  0
C  C92  1  0.52557975  0.96877906  0.37692221  1  0  0.563449  0  3.814439  0  0  0.515588  0  4.100555  0  0  0.545764  0  4.099954  0  1.426602  0  0.250313  0.49517  0  4.100446  0
C  C93  1  0.02556023  0.03122901  0.37691616  1  0  0.56362  0  3.814526  0  0  0.515639  0  4.100729  0  0  0.545811  0  4.100124  0  1.425969  0  0.250319  0.49522  0  4.100621  0
C  C94  1  0.51677351  0.10883216  0.23166441  1  0  0.195099  0  3.781782  0  0  0.194847  0  4.027373  0  0  0.197783  0  4.05034  0  0.318492  0  0.095187  0.192245  0  4.01214  0
C  C95  1  0.01676325  0.89117404  0.23165186  1  0  0.195026  0  3.782069  0  0  0.194532  0  4.027984  0  0  0.197464  0  4.050959  0  0.318589  0  0.095037  0.191958  0  4.012711  0
C  C96  1  0.40462080  0.05844292  0.15302809  1  0  -0.099905  0  3.712218  0  0  -0.12698  0  3.963157  0  0  -0.125702  0  3.979678  0  -0.049346  0  -0.075431  -0.127537  0  3.952236  0
C  C97  1  0.90460018  0.94155764  0.15302785  1  0  -0.099706  0  3.712203  0  0  -0.126841  0  3.963151  0  0  -0.125563  0  3.979672  0  -0.049582  0  -0.075308  -0.12741  0  3.95223  0
C  C98  1  0.33894714  0.13357148  0.06763987  1  0  -0.123128  0  3.784337  0  0  -0.131829  0  4.028539  0  0  -0.138175  0  4.051591  0  -0.058042  0  -0.090663  -0.127787  0  4.012843  0
C  C99  1  0.83891931  0.86642439  0.06764517  1  0  -0.122845  0  3.784168  0  0  -0.131511  0  4.028343  0  0  -0.137858  0  4.051405  0  -0.057401  0  -0.090546  -0.127473  0  4.012649  0
C  C100  1  0.38692700  0.25547221  0.06321028  1  0  0.096146  0  3.749377  0  0  0.072822  0  4.005634  0  0  0.076927  0  4.024822  0  0.51874  0  0.038717  0.070318  0  3.992348  0
C  C101  1  0.88690123  0.74452741  0.06321535  1  0  0.09588  0  3.749804  0  0  0.072558  0  4.006064  0  0  0.076657  0  4.025254  0  0.518144  0  0.038636  0.070055  0  3.992778  0
C  C102  1  0.55905377  0.23147076  0.21967431  1  0  0.019924  0  3.71406  0  0  -0.009015  0  3.974304  0  0  -0.006211  0  3.991195  0  0.588194  0  0.044685  -0.010782  0  3.963146  0
C  C103  1  0.05904454  0.76853637  0.21967228  1  0  0.020025  0  3.713827  0  0  -0.008877  0  3.974111  0  0  -0.006069  0  3.990991  0  0.588902  0  0.044697  -0.010653  0  3.962946  0
C  C104  1  0.27825973  0.89756422  0.81322080  1  0  -0.085368  0  3.682141  0  0  -0.112919  0  3.934447  0  0  -0.111122  0  3.951785  0  0.048229  0  -0.065218  -0.114182  0  3.923364  0
C  C105  1  0.77825558  0.10244573  0.81321072  1  0  -0.085253  0  3.682069  0  0  -0.11293  0  3.934515  0  0  -0.111125  0  3.951845  0  0.048228  0  -0.06523  -0.114195  0  3.923432  0
N  N106  1  0.43418528  0.73194888  0.73987856  1  0  -0.29717  0  3.336618  0  0  -0.21309  0  3.609055  0  0  -0.231822  0  3.625971  0  -1.231544  0  -0.325673  -0.200612  0  3.597792  0
N  N107  1  0.93418009  0.26804887  0.73986896  1  0  -0.297183  0  3.336841  0  0  -0.213133  0  3.609328  0  0  -0.231864  0  3.626243  0  -1.232059  0  -0.325786  -0.200658  0  3.59807  0
N  N108  1  0.07197751  0.80431934  0.68513073  1  0  -0.454765  0  3.359529  0  0  -0.399229  0  3.591802  0  0  -0.4226  0  3.6033  0  -1.303897  0  -0.395213  -0.382963  0  3.583768  0
N  N109  1  0.57197954  0.19567090  0.68511779  1  0  -0.454693  0  3.359787  0  0  -0.399179  0  3.592004  0  0  -0.422583  0  3.603487  0  -1.303575  0  -0.395291  -0.382915  0  3.583968  0
N  N110  1  0.64209287  0.74162193  0.59692056  1  0  -0.301876  0  3.263788  0  0  -0.218776  0  3.542907  0  0  -0.238764  0  3.555736  0  -1.251128  0  -0.314925  -0.20549  0  3.533877  0
N  N111  1  0.14208775  0.25837770  0.59691296  1  0  -0.30188  0  3.263846  0  0  -0.218703  0  3.542851  0  0  -0.238733  0  3.555732  0  -1.251009  0  -0.314855  -0.205406  0  3.533803  0
N  N112  1  0.58794606  0.04013509  0.32210914  1  0  -0.448371  0  3.329002  0  0  -0.395792  0  3.567654  0  0  -0.417425  0  3.57707  0  -1.238605  0  -0.392725  -0.380496  0  3.561325  0
N  N113  1  0.08792654  0.95986453  0.32209943  1  0  -0.448775  0  3.328843  0  0  -0.395907  0  3.567601  0  0  -0.417607  0  3.577007  0  -1.238733  0  -0.392836  -0.380584  0  3.561305  0
N  N114  1  0.49596690  0.30361405  0.13753702  1  0  -0.280317  0  3.089506  0  0  -0.245083  0  3.358522  0  0  -0.256021  0  3.377181  0  -1.174059  0  -0.31618  -0.237743  0  3.345872  0
N  N115  1  0.99595143  0.69638746  0.13753806  1  0  -0.280315  0  3.089337  0  0  -0.245071  0  3.358345  0  0  -0.256008  0  3.377003  0  -1.173927  0  -0.316187  -0.237733  0  3.345696  0
O  O116  1  0.38323466  0.57575031  0.54196422  1  0  -0.636533  0  2.041449  0  0  -0.562311  0  2.300564  0  0  -0.591533  0  2.286859  0  -1.168027  0  -0.327303  -0.541751  0  2.309078  0
O  O117  1  0.88324286  0.42426059  0.54197039  1  0  -0.636431  0  2.041451  0  0  -0.562256  0  2.300618  0  0  -0.591469  0  2.286902  0  -1.16822  0  -0.327264  -0.541697  0  2.309133  0
O  O118  1  0.52094760  0.40855877  0.55573617  1  0  -0.638339  0  1.966692  0  0  -0.590338  0  2.204291  0  0  -0.612877  0  2.192972  0  -1.20433  0  -0.32267  -0.574348  0  2.211832  0
O  O119  1  0.02095484  0.59144648  0.55572503  1  0  -0.638358  0  1.966747  0  0  -0.590339  0  2.20428  0  0  -0.612874  0  2.192964  0  -1.204012  0  -0.322679  -0.574347  0  2.211808  0
O  O120  1  0.53154597  0.44322837  0.78468655  1  0  -0.615279  0  1.942704  0  0  -0.567471  0  2.180295  0  0  -0.590714  0  2.170019  0  -1.174216  0  -0.320101  -0.551049  0  2.187312  0
O  O121  1  0.03154086  0.55676375  0.78468627  1  0  -0.615195  0  1.942711  0  0  -0.56738  0  2.180284  0  0  -0.590623  0  2.170006  0  -1.174417  0  -0.320104  -0.55096  0  2.187302  0
O  O122  1  0.70562545  0.57131933  0.78792594  1  0  -0.64063  0  2.008167  0  0  -0.571019  0  2.270409  0  0  -0.600002  0  2.256989  0  -1.167301  0  -0.337076  -0.550728  0  2.278894  0
O  O123  1  0.20562960  0.42867373  0.78792649  1  0  -0.640623  0  2.007892  0  0  -0.571002  0  2.270114  0  0  -0.599985  0  2.256699  0  -1.167223  0  -0.33701  -0.55071  0  2.278596  0
O  O124  1  0.00525492  0.22990960  0.17880242  1  0  -0.313138  0  2.358588  0  0  -0.244997  0  2.585667  0  0  -0.262669  0  2.587045  0  -1.118378  0  -0.161543  -0.232185  0  2.584051  0
O  O125  1  0.50525077  0.77008815  0.17880406  1  0  -0.313127  0  2.358497  0  0  -0.244978  0  2.585574  0  0  -0.262647  0  2.586947  0  -1.118399  0  -0.161575  -0.232182  0  2.583972  0
O  O126  1  0.02130997  0.01559104  0.66804468  1  0  -0.541963  0  1.961806  0  0  -0.505906  0  2.189632  0  0  -0.529102  0  2.190321  0  -1.142162  0  -0.289632  -0.489067  0  2.188401  0
O  O127  1  0.52129656  0.98440483  0.66804476  1  0  -0.542042  0  1.962358  0  0  -0.50594  0  2.190055  0  0  -0.529114  0  2.190705  0  -1.142439  0  -0.289677  -0.489103  0  2.188824  0
O  O128  1  0.39834578  0.95574147  0.35148833  1  0  -0.562613  0  1.923137  0  0  -0.5184  0  2.146503  0  0  -0.539387  0  2.139445  0  -1.169784  0  -0.294763  -0.503697  0  2.151283  0
O  O129  1  0.89834060  0.04426379  0.35148825  1  0  -0.562411  0  1.923708  0  0  -0.51823  0  2.147205  0  0  -0.539206  0  2.140133  0  -1.169672  0  -0.294625  -0.503534  0  2.151998  0
