# generated using pymatgen
data_AlH3C24(Cl2O)6
_symmetry_space_group_name_H-M   'P 1'
_cell_length_a   4.05333734
_cell_length_b   28.80621324
_cell_length_c   28.80684182
_cell_angle_alpha   120.00163345
_cell_angle_beta   90.00228418
_cell_angle_gamma   89.99679112
_symmetry_Int_Tables_number   1
_chemical_formula_structural   AlH3C24(Cl2O)6
_chemical_formula_sum   'Al2 H6 C48 Cl24 O12'
_cell_volume   2912.84953543
_cell_formula_units_Z   2
loop_
 _symmetry_equiv_pos_site_id
 _symmetry_equiv_pos_as_xyz
  1  'x, y, z'
loop_
 _atom_site_type_symbol
 _atom_site_label
 _atom_site_symmetry_multiplicity
 _atom_site_fract_x
 _atom_site_fract_y
 _atom_site_fract_z
 _atom_site_occupancy
 _atom_site_pbe_bader_charge
 _atom_site_pbe_bader_spin_density
 _atom_site_pbe_cm5_charge
 _atom_site_pbe_ddec_charge
 _atom_site_pbe_ddec_spin_density
 _atom_site_pbe_ddec_sum_bond_order
 _atom_site_pbe_magmom
Al  Al0  1  0.97879742  0.49999273  0.49999750  1  2.510926  0  0.422339  1.627607  0  2.524922  0
Al  Al1  1  0.97880168  0.16667013  0.83333262  1  2.510794  0  0.422349  1.627486  0  2.525082  0
H  H2  1  0.50785238  0.38305097  0.72262825  1  0.077117  0  0.076897  0.079598  0  1.111129  0
H  H3  1  0.50779946  0.28362452  0.61071224  1  0.077503  0  0.076922  0.079674  0  1.111014  0
H  H4  1  0.50784361  0.83957878  0.61695922  1  0.121843  0  0.076925  0.079663  0  1.111095  0
H  H5  1  0.50794399  0.82708068  0.71637760  1  0.121616  0  0.076859  0.079537  0  1.111204  0
H  H6  1  0.50781856  0.27738210  0.16041627  1  0.109218  0  0.076922  0.079654  0  1.1112  0
H  H7  1  0.50790680  0.38930209  0.17292055  1  0.108982  0  0.076864  0.079574  0  1.111162  0
C  C8  1  0.48034933  0.46437484  0.41828360  1  1.646183  0  0.273935  0.679546  0  4.07605  0
C  C9  1  0.48041730  0.45390024  0.53561439  1  1.650975  0  0.273888  0.679578  0  4.075923  0
C  C10  1  0.48040837  0.58170932  0.54609035  1  1.6479  0  0.273966  0.679418  0  4.076568  0
C  C11  1  0.48038591  0.21277060  0.79771840  1  1.651318  0  0.273826  0.679373  0  4.075963  0
C  C12  1  0.48041458  0.08495677  0.78723328  1  1.647727  0  0.273918  0.679577  0  4.075875  0
C  C13  1  0.48036260  0.20228534  0.91504734  1  1.64769  0  0.273872  0.679074  0  4.076464  0
C  C14  1  0.49061651  0.24520180  0.76978619  1  0.100533  0  -0.018465  -0.128766  0  3.955136  0
C  C15  1  0.61593260  0.22248872  0.71770361  1  0.058298  0  0.006883  0.061447  0  4.055724  0
C  C16  1  0.63629877  0.25275298  0.69178410  1  0.10334  0  0.008279  0.03754  0  3.994165  0
C  C17  1  0.51453281  0.30600346  0.71636673  1  0.147796  0  -0.016492  0.020268  0  3.983546  0
C  C18  1  0.38406817  0.32769509  0.76906248  1  0.078506  0  0.007556  0.036422  0  3.995504  0
C  C19  1  0.37814684  0.29819076  0.79573075  1  0.124066  0  0.006432  0.061767  0  4.063192  0
C  C20  1  0.52107528  0.34071661  0.69294630  1  0.044066  0  -0.104042  -0.107957  0  3.981002  0
C  C21  1  0.52105844  0.32595830  0.64039333  1  -0.058013  0  -0.103808  -0.107676  0  3.980727  0
C  C22  1  0.38407652  0.33897685  0.56427174  1  0.080515  0  0.007606  0.036277  0  3.995477  0
C  C23  1  0.51452773  0.36067080  0.61697219  1  0.147445  0  -0.016488  0.020292  0  3.983449  0
C  C24  1  0.63630429  0.41391827  0.64155171  1  0.102316  0  0.008251  0.037555  0  3.994406  0
C  C25  1  0.61598301  0.44417795  0.61562784  1  0.171548  0  0.006966  0.061432  0  4.056094  0
C  C26  1  0.49067845  0.42146588  0.56354554  1  -0.012437  0  -0.018598  -0.128974  0  3.954935  0
C  C27  1  0.37818289  0.36847685  0.53759948  1  0.124193  0  0.006383  0.061901  0  4.062703  0
C  C28  1  0.49069740  0.02459114  0.75480035  1  -0.016435  0  -0.018681  -0.129048  0  3.95499  0
C  C29  1  0.61602542  0.99522321  0.77751377  1  0.101059  0  0.006981  0.061214  0  4.056166  0
C  C30  1  0.63636610  0.93903600  0.74725185  1  0.148724  0  0.008289  0.037913  0  3.994112  0
C  C31  1  0.51461272  0.91036801  0.69400457  1  0.052949  0  -0.016367  0.020184  0  3.983567  0
C  C32  1  0.38412587  0.94137103  0.67231084  1  0.129315  0  0.007659  0.036438  0  3.995503  0
C  C33  1  0.37821764  0.99754550  0.70181133  1  0.181522  0  0.006361  0.061946  0  4.062479  0
C  C34  1  0.52113491  0.85223104  0.65929240  1  -0.111417  0  -0.103942  -0.107863  0  3.981014  0
C  C35  1  0.52114938  0.81443241  0.67404453  1  0.010615  0  -0.103935  -0.107715  0  3.981042  0
C  C36  1  0.38411510  0.72529136  0.66101737  1  0.127719  0  0.007662  0.036433  0  3.995624  0
C  C37  1  0.51458852  0.75629736  0.63932700  1  0.053055  0  -0.016448  0.020225  0  3.983496  0
C  C38  1  0.63632585  0.72762913  0.58607939  1  0.148939  0  0.008237  0.037571  0  3.994406  0
C  C39  1  0.61596180  0.67144528  0.55581422  1  0.100914  0  0.006883  0.061528  0  4.056192  0
C  C40  1  0.49065185  0.64207364  0.57852246  1  -0.016639  0  -0.018351  -0.12876  0  3.955005  0
C  C41  1  0.37817630  0.66911825  0.63151138  1  0.181423  0  0.006149  0.061695  0  4.063229  0
C  C42  1  0.49066082  0.23021922  0.97541087  1  0.029934  0  -0.018377  -0.12851  0  3.954979  0
C  C43  1  0.61594108  0.28230122  0.00478432  1  0.186678  0  0.006734  0.061182  0  4.05607  0
C  C44  1  0.63628762  0.30822349  0.06096976  1  0.064615  0  0.008379  0.037827  0  3.994071  0
C  C45  1  0.51456473  0.28364131  0.08963426  1  0.074126  0  -0.016473  0.020121  0  3.983897  0
C  C46  1  0.38409555  0.23094348  0.05862729  1  0.013484  0  0.007664  0.036471  0  3.995479  0
C  C47  1  0.37816691  0.20427632  0.00245421  1  0.238593  0  0.006147  0.061583  0  4.062979  0
C  C48  1  0.52109874  0.30706331  0.14776794  1  -0.090923  0  -0.103757  -0.107615  0  3.980837  0
C  C49  1  0.52112084  0.35961681  0.18556734  1  0.00853  0  -0.103951  -0.1078  0  3.980901  0
C  C50  1  0.38404617  0.43573048  0.27471061  1  0.013262  0  0.007582  0.036424  0  3.995477  0
C  C51  1  0.51453479  0.38303163  0.24370059  1  0.071158  0  -0.016543  0.020153  0  3.983542  0
C  C52  1  0.63627301  0.35844570  0.27236204  1  0.067956  0  0.008353  0.037662  0  3.994461  0
C  C53  1  0.61588769  0.38435954  0.32854489  1  0.186726  0  0.006791  0.061236  0  4.055811  0
C  C54  1  0.49059220  0.43644642  0.35792082  1  0.03007  0  -0.01827  -0.128387  0  3.954372  0
C  C55  1  0.37810312  0.46239541  0.33088180  1  0.238177  0  0.006147  0.061564  0  4.063004  0
Cl  Cl56  1  0.23078795  0.32580388  0.86007985  1  -0.160073  0  0.018578  -0.019394  0  1.643001  0
Cl  Cl57  1  0.22149783  0.39151633  0.80158603  1  -0.175445  0  0.014613  -0.036374  0  1.626257  0
Cl  Cl58  1  0.74599933  0.15700442  0.68619049  1  -0.159702  0  0.020154  -0.01968  0  1.673857  0
Cl  Cl59  1  0.82541416  0.22302042  0.63000762  1  -0.176053  0  0.025153  -0.02412  0  1.677672  0
Cl  Cl60  1  0.82539084  0.44365500  0.70333287  1  -0.175676  0  0.025129  -0.02415  0  1.677648  0
Cl  Cl61  1  0.74606980  0.50966054  0.64713722  1  -0.159805  0  0.020168  -0.019633  0  1.673847  0
Cl  Cl62  1  0.22147777  0.27516103  0.53175254  1  -0.17697  0  0.01459  -0.036379  0  1.626249  0
Cl  Cl63  1  0.23086115  0.34086694  0.47324786  1  -0.160124  0  0.018555  -0.019432  0  1.642883  0
Cl  Cl64  1  0.23087598  0.03428755  0.67420209  1  -0.160978  0  0.018569  -0.019425  0  1.6428  0
Cl  Cl65  1  0.22154590  0.91007296  0.60849309  1  -0.173127  0  0.014589  -0.036406  0  1.626207  0
Cl  Cl66  1  0.74612069  0.02919595  0.84299314  1  -0.148691  0  0.020197  -0.019525  0  1.674172  0
Cl  Cl67  1  0.82546031  0.90698964  0.77698717  1  -0.17165  0  0.02507  -0.024282  0  1.677582  0
Cl  Cl68  1  0.82545577  0.75967607  0.55634957  1  -0.17191  0  0.025082  -0.024238  0  1.677584  0
Cl  Cl69  1  0.74602492  0.63747182  0.49033176  1  -0.148557  0  0.020201  -0.01968  0  1.67413  0
Cl  Cl70  1  0.22153586  0.75658970  0.72483352  1  -0.172059  0  0.014553  -0.036435  0  1.626166  0
Cl  Cl71  1  0.23081753  0.63237788  0.65911782  1  -0.160524  0  0.018611  -0.019385  0  1.643103  0
Cl  Cl72  1  0.23080499  0.13992547  0.96570907  1  -0.157337  0  0.018628  -0.019349  0  1.643018  0
Cl  Cl73  1  0.22152431  0.19842322  0.08992179  1  -0.169752  0  0.014592  -0.036394  0  1.626092  0
Cl  Cl74  1  0.74600363  0.31381673  0.97081818  1  -0.156406  0  0.020216  -0.019652  0  1.673912  0
Cl  Cl75  1  0.82540559  0.37000453  0.09301720  1  -0.174174  0  0.025027  -0.024299  0  1.677565  0
Cl  Cl76  1  0.82538411  0.29666496  0.24031341  1  -0.173957  0  0.025093  -0.0242  0  1.677717  0
Cl  Cl77  1  0.74593969  0.35284452  0.36251184  1  -0.156147  0  0.020187  -0.019664  0  1.674045  0
Cl  Cl78  1  0.22149027  0.46825599  0.24341787  1  -0.16971  0  0.014607  -0.036421  0  1.626272  0
Cl  Cl79  1  0.23074789  0.52674700  0.36762670  1  -0.157523  0  0.018614  -0.019367  0  1.643013  0
O  O80  1  0.71410323  0.55667603  0.55325240  1  -1.247881  0  -0.231568  -0.593539  0  2.41666  0
O  O81  1  0.71410944  0.49656712  0.44331827  1  -1.248128  0  -0.231558  -0.593749  0  2.416112  0
O  O82  1  0.71415489  0.44673718  0.50342360  1  -1.249112  0  -0.231606  -0.593685  0  2.416326  0
O  O83  1  0.24011955  0.56084118  0.51407484  1  -1.250163  0  -0.22881  -0.589251  0  2.42326  0
O  O84  1  0.24017102  0.48591481  0.54676364  1  -1.250059  0  -0.228603  -0.589117  0  2.423414  0
O  O85  1  0.24014255  0.45322423  0.43915363  1  -1.253699  0  -0.228741  -0.589274  0  2.4236  0
O  O86  1  0.71417028  0.17009029  0.89001644  1  -1.249658  0  -0.231752  -0.593762  0  2.415939  0
O  O87  1  0.71411249  0.21992534  0.82990739  1  -1.249429  0  -0.231635  -0.593652  0  2.416589  0
O  O88  1  0.71415182  0.10998936  0.78007225  1  -1.247958  0  -0.231651  -0.593773  0  2.416187  0
O  O89  1  0.24016032  0.21343167  0.89418409  1  -1.253828  0  -0.228474  -0.58866  0  2.423738  0
O  O90  1  0.24018331  0.10582160  0.81924490  1  -1.24988  0  -0.228623  -0.589045  0  2.423611  0
O  O91  1  0.24011211  0.18075324  0.78656818  1  -1.24995  0  -0.228624  -0.589168  0  2.423042  0
