# generated using pymatgen
data_CdH11C9N6ClO
_symmetry_space_group_name_H-M   'P 1'
_cell_length_a   6.94875695
_cell_length_b   9.66452693
_cell_length_c   10.38619184
_cell_angle_alpha   79.29005412
_cell_angle_beta   86.54265479
_cell_angle_gamma   75.42844398
_symmetry_Int_Tables_number   1
_chemical_formula_structural   CdH11C9N6ClO
_chemical_formula_sum   'Cd2 H22 C18 N12 Cl2 O2'
_cell_volume   663.23752529
_cell_formula_units_Z   2
loop_
 _symmetry_equiv_pos_site_id
 _symmetry_equiv_pos_as_xyz
  1  'x, y, z'
loop_
 _atom_site_type_symbol
 _atom_site_label
 _atom_site_symmetry_multiplicity
 _atom_site_fract_x
 _atom_site_fract_y
 _atom_site_fract_z
 _atom_site_occupancy
 _atom_site_hle17_bader_spin_density
 _atom_site_hle17_ddec_charge
 _atom_site_hle17_ddec_spin_density
 _atom_site_hle17_ddec_sum_bond_order
 _atom_site_hle17_magmom
 _atom_site_hse06_10hf_bader_spin_density
 _atom_site_hse06_10hf_ddec_charge
 _atom_site_hse06_10hf_ddec_spin_density
 _atom_site_hse06_10hf_ddec_sum_bond_order
 _atom_site_hse06_10hf_magmom
 _atom_site_hse06_bader_spin_density
 _atom_site_hse06_ddec_charge
 _atom_site_hse06_ddec_spin_density
 _atom_site_hse06_ddec_sum_bond_order
 _atom_site_hse06_magmom
 _atom_site_pbe_bader_spin_density
 _atom_site_pbe_cm5_charge
 _atom_site_pbe_ddec_charge
 _atom_site_pbe_ddec_spin_density
 _atom_site_pbe_ddec_sum_bond_order
 _atom_site_pbe_magmom
Cd  Cd0  1  0.73109795  0.51746017  0.64126391  1  0  0.96712  0  1.913746  0  0  0.759114  0  2.399577  0  0  0.808968  0  2.355814  0  0  0.731761  0.724231  0  2.429244  0
Cd  Cd1  1  0.26890238  0.48253876  0.35873570  1  0  0.967155  0  1.913684  0  0  0.75916  0  2.399502  0  0  0.809008  0  2.355741  0  0  0.731775  0.724279  0  2.42917  0
H  H2  1  0.13250119  0.72556426  0.95855143  1  0  0.115869  0  0.942531  0  0  0.125103  0  1.004068  0  0  0.128608  0  1.002468  0  0  0.110174  0.122513  0  1.005509  0
H  H3  1  0.86749696  0.27443685  0.04144694  1  0  0.115898  0  0.942464  0  0  0.125139  0  1.004001  0  0  0.128646  0  1.002397  0  0  0.110181  0.122548  0  1.005446  0
H  H4  1  0.87601548  0.77269710  0.13239446  1  0  0.098772  0  0.959586  0  0  0.106525  0  1.023501  0  0  0.109468  0  1.02139  0  0  0.098289  0.104389  0  1.025063  0
H  H5  1  0.12398518  0.22730509  0.86760458  1  0  0.098757  0  0.959642  0  0  0.106515  0  1.02355  0  0  0.109458  0  1.021438  0  0  0.098296  0.104379  0  1.025112  0
H  H6  1  0.54131439  0.71543631  0.11046690  1  0  0.105806  0  0.987527  0  0  0.111429  0  1.055562  0  0  0.114774  0  1.054632  0  0  0.092112  0.108809  0  1.056653  0
H  H7  1  0.45868557  0.28456371  0.88953448  1  0  0.105812  0  0.987565  0  0  0.111426  0  1.055604  0  0  0.114761  0  1.054685  0  0  0.092126  0.108805  0  1.056695  0
H  H8  1  0.49063924  0.61374001  0.91387250  1  0  0.070838  0  0.988256  0  0  0.07042  0  1.068302  0  0  0.073523  0  1.065272  0  0  0.109466  0.068157  0  1.070564  0
H  H9  1  0.50936324  0.38626109  0.08612762  1  0  0.070868  0  0.988195  0  0  0.070446  0  1.068246  0  0  0.07355  0  1.065216  0  0  0.10947  0.068183  0  1.070509  0
H  H10  1  0.49901852  0.78002784  0.39859386  1  0  0.036633  0  0.970833  0  0  0.039488  0  1.054608  0  0  0.041167  0  1.049992  0  0  0.107596  0.038134  0  1.057978  0
H  H11  1  0.50098217  0.21997000  0.60140593  1  0  0.036643  0  0.970822  0  0  0.039488  0  1.054603  0  0  0.041164  0  1.049989  0  0  0.107592  0.038137  0  1.057976  0
H  H12  1  0.84955454  0.95453766  0.50029395  1  0  0.11437  0  0.945478  0  0  0.134546  0  1.004957  0  0  0.136283  0  1.003804  0  0  0.109547  0.133164  0  1.005868  0
H  H13  1  0.15044362  0.04546344  0.49970827  1  0  0.114384  0  0.945496  0  0  0.134558  0  1.004972  0  0  0.136295  0  1.00382  0  0  0.109546  0.133177  0  1.005881  0
H  H14  1  0.73986831  0.12229160  0.39458405  1  0  0.09898  0  0.958312  0  0  0.116189  0  1.026267  0  0  0.116271  0  1.027318  0  0  0.100622  0.115956  0  1.025722  0
H  H15  1  0.26012877  0.87770842  0.60541647  1  0  0.099033  0  0.958228  0  0  0.11623  0  1.026194  0  0  0.116312  0  1.027244  0  0  0.100636  0.115997  0  1.025648  0
H  H16  1  0.93255381  0.98751862  0.33367998  1  0  0.099984  0  0.942153  0  0  0.11809  0  1.009478  0  0  0.118804  0  1.009098  0  0  0.095024  0.11746  0  1.009724  0
H  H17  1  0.06744326  0.01248140  0.66632151  1  0  0.099987  0  0.942173  0  0  0.118112  0  1.009472  0  0  0.118825  0  1.009093  0  0  0.095022  0.117482  0  1.009717  0
H  H18  1  0.44430938  0.94246689  0.22506283  1  0  0.107307  0  0.965699  0  0  0.126428  0  1.030602  0  0  0.127489  0  1.030225  0  0  0.098467  0.125598  0  1.03089  0
H  H19  1  0.55568806  0.05753204  0.77493883  1  0  0.107302  0  0.96572  0  0  0.126426  0  1.030619  0  0  0.127487  0  1.030243  0  0  0.098464  0.125595  0  1.030907  0
H  H20  1  0.65248497  0.01294916  0.15955234  1  0  0.094335  0  0.928552  0  0  0.11574  0  0.988277  0  0  0.116235  0  0.988456  0  0  0.100308  0.115108  0  0.988609  0
H  H21  1  0.34751355  0.98705086  0.84044909  1  0  0.094297  0  0.928563  0  0  0.115699  0  0.988297  0  0  0.116196  0  0.988475  0  0  0.100289  0.115068  0  0.988628  0
H  H22  1  0.46246077  0.11668585  0.25128343  1  0  0.106096  0  0.961676  0  0  0.122129  0  1.029263  0  0  0.122905  0  1.030045  0  0  0.100506  0.121532  0  1.028901  0
H  H23  1  0.53753774  0.88331416  0.74871896  1  0  0.106089  0  0.961686  0  0  0.122138  0  1.029247  0  0  0.122917  0  1.030025  0  0  0.100517  0.121542  0  1.028882  0
C  C24  1  0.09794900  0.60490191  0.74698503  1  0  0.22733  0  3.806941  0  0  0.205619  0  4.074706  0  0  0.213381  0  4.090702  0  0  0.216283  0.20042  0  4.063646  0
C  C25  1  0.90205203  0.39509920  0.25301322  1  0  0.227339  0  3.807045  0  0  0.205636  0  4.074728  0  0  0.213398  0  4.090723  0  0  0.21627  0.200437  0  4.063672  0
C  C26  1  0.94746627  0.64236362  0.84745559  1  0  0.167771  0  3.787194  0  0  0.16886  0  4.023345  0  0  0.175121  0  4.043802  0  0  0.125064  0.164664  0  4.009484  0
C  C27  1  0.05253369  0.35763641  0.15254097  1  0  0.167739  0  3.787508  0  0  0.168937  0  4.02349  0  0  0.175202  0  4.043949  0  0  0.125074  0.164737  0  4.009638  0
C  C28  1  0.98801305  0.70281747  0.95207834  1  0  -0.129128  0  3.687738  0  0  -0.152102  0  3.935877  0  0  -0.15837  0  3.956215  0  0  -0.078202  -0.148004  0  3.922159  0
C  C29  1  0.01198870  0.29718581  0.04792528  1  0  -0.129225  0  3.68784  0  0  -0.152253  0  3.935985  0  0  -0.158524  0  3.956324  0  0  -0.078247  -0.148152  0  3.922266  0
C  C30  1  0.84236977  0.73004436  0.04855419  1  0  -0.000338  0  3.712698  0  0  -0.01694  0  3.961343  0  0  -0.013815  0  3.979997  0  0  -0.066574  -0.01894  0  3.948626  0
C  C31  1  0.15763055  0.26995458  0.95144254  1  0  -0.000229  0  3.712465  0  0  -0.016835  0  3.961117  0  0  -0.01371  0  3.979768  0  0  -0.066533  -0.018837  0  3.948402  0
C  C32  1  0.66042838  0.69720595  0.03744932  1  0  -0.115048  0  3.710875  0  0  -0.126788  0  3.9558  0  0  -0.133881  0  3.978102  0  0  -0.085959  -0.122043  0  3.941068  0
C  C33  1  0.33957554  0.30279515  0.96255170  1  0  -0.115047  0  3.710864  0  0  -0.126773  0  3.955801  0  0  -0.13386  0  3.978111  0  0  -0.085976  -0.122027  0  3.941068  0
C  C34  1  0.63117706  0.63850930  0.92942013  1  0  0.12376  0  3.715043  0  0  0.095713  0  3.970218  0  0  0.102042  0  3.988141  0  0  0.044262  0.091588  0  3.958056  0
C  C35  1  0.36882722  0.36149072  0.07057818  1  0  0.123738  0  3.714822  0  0  0.095693  0  3.969997  0  0  0.102024  0  3.98792  0  0  0.044288  0.091568  0  3.957836  0
C  C36  1  0.61196041  0.82198386  0.43937946  1  0  0.385743  0  3.807007  0  0  0.310409  0  4.095955  0  0  0.338705  0  4.096949  0  0  0.164954  0.291343  0  4.094779  0
C  C37  1  0.38803774  0.17801724  0.56061891  1  0  0.385679  0  3.807101  0  0  0.310356  0  4.09604  0  0  0.338654  0  4.097035  0  0  0.164937  0.291285  0  4.094871  0
C  C38  1  0.80292316  0.00529288  0.40031980  1  0  -0.174296  0  3.64683  0  0  -0.273313  0  3.89116  0  0  -0.26975  0  3.900724  0  0  -0.138994  -0.275383  0  3.884727  0
C  C39  1  0.19707355  0.99470822  0.59968152  1  0  -0.174402  0  3.646799  0  0  -0.273436  0  3.891148  0  0  -0.269873  0  3.900713  0  0  -0.139028  -0.275507  0  3.884715  0
C  C40  1  0.54702778  0.00644239  0.24246941  1  0  -0.180338  0  3.660905  0  0  -0.278964  0  3.904541  0  0  -0.276315  0  3.915829  0  0  -0.137692  -0.280512  0  3.897065  0
C  C41  1  0.45297254  0.99355655  0.75753213  1  0  -0.180299  0  3.660835  0  0  -0.278945  0  3.904497  0  0  -0.27629  0  3.91577  0  0  -0.137684  -0.280492  0  3.897017  0
N  N42  1  0.06913612  0.54472887  0.64504082  1  0  -0.27081  0  3.095397  0  0  -0.223671  0  3.373751  0  0  -0.236226  0  3.388195  0  0  -0.216472  -0.21504  0  3.36385  0
N  N43  1  0.93086276  0.45527007  0.35495790  1  0  -0.270873  0  3.095543  0  0  -0.223742  0  3.373881  0  0  -0.236305  0  3.388334  0  0  -0.216481  -0.215111  0  3.363981  0
N  N44  1  0.24195245  0.52305738  0.57985139  1  0  -0.091139  0  3.143157  0  0  -0.048633  0  3.432923  0  0  -0.055601  0  3.450129  0  0  -0.102027  -0.043658  0  3.421134  0
N  N45  1  0.75804860  0.47693938  0.42014761  1  0  -0.09109  0  3.143191  0  0  -0.048587  0  3.432965  0  0  -0.055556  0  3.450171  0  0  -0.101998  -0.043612  0  3.421175  0
N  N46  1  0.37115983  0.56878758  0.64054753  1  0  -0.110487  0  3.144266  0  0  -0.067262  0  3.441334  0  0  -0.074315  0  3.457197  0  0  -0.105763  -0.062385  0  3.430558  0
N  N47  1  0.62884049  0.43121135  0.35945209  1  0  -0.110497  0  3.144253  0  0  -0.067271  0  3.441322  0  0  -0.074324  0  3.457187  0  0  -0.105785  -0.062394  0  3.430548  0
N  N48  1  0.28489730  0.62057398  0.74577864  1  0  -0.271712  0  2.962232  0  0  -0.25027  0  3.239091  0  0  -0.25811  0  3.252685  0  0  -0.204771  -0.244738  0  3.229851  0
N  N49  1  0.71510084  0.37942713  0.25421876  1  0  -0.27169  0  2.962208  0  0  -0.250261  0  3.23907  0  0  -0.258103  0  3.252664  0  0  -0.204759  -0.244729  0  3.229831  0
N  N50  1  0.77071991  0.61129034  0.83615567  1  0  -0.337525  0  3.206938  0  0  -0.267881  0  3.462326  0  0  -0.285974  0  3.480456  0  0  -0.316852  -0.25554  0  3.44998  0
N  N51  1  0.22928076  0.38871185  0.16384530  1  0  -0.337567  0  3.206748  0  0  -0.267981  0  3.462146  0  0  -0.286061  0  3.480236  0  0  -0.316896  -0.255638  0  3.449805  0
N  N52  1  0.65378222  0.93859731  0.36318783  1  0  -0.079713  0  3.501254  0  0  0.026504  0  3.731136  0  0  0.006536  0  3.75641  0  0  -0.280904  0.039939  0  3.713642  0
N  N53  1  0.34621666  0.06140162  0.63681377  1  0  -0.079659  0  3.501056  0  0  0.026563  0  3.730935  0  0  0.006594  0  3.756212  0  0  -0.280879  0.04  0  3.713442  0
Cl  Cl54  1  0.77877058  0.25493112  0.74631323  1  0  -0.616349  0  0.821726  0  0  -0.559474  0  1.066662  0  0  -0.575592  0  1.046222  0  0  -0.348166  -0.547662  0  1.080464  0
Cl  Cl55  1  0.22122793  0.74506890  0.25368628  1  0  -0.616372  0  0.821719  0  0  -0.55949  0  1.066643  0  0  -0.575606  0  1.046204  0  0  -0.348174  -0.547678  0  1.080448  0
O  O56  1  0.69149474  0.76496051  0.54835868  1  0  -0.543824  0  2.114361  0  0  -0.486995  0  2.384356  0  0  -0.512329  0  2.37774  0  0  -0.322057  -0.469091  0  2.387835  0
O  O57  1  0.30850594  0.23503733  0.45164207  1  0  -0.543773  0  2.114507  0  0  -0.486958  0  2.384521  0  0  -0.512278  0  2.37787  0  0  -0.322043  -0.469051  0  2.387995  0
