# generated using pymatgen
data_CdH8C12S2(NO)4
_symmetry_space_group_name_H-M   'P 1'
_cell_length_a   6.75925058
_cell_length_b   13.74646738
_cell_length_c   15.43796241
_cell_angle_alpha   90.61662448
_cell_angle_beta   89.99995479
_cell_angle_gamma   90.00000012
_symmetry_Int_Tables_number   1
_chemical_formula_structural   CdH8C12S2(NO)4
_chemical_formula_sum   'Cd4 H32 C48 S8 N16 O16'
_cell_volume   1434.34782977
_cell_formula_units_Z   4
loop_
 _symmetry_equiv_pos_site_id
 _symmetry_equiv_pos_as_xyz
  1  'x, y, z'
loop_
 _atom_site_type_symbol
 _atom_site_label
 _atom_site_symmetry_multiplicity
 _atom_site_fract_x
 _atom_site_fract_y
 _atom_site_fract_z
 _atom_site_occupancy
 _atom_site_hle17_bader_spin_density
 _atom_site_hle17_ddec_charge
 _atom_site_hle17_ddec_spin_density
 _atom_site_hle17_ddec_sum_bond_order
 _atom_site_hle17_magmom
 _atom_site_hse06_10hf_bader_spin_density
 _atom_site_hse06_10hf_ddec_charge
 _atom_site_hse06_10hf_ddec_spin_density
 _atom_site_hse06_10hf_ddec_sum_bond_order
 _atom_site_hse06_10hf_magmom
 _atom_site_hse06_bader_spin_density
 _atom_site_hse06_ddec_charge
 _atom_site_hse06_ddec_spin_density
 _atom_site_hse06_ddec_sum_bond_order
 _atom_site_hse06_magmom
 _atom_site_pbe_bader_spin_density
 _atom_site_pbe_cm5_charge
 _atom_site_pbe_ddec_charge
 _atom_site_pbe_ddec_spin_density
 _atom_site_pbe_ddec_sum_bond_order
 _atom_site_pbe_magmom
Cd  Cd0  1  0.31943334  0.39191412  0.00775844  1  0  1.229201  0  1.652346  0  0  1.045454  0  2.102082  0  0  1.096806  0  2.049621  0  0  0.817871  1.008546  0  2.138418  0
Cd  Cd1  1  0.81943314  0.10808554  0.99224225  1  0  1.229175  0  1.652327  0  0  1.045445  0  2.102052  0  0  1.096798  0  2.049591  0  0  0.817881  1.008543  0  2.138392  0
Cd  Cd2  1  0.68056716  0.60808760  0.99224129  1  0  1.229175  0  1.652339  0  0  1.045435  0  2.102063  0  0  1.096787  0  2.049603  0  0  0.81786  1.008527  0  2.138403  0
Cd  Cd3  1  0.18056735  0.89191255  0.00775810  1  0  1.229231  0  1.6523  0  0  1.0455  0  2.102016  0  0  1.096852  0  2.049555  0  0  0.817883  1.008595  0  2.138348  0
H  H4  1  0.16846526  0.50089722  0.17769072  1  0  0.10406  0  0.959637  0  0  0.11052  0  1.024581  0  0  0.113328  0  1.021877  0  0  0.120783  0.108367  0  1.026639  0
H  H5  1  0.66846390  0.99910365  0.82230998  1  0  0.104009  0  0.959613  0  0  0.110466  0  1.024586  0  0  0.113276  0  1.021882  0  0  0.120749  0.108312  0  1.026641  0
H  H6  1  0.83153375  0.49910232  0.82230834  1  0  0.104013  0  0.959662  0  0  0.110466  0  1.024629  0  0  0.113276  0  1.021923  0  0  0.120751  0.10831  0  1.026689  0
H  H7  1  0.33153511  0.00089734  0.17769040  1  0  0.104078  0  0.959628  0  0  0.110535  0  1.02458  0  0  0.113345  0  1.021872  0  0  0.120779  0.10838  0  1.026637  0
H  H8  1  0.53640040  0.26487548  0.86677663  1  0  0.099423  0  0.947723  0  0  0.103467  0  1.015855  0  0  0.106053  0  1.013209  0  0  0.12119  0.101435  0  1.017978  0
H  H9  1  0.03640037  0.23512345  0.13322351  1  0  0.099454  0  0.947671  0  0  0.103502  0  1.015796  0  0  0.106088  0  1.01315  0  0  0.121208  0.101469  0  1.017922  0
H  H10  1  0.46359862  0.73512406  0.13322309  1  0  0.099412  0  0.947704  0  0  0.103467  0  1.015831  0  0  0.106053  0  1.013184  0  0  0.121199  0.101435  0  1.017959  0
H  H11  1  0.96359865  0.76487681  0.86677686  1  0  0.099425  0  0.947706  0  0  0.103481  0  1.015829  0  0  0.106067  0  1.013183  0  0  0.121204  0.101449  0  1.017958  0
H  H12  1  0.17255979  0.50508164  0.83966513  1  0  0.098327  0  0.94707  0  0  0.103183  0  1.015245  0  0  0.105943  0  1.012255  0  0  0.120725  0.101106  0  1.017425  0
H  H13  1  0.67255815  0.99491778  0.16033556  1  0  0.098289  0  0.947107  0  0  0.10317  0  1.015258  0  0  0.105933  0  1.012261  0  0  0.120722  0.101081  0  1.017462  0
H  H14  1  0.82743922  0.49491863  0.16033524  1  0  0.098312  0  0.947088  0  0  0.103168  0  1.015269  0  0  0.105932  0  1.012272  0  0  0.120722  0.101081  0  1.017462  0
H  H15  1  0.32744235  0.00508248  0.83966416  1  0  0.098334  0  0.947186  0  0  0.103203  0  1.015341  0  0  0.105966  0  1.012344  0  0  0.12075  0.101118  0  1.017534  0
H  H16  1  0.20352343  0.49991241  0.67773980  1  0  0.101993  0  0.95044  0  0  0.114094  0  1.008525  0  0  0.117004  0  1.00809  0  0  0.102111  0.111998  0  1.009051  0
H  H17  1  0.70352297  0.00008725  0.32226028  1  0  0.102007  0  0.950407  0  0  0.114103  0  1.0085  0  0  0.117016  0  1.008059  0  0  0.102099  0.112005  0  1.009025  0
H  H18  1  0.79647411  0.50008858  0.32226057  1  0  0.101931  0  0.950485  0  0  0.114046  0  1.008563  0  0  0.116954  0  1.008133  0  0  0.102105  0.111953  0  1.009085  0
H  H19  1  0.29647753  0.99991229  0.67773944  1  0  0.102017  0  0.9504  0  0  0.114118  0  1.008488  0  0  0.117029  0  1.008052  0  0  0.102117  0.11202  0  1.009012  0
H  H20  1  0.60926845  0.25815595  0.30787730  1  0  0.107876  0  0.975538  0  0  0.112878  0  1.043112  0  0  0.115629  0  1.04354  0  0  0.103709  0.110941  0  1.042886  0
H  H21  1  0.10927185  0.24184444  0.69212217  1  0  0.10786  0  0.975544  0  0  0.11285  0  1.043126  0  0  0.115599  0  1.043562  0  0  0.103705  0.110915  0  1.042905  0
H  H22  1  0.39073057  0.74184577  0.69212308  1  0  0.107845  0  0.975522  0  0  0.112876  0  1.043056  0  0  0.115627  0  1.043483  0  0  0.103714  0.110939  0  1.042831  0
H  H23  1  0.89073309  0.75815438  0.30787754  1  0  0.107862  0  0.975552  0  0  0.112904  0  1.04307  0  0  0.115656  0  1.043496  0  0  0.103721  0.110967  0  1.04285  0
H  H24  1  0.59024083  0.25152984  0.70624978  1  0  0.109537  0  0.969982  0  0  0.115059  0  1.036891  0  0  0.117641  0  1.037699  0  0  0.104758  0.113226  0  1.036448  0
H  H25  1  0.09024199  0.24846909  0.29374968  1  0  0.109539  0  0.970007  0  0  0.115057  0  1.036914  0  0  0.117639  0  1.037722  0  0  0.10476  0.113224  0  1.03647  0
H  H26  1  0.40975670  0.74847188  0.29374995  1  0  0.109523  0  0.96998  0  0  0.11504  0  1.036892  0  0  0.117622  0  1.037701  0  0  0.104733  0.113211  0  1.03645  0
H  H27  1  0.90975851  0.75152972  0.70625003  1  0  0.109549  0  0.969988  0  0  0.115071  0  1.036902  0  0  0.117653  0  1.03771  0  0  0.104748  0.113237  0  1.036462  0
H  H28  1  0.56979972  0.27539119  0.14697176  1  0  0.104821  0  0.95793  0  0  0.109792  0  1.023142  0  0  0.112426  0  1.020808  0  0  0.120298  0.107731  0  1.025057  0
H  H29  1  0.06980283  0.22460847  0.85302707  1  0  0.104873  0  0.957921  0  0  0.109794  0  1.023187  0  0  0.112429  0  1.02085  0  0  0.12032  0.107732  0  1.025107  0
H  H30  1  0.43019929  0.72460835  0.85302795  1  0  0.104881  0  0.95791  0  0  0.109801  0  1.023172  0  0  0.112433  0  1.020842  0  0  0.120318  0.107741  0  1.025085  0
H  H31  1  0.93020063  0.77539180  0.14697265  1  0  0.104863  0  0.957941  0  0  0.109824  0  1.023155  0  0  0.112451  0  1.020839  0  0  0.12032  0.107761  0  1.02507  0
H  H32  1  0.19049419  0.49363126  0.33949124  1  0  0.104266  0  0.948102  0  0  0.115115  0  1.007082  0  0  0.118379  0  1.005988  0  0  0.102302  0.112772  0  1.008049  0
H  H33  1  0.69049311  0.00636912  0.66050950  1  0  0.104286  0  0.948082  0  0  0.115137  0  1.00706  0  0  0.118402  0  1.005965  0  0  0.102306  0.11279  0  1.008025  0
H  H34  1  0.80950335  0.50636900  0.66050848  1  0  0.104252  0  0.948077  0  0  0.115095  0  1.007067  0  0  0.118359  0  1.005973  0  0  0.102284  0.112752  0  1.008032  0
H  H35  1  0.30950739  0.99363187  0.33949152  1  0  0.104305  0  0.948025  0  0  0.115133  0  1.007026  0  0  0.118398  0  1.005931  0  0  0.102307  0.112788  0  1.007994  0
C  C36  1  0.26110420  0.44699396  0.20974688  1  0  0.14302  0  3.662479  0  0  0.114216  0  3.910859  0  0  0.121649  0  3.929146  0  0  0.053028  0.109381  0  3.898467  0
C  C37  1  0.76110585  0.05300716  0.79025190  1  0  0.143118  0  3.662374  0  0  0.114284  0  3.910794  0  0  0.121716  0  3.929084  0  0  0.053056  0.109452  0  3.898389  0
C  C38  1  0.73889333  0.55300558  0.79025219  1  0  0.143056  0  3.662405  0  0  0.114242  0  3.910785  0  0  0.121672  0  3.929076  0  0  0.053067  0.109414  0  3.898388  0
C  C39  1  0.23889612  0.94699457  0.20974784  1  0  0.142998  0  3.662441  0  0  0.114192  0  3.910807  0  0  0.121626  0  3.929092  0  0  0.053027  0.109364  0  3.898406  0
C  C40  1  0.40173358  0.37382334  0.33692118  1  0  0.071233  0  3.822467  0  0  0.079877  0  4.065071  0  0  0.082896  0  4.086415  0  0  0.00446  0.078063  0  4.050435  0
C  C41  1  0.90173398  0.12617704  0.66307884  1  0  0.071143  0  3.822447  0  0  0.079839  0  4.064984  0  0  0.082862  0  4.086327  0  0  0.004426  0.07802  0  4.050353  0
C  C42  1  0.59826543  0.62617692  0.66307854  1  0  0.07123  0  3.822357  0  0  0.079884  0  4.064956  0  0  0.082903  0  4.086299  0  0  0.004461  0.078065  0  4.050323  0
C  C43  1  0.09826651  0.87382395  0.33692154  1  0  0.071313  0  3.822418  0  0  0.079978  0  4.064998  0  0  0.082998  0  4.086343  0  0  0.004481  0.078157  0  4.050372  0
C  C44  1  0.46819465  0.31612886  0.82238928  1  0  0.151022  0  3.662477  0  0  0.121614  0  3.911919  0  0  0.129368  0  3.928811  0  0  0.058947  0.116435  0  3.900684  0
C  C45  1  0.96819593  0.18387007  0.17761136  1  0  0.151014  0  3.66247  0  0  0.121619  0  3.911892  0  0  0.129373  0  3.928782  0  0  0.058964  0.11644  0  3.900656  0
C  C46  1  0.53180288  0.68387141  0.17761045  1  0  0.151031  0  3.662472  0  0  0.1216  0  3.911936  0  0  0.129354  0  3.928826  0  0  0.058935  0.116416  0  3.900707  0
C  C47  1  0.03180308  0.81612874  0.82238965  1  0  0.151035  0  3.662434  0  0  0.121592  0  3.911907  0  0  0.129347  0  3.928796  0  0  0.058924  0.116411  0  3.900677  0
C  C48  1  0.26169397  0.44976059  0.80675943  1  0  0.155797  0  3.668889  0  0  0.126178  0  3.920306  0  0  0.134052  0  3.938094  0  0  0.05726  0.120981  0  3.908352  0
C  C49  1  0.76169374  0.05023907  0.19324063  1  0  0.155793  0  3.668954  0  0  0.126157  0  3.920379  0  0  0.134031  0  3.938168  0  0  0.057233  0.120965  0  3.908417  0
C  C50  1  0.73830357  0.55023968  0.19324029  1  0  0.155763  0  3.668915  0  0  0.126132  0  3.920338  0  0  0.134006  0  3.938126  0  0  0.057223  0.120941  0  3.908368  0
C  C51  1  0.23830676  0.94976192  0.80675910  1  0  0.155765  0  3.669005  0  0  0.12614  0  3.920388  0  0  0.134015  0  3.938177  0  0  0.057229  0.120947  0  3.908427  0
C  C52  1  0.39994757  0.37423308  0.67891604  1  0  0.069849  0  3.822782  0  0  0.080681  0  4.061123  0  0  0.083467  0  4.082864  0  0  0.004509  0.079014  0  4.046238  0
C  C53  1  0.89994563  0.12576658  0.32108463  1  0  0.069844  0  3.822751  0  0  0.080631  0  4.061136  0  0  0.083413  0  4.082883  0  0  0.004489  0.078964  0  4.046245  0
C  C54  1  0.60005292  0.62576791  0.32108434  1  0  0.069856  0  3.82285  0  0  0.080685  0  4.06123  0  0  0.083471  0  4.082973  0  0  0.004535  0.079014  0  4.046349  0
C  C55  1  0.10005486  0.87423296  0.67891574  1  0  0.06985  0  3.822873  0  0  0.080678  0  4.061242  0  0  0.083462  0  4.082987  0  0  0.004518  0.079012  0  4.046351  0
C  C56  1  0.27911018  0.44585200  0.71699094  1  0  -0.167797  0  3.710975  0  0  -0.186923  0  3.958303  0  0  -0.194835  0  3.980406  0  0  -0.089286  -0.181768  0  3.943423  0
C  C57  1  0.77910831  0.05414620  0.28300910  1  0  -0.167785  0  3.710882  0  0  -0.186888  0  3.95822  0  0  -0.194801  0  3.980327  0  0  -0.08923  -0.181731  0  3.943331  0
C  C58  1  0.72088736  0.55414754  0.28300878  1  0  -0.167721  0  3.710997  0  0  -0.186852  0  3.958343  0  0  -0.194764  0  3.980448  0  0  -0.089266  -0.181698  0  3.94346  0
C  C59  1  0.22088923  0.94585261  0.71699061  1  0  -0.167808  0  3.711005  0  0  -0.186938  0  3.958346  0  0  -0.194851  0  3.980451  0  0  -0.089304  -0.181782  0  3.943458  0
C  C60  1  0.50992758  0.31235688  0.28135853  1  0  -0.136347  0  3.666093  0  0  -0.152259  0  3.907979  0  0  -0.159157  0  3.928071  0  0  -0.077707  -0.147812  0  3.894528  0
C  C61  1  0.00992797  0.18764351  0.71864163  1  0  -0.136346  0  3.666072  0  0  -0.152249  0  3.907949  0  0  -0.159148  0  3.928039  0  0  -0.077716  -0.1478  0  3.894505  0
C  C62  1  0.49007440  0.68764339  0.71864314  1  0  -0.136319  0  3.666081  0  0  -0.152251  0  3.907952  0  0  -0.159148  0  3.928044  0  0  -0.077704  -0.147796  0  3.894499  0
C  C63  1  0.99007549  0.81235603  0.28135874  1  0  -0.136449  0  3.666085  0  0  -0.152391  0  3.907959  0  0  -0.159287  0  3.928049  0  0  -0.077759  -0.147939  0  3.894513  0
C  C64  1  0.43024258  0.36558583  0.43033768  1  0  0.104337  0  3.750456  0  0  0.094387  0  4.041783  0  0  0.101847  0  4.056682  0  0  0.124106  0.089351  0  4.031552  0
C  C65  1  0.93024463  0.13441237  0.56966231  1  0  0.104404  0  3.750472  0  0  0.094433  0  4.041806  0  0  0.101883  0  4.056718  0  0  0.124112  0.089394  0  4.031583  0
C  C66  1  0.56975496  0.63441443  0.56966204  1  0  0.104251  0  3.750556  0  0  0.094301  0  4.041877  0  0  0.101763  0  4.056772  0  0  0.124078  0.089264  0  4.03165  0
C  C67  1  0.06975735  0.86558717  0.43033741  1  0  0.104395  0  3.750376  0  0  0.094419  0  4.041739  0  0  0.101875  0  4.056644  0  0  0.12412  0.08938  0  4.03152  0
C  C68  1  0.49604694  0.30823823  0.73343995  1  0  -0.135773  0  3.659304  0  0  -0.151829  0  3.900884  0  0  -0.158622  0  3.921048  0  0  -0.076912  -0.147472  0  3.887441  0
C  C69  1  0.99604657  0.19176143  0.26655939  1  0  -0.135824  0  3.659359  0  0  -0.151862  0  3.90094  0  0  -0.158653  0  3.921106  0  0  -0.07696  -0.147505  0  3.887494  0
C  C70  1  0.50395208  0.69176350  0.26656044  1  0  -0.135791  0  3.659336  0  0  -0.151827  0  3.900916  0  0  -0.15862  0  3.921082  0  0  -0.076902  -0.14747  0  3.887478  0
C  C71  1  0.00395244  0.80823738  0.73343903  1  0  -0.135772  0  3.659303  0  0  -0.151837  0  3.900913  0  0  -0.158627  0  3.921075  0  0  -0.076874  -0.147483  0  3.887474  0
C  C72  1  0.48901706  0.32178526  0.19235864  1  0  0.145772  0  3.664189  0  0  0.117402  0  3.910974  0  0  0.124968  0  3.92808  0  0  0.056941  0.112392  0  3.899511  0
C  C73  1  0.98901868  0.17821513  0.80764070  1  0  0.145774  0  3.664212  0  0  0.117421  0  3.911035  0  0  0.124987  0  3.928144  0  0  0.05695  0.112407  0  3.899581  0
C  C74  1  0.51098196  0.67821574  0.80764109  1  0  0.145704  0  3.664232  0  0  0.117361  0  3.911034  0  0  0.124927  0  3.928139  0  0  0.056923  0.112347  0  3.899582  0
C  C75  1  0.01098330  0.82178441  0.19235901  1  0  0.145789  0  3.664141  0  0  0.117424  0  3.910944  0  0  0.124988  0  3.928047  0  0  0.056941  0.112414  0  3.899485  0
C  C76  1  0.43054277  0.36625016  0.58543734  1  0  0.104485  0  3.746065  0  0  0.095763  0  4.035252  0  0  0.10322  0  4.050092  0  0  0.125017  0.090745  0  4.025027  0
C  C77  1  0.93054066  0.13374950  0.41456202  1  0  0.104521  0  3.746215  0  0  0.095839  0  4.035364  0  0  0.103297  0  4.050207  0  0  0.125051  0.090824  0  4.025131  0
C  C78  1  0.56945921  0.63375156  0.41456175  1  0  0.104446  0  3.746051  0  0  0.095682  0  4.035291  0  0  0.103136  0  4.050139  0  0  0.124964  0.090663  0  4.025071  0
C  C79  1  0.06945984  0.86624932  0.58543704  1  0  0.104433  0  3.746161  0  0  0.09569  0  4.035378  0  0  0.103146  0  4.050222  0  0  0.124963  0.090676  0  4.025145  0
C  C80  1  0.27434671  0.44224009  0.29959600  1  0  -0.169774  0  3.716574  0  0  -0.187414  0  3.965028  0  0  -0.195241  0  3.986404  0  0  -0.089382  -0.182298  0  3.950587  0
C  C81  1  0.77434557  0.05776029  0.70040471  1  0  -0.169792  0  3.716581  0  0  -0.187438  0  3.965027  0  0  -0.195265  0  3.986403  0  0  -0.089381  -0.182316  0  3.950575  0
C  C82  1  0.72565230  0.55775944  0.70040306  1  0  -0.169738  0  3.71648  0  0  -0.187374  0  3.964939  0  0  -0.1952  0  3.986316  0  0  -0.089371  -0.182257  0  3.950494  0
C  C83  1  0.22565345  0.94223998  0.29959566  1  0  -0.169833  0  3.716556  0  0  -0.187453  0  3.965003  0  0  -0.195282  0  3.986379  0  0  -0.089391  -0.18233  0  3.950555  0
S  S84  1  0.33353993  0.13187080  0.00953716  1  0  1.581701  0  5.828057  0  0  1.461751  0  6.360383  0  0  1.518544  0  6.32532  0  0  0.548784  1.422124  0  6.383376  0
S  S85  1  0.83353826  0.36812886  0.99046353  1  0  1.581524  0  5.82823  0  0  1.461547  0  6.360602  0  0  1.51834  0  6.325546  0  0  0.548722  1.421954  0  6.383539  0
S  S86  1  0.66646205  0.86813020  0.99046387  1  0  1.5818  0  5.828119  0  0  1.461847  0  6.36045  0  0  1.518642  0  6.325381  0  0  0.54883  1.422223  0  6.38344  0
S  S87  1  0.16646372  0.63186995  0.00953683  1  0  1.581691  0  5.828262  0  0  1.461738  0  6.36059  0  0  1.518531  0  6.325524  0  0  0.548774  1.422112  0  6.383582  0
S  S88  1  0.27654056  0.41678245  0.50823018  1  0  0.095801  0  2.45492  0  0  0.094687  0  2.765578  0  0  0.09527  0  2.765819  0  0  0.118899  0.093686  0  2.765852  0
S  S89  1  0.77653979  0.08321720  0.49177053  1  0  0.095764  0  2.454975  0  0  0.094642  0  2.765626  0  0  0.095229  0  2.765871  0  0  0.118883  0.093639  0  2.765897  0
S  S90  1  0.72345994  0.58321927  0.49177021  1  0  0.09586  0  2.454887  0  0  0.094761  0  2.765551  0  0  0.095346  0  2.765792  0  0  0.118924  0.093763  0  2.765827  0
S  S91  1  0.22346071  0.91678161  0.50822983  1  0  0.095782  0  2.454961  0  0  0.094685  0  2.765629  0  0  0.09527  0  2.765871  0  0  0.118899  0.093682  0  2.765902  0
N  N92  1  0.36660411  0.38775061  0.15732471  1  0  -0.313347  0  3.20486  0  0  -0.237671  0  3.46766  0  0  -0.257643  0  3.485909  0  0  -0.3185  -0.224117  0  3.455179  0
N  N93  1  0.86660271  0.11224977  0.84267532  1  0  -0.313337  0  3.204699  0  0  -0.237632  0  3.467483  0  0  -0.257605  0  3.485732  0  0  -0.318486  -0.224081  0  3.455006  0
N  N94  1  0.63339638  0.61224893  0.84267501  1  0  -0.313291  0  3.2047  0  0  -0.237583  0  3.46746  0  0  -0.257554  0  3.48571  0  0  -0.318478  -0.224033  0  3.45499  0
N  N95  1  0.13339631  0.88775122  0.15732505  1  0  -0.313356  0  3.204703  0  0  -0.23767  0  3.467497  0  0  -0.257641  0  3.485744  0  0  -0.3185  -0.224122  0  3.455022  0
N  N96  1  0.35406659  0.38583853  0.85813911  1  0  -0.310135  0  3.221291  0  0  -0.232849  0  3.480696  0  0  -0.253055  0  3.499248  0  0  -0.317761  -0.219157  0  3.4681  0
N  N97  1  0.85406645  0.11416040  0.14186091  1  0  -0.310085  0  3.221231  0  0  -0.232839  0  3.480689  0  0  -0.253044  0  3.499237  0  0  -0.317769  -0.219152  0  3.468096  0
N  N98  1  0.64592947  0.61416174  0.14186126  1  0  -0.310036  0  3.221253  0  0  -0.232753  0  3.480684  0  0  -0.252956  0  3.499232  0  0  -0.317714  -0.219058  0  3.468081  0
N  N99  1  0.14593257  0.88583914  0.85813881  1  0  -0.310139  0  3.221326  0  0  -0.232814  0  3.480693  0  0  -0.253022  0  3.499246  0  0  -0.317744  -0.219123  0  3.468092  0
N  N100  1  0.57987000  0.31683499  0.55111113  1  0  -0.197807  0  3.028847  0  0  -0.181704  0  3.320116  0  0  -0.189059  0  3.33495  0  0  -0.20399  -0.17637  0  3.309607  0
N  N101  1  0.07986792  0.18316467  0.44888835  1  0  -0.197754  0  3.028814  0  0  -0.181659  0  3.320064  0  0  -0.189014  0  3.334897  0  0  -0.203964  -0.17633  0  3.309557  0
N  N102  1  0.42013049  0.68316528  0.44888860  1  0  -0.197792  0  3.028815  0  0  -0.181668  0  3.320091  0  0  -0.189023  0  3.334927  0  0  -0.203984  -0.176337  0  3.309588  0
N  N103  1  0.92013110  0.81683487  0.55111136  1  0  -0.197756  0  3.028782  0  0  -0.181641  0  3.320054  0  0  -0.188996  0  3.334888  0  0  -0.203958  -0.176309  0  3.309547  0
N  N104  1  0.57983605  0.31659969  0.46399947  1  0  -0.20075  0  3.037677  0  0  -0.18491  0  3.330478  0  0  -0.192431  0  3.34548  0  0  -0.204306  -0.179466  0  3.319864  0
N  N105  1  0.07983677  0.18339924  0.53600064  1  0  -0.20085  0  3.037694  0  0  -0.185012  0  3.330508  0  0  -0.192531  0  3.345512  0  0  -0.204358  -0.179572  0  3.319903  0
N  N106  1  0.42016444  0.68339985  0.53600089  1  0  -0.200755  0  3.037721  0  0  -0.184918  0  3.330521  0  0  -0.192441  0  3.345522  0  0  -0.204317  -0.179472  0  3.319909  0
N  N107  1  0.92016225  0.81660030  0.46399907  1  0  -0.20082  0  3.037528  0  0  -0.184978  0  3.330343  0  0  -0.192499  0  3.345345  0  0  -0.20434  -0.179537  0  3.319742  0
O  O108  1  0.16440490  0.06041126  0.99680915  1  0  -0.799407  0  2.07948  0  0  -0.720898  0  2.378196  0  0  -0.748339  0  2.357401  0  0  -0.380941  -0.701063  0  2.391749  0
O  O109  1  0.66440354  0.43958840  0.00319094  1  0  -0.799383  0  2.079465  0  0  -0.720843  0  2.378174  0  0  -0.748286  0  2.357381  0  0  -0.380956  -0.701021  0  2.391722  0
O  O110  1  0.83559412  0.93958828  0.00319121  1  0  -0.799427  0  2.079447  0  0  -0.72089  0  2.378145  0  0  -0.74833  0  2.357348  0  0  -0.380979  -0.70106  0  2.391704  0
O  O111  1  0.33559548  0.56041114  0.99680877  1  0  -0.799379  0  2.079585  0  0  -0.720823  0  2.378256  0  0  -0.748265  0  2.357463  0  0  -0.380916  -0.700991  0  2.391815  0
O  O112  1  0.24809762  0.22874895  0.98772153  1  0  -0.772045  0  2.033191  0  0  -0.707293  0  2.323249  0  0  -0.731897  0  2.302525  0  0  -0.373474  -0.689587  0  2.33693  0
O  O113  1  0.74809624  0.27124925  0.01228112  1  0  -0.771918  0  2.033154  0  0  -0.707181  0  2.323225  0  0  -0.731786  0  2.302507  0  0  -0.37344  -0.689486  0  2.336896  0
O  O114  1  0.75190584  0.77125059  0.01228078  1  0  -0.772081  0  2.033184  0  0  -0.707343  0  2.323271  0  0  -0.731948  0  2.302544  0  0  -0.373503  -0.689638  0  2.336954  0
O  O115  1  0.25190722  0.72874883  0.98772053  1  0  -0.772068  0  2.033221  0  0  -0.707337  0  2.323307  0  0  -0.73194  0  2.30258  0  0  -0.373504  -0.689633  0  2.33699  0
O  O116  1  0.40724033  0.12900216  0.09886681  1  0  -0.722142  0  1.9336  0  0  -0.677998  0  2.188458  0  0  -0.699605  0  2.174776  0  0  -0.361491  -0.662243  0  2.197217  0
O  O117  1  0.90723438  0.37099386  0.90113317  1  0  -0.722115  0  1.933776  0  0  -0.677956  0  2.188632  0  0  -0.699549  0  2.174922  0  0  -0.361454  -0.662204  0  2.197362  0
O  O118  1  0.59276461  0.87099374  0.90113417  1  0  -0.722139  0  1.933721  0  0  -0.677975  0  2.188553  0  0  -0.699578  0  2.174861  0  0  -0.361441  -0.662211  0  2.197288  0
O  O119  1  0.09276464  0.62900496  0.09886589  1  0  -0.722122  0  1.93374  0  0  -0.677985  0  2.188605  0  0  -0.699583  0  2.174909  0  0  -0.361469  -0.662222  0  2.197344  0
O  O120  1  0.49098109  0.10461564  0.94561666  1  0  -0.757217  0  1.997019  0  0  -0.6944  0  2.2746  0  0  -0.718645  0  2.255621  0  0  -0.371938  -0.676964  0  2.28708  0
O  O121  1  0.99097964  0.39538620  0.05438399  1  0  -0.757175  0  1.996958  0  0  -0.694361  0  2.274565  0  0  -0.718604  0  2.255584  0  0  -0.371939  -0.676936  0  2.287031  0
O  O122  1  0.50902089  0.89538535  0.05438436  1  0  -0.757247  0  1.997007  0  0  -0.694451  0  2.274598  0  0  -0.718694  0  2.255614  0  0  -0.371961  -0.677013  0  2.287074  0
O  O123  1  0.00902234  0.60461407  0.94561638  1  0  -0.757225  0  1.996988  0  0  -0.694427  0  2.27458  0  0  -0.718671  0  2.2556  0  0  -0.371948  -0.676989  0  2.287055  0
