# generated using pymatgen
data_AgH8C14N5
_symmetry_space_group_name_H-M   'P 1'
_cell_length_a   7.27414470
_cell_length_b   9.24299460
_cell_length_c   10.00135673
_cell_angle_alpha   86.59209448
_cell_angle_beta   81.35812212
_cell_angle_gamma   66.78302906
_symmetry_Int_Tables_number   1
_chemical_formula_structural   AgH8C14N5
_chemical_formula_sum   'Ag2 H16 C28 N10'
_cell_volume   610.96878636
_cell_formula_units_Z   2
loop_
 _symmetry_equiv_pos_site_id
 _symmetry_equiv_pos_as_xyz
  1  'x, y, z'
loop_
 _atom_site_type_symbol
 _atom_site_label
 _atom_site_symmetry_multiplicity
 _atom_site_fract_x
 _atom_site_fract_y
 _atom_site_fract_z
 _atom_site_occupancy
 _atom_site_hle17_bader_spin_density
 _atom_site_hle17_ddec_charge
 _atom_site_hle17_ddec_spin_density
 _atom_site_hle17_ddec_sum_bond_order
 _atom_site_hle17_magmom
 _atom_site_hse06_10hf_bader_spin_density
 _atom_site_hse06_10hf_ddec_charge
 _atom_site_hse06_10hf_ddec_spin_density
 _atom_site_hse06_10hf_ddec_sum_bond_order
 _atom_site_hse06_10hf_magmom
 _atom_site_hse06_bader_spin_density
 _atom_site_hse06_ddec_charge
 _atom_site_hse06_ddec_spin_density
 _atom_site_hse06_ddec_sum_bond_order
 _atom_site_hse06_magmom
 _atom_site_pbe_bader_spin_density
 _atom_site_pbe_cm5_charge
 _atom_site_pbe_ddec_charge
 _atom_site_pbe_ddec_spin_density
 _atom_site_pbe_ddec_sum_bond_order
 _atom_site_pbe_magmom
Ag  Ag0  1  0.07638641  0.84656809  0.25017199  1  0  0.510849  0  1.485991  0  0  0.371586  0  1.929578  0  0  0.393884  0  1.892297  0  0  0.485792  0.358849  0  1.955542  0
Ag  Ag1  1  0.92361806  0.15344279  0.74982293  1  0  0.510876  0  1.485963  0  0  0.371571  0  1.929538  0  0  0.393866  0  1.892261  0  0  0.485794  0.358836  0  1.955505  0
H  H2  1  0.93907855  0.61502052  0.42547176  1  0  0.067037  0  0.972385  0  0  0.076054  0  1.041362  0  0  0.077447  0  1.040513  0  0  0.111621  0.074876  0  1.042405  0
H  H3  1  0.55436010  0.38498944  0.92486946  1  0  0.067128  0  0.97337  0  0  0.075763  0  1.042907  0  0  0.077133  0  1.042061  0  0  0.111633  0.074837  0  1.043451  0
H  H4  1  0.06093150  0.38498212  0.57452599  1  0  0.067015  0  0.97241  0  0  0.07604  0  1.04138  0  0  0.077453  0  1.040511  0  0  0.111618  0.074852  0  1.042439  0
H  H5  1  0.44564609  0.61500143  0.07512847  1  0  0.067181  0  0.973209  0  0  0.075807  0  1.042744  0  0  0.077175  0  1.0419  0  0  0.111661  0.074883  0  1.043288  0
H  H6  1  0.72566940  0.60458975  0.64055027  1  0  0.109092  0  0.966883  0  0  0.119961  0  1.02912  0  0  0.122141  0  1.029569  0  0  0.107608  0.117991  0  1.029597  0
H  H7  1  0.32990453  0.39534395  0.13969272  1  0  0.109083  0  0.967178  0  0  0.11969  0  1.029731  0  0  0.122033  0  1.029989  0  0  0.107609  0.118062  0  1.029602  0
H  H8  1  0.27433876  0.39540819  0.35944499  1  0  0.109097  0  0.966819  0  0  0.119995  0  1.029014  0  0  0.122176  0  1.029474  0  0  0.107626  0.11802  0  1.029488  0
H  H9  1  0.67010180  0.60464928  0.86030205  1  0  0.109006  0  0.967198  0  0  0.119641  0  1.029747  0  0  0.121984  0  1.030006  0  0  0.107573  0.118014  0  1.029617  0
H  H10  1  0.57454260  0.10406408  0.68280777  1  0  0.100652  0  0.978752  0  0  0.109624  0  1.044687  0  0  0.112123  0  1.044204  0  0  0.102693  0.107483  0  1.045809  0
H  H11  1  0.67895658  0.89577254  0.18215305  1  0  0.100826  0  0.980357  0  0  0.109896  0  1.04629  0  0  0.112449  0  1.045728  0  0  0.102869  0.108265  0  1.046422  0
H  H12  1  0.42545204  0.89593033  0.31718934  1  0  0.100613  0  0.978775  0  0  0.109581  0  1.044712  0  0  0.112081  0  1.044227  0  0  0.102675  0.10744  0  1.045834  0
H  H13  1  0.32104349  0.10421951  0.81784755  1  0  0.100835  0  0.980532  0  0  0.109854  0  1.0465  0  0  0.112422  0  1.045902  0  0  0.102854  0.108222  0  1.046636  0
H  H14  1  0.78438776  0.09401683  0.46269059  1  0  0.086392  0  0.959527  0  0  0.092548  0  1.02803  0  0  0.094796  0  1.026201  0  0  0.114067  0.091114  0  1.029277  0
H  H15  1  0.87906387  0.90582667  0.96220517  1  0  0.086735  0  0.958395  0  0  0.092986  0  1.026714  0  0  0.095249  0  1.024853  0  0  0.114212  0.091389  0  1.028209  0
H  H16  1  0.21560306  0.90598818  0.53731034  1  0  0.086305  0  0.959576  0  0  0.092482  0  1.028061  0  0  0.094724  0  1.026226  0  0  0.114043  0.091048  0  1.029306  0
H  H17  1  0.12093821  0.09416421  0.03779626  1  0  0.086653  0  0.958342  0  0  0.092895  0  1.026703  0  0  0.095155  0  1.024847  0  0  0.114159  0.091301  0  1.028181  0
C  C18  1  0.56097767  0.55961166  0.31193244  1  0  0.29184  0  3.868693  0  0  0.273179  0  4.139181  0  0  0.286981  0  4.156929  0  0  0.169175  0.264536  0  4.127489  0
C  C19  1  0.12236293  0.44066743  0.81099890  1  0  0.292846  0  3.870061  0  0  0.274263  0  4.140702  0  0  0.287757  0  4.158674  0  0  0.169024  0.265041  0  4.12873  0
C  C20  1  0.43902684  0.44039216  0.68809391  1  0  0.29154  0  3.868969  0  0  0.272883  0  4.139448  0  0  0.286676  0  4.157195  0  0  0.169006  0.264244  0  4.127756  0
C  C21  1  0.87762256  0.55934817  0.18900103  1  0  0.293307  0  3.870464  0  0  0.274715  0  4.141073  0  0  0.288217  0  4.15903  0  0  0.169193  0.265491  0  4.129108  0
C  C22  1  0.84257416  0.31289055  0.25046493  1  0  0.307039  0  3.844491  0  0  0.289663  0  4.110811  0  0  0.302131  0  4.130417  0  0  0.176709  0.281406  0  4.097279  0
C  C23  1  0.15741843  0.68711328  0.74952686  1  0  0.307104  0  3.844178  0  0  0.289743  0  4.110491  0  0  0.302205  0  4.130099  0  0  0.17657  0.281487  0  4.096957  0
C  C24  1  0.75995373  0.47809068  0.25038780  1  0  -0.248903  0  4.077334  0  0  -0.224644  0  4.318276  0  0  -0.237896  0  4.335869  0  0  -0.051038  -0.21561  0  4.305995  0
C  C25  1  0.24003413  0.52193434  0.74961728  1  0  -0.248498  0  4.077198  0  0  -0.224259  0  4.318155  0  0  -0.237496  0  4.335738  0  0  -0.050896  -0.215227  0  4.305871  0
C  C26  1  0.85514823  0.72060366  0.48629003  1  0  0.122383  0  3.715932  0  0  0.091981  0  3.962285  0  0  0.098395  0  3.982496  0  0  0.04291  0.087489  0  3.94863  0
C  C27  1  0.57593329  0.27940622  0.98566976  1  0  0.120647  0  3.715146  0  0  0.090338  0  3.961568  0  0  0.096812  0  3.981805  0  0  0.041838  0.085878  0  3.947832  0
C  C28  1  0.14485541  0.27939781  0.51370657  1  0  0.122398  0  3.716073  0  0  0.09199  0  3.962401  0  0  0.098385  0  3.982611  0  0  0.042901  0.087503  0  3.948746  0
C  C29  1  0.42407037  0.72058701  0.01433033  1  0  0.120577  0  3.715043  0  0  0.090326  0  3.961497  0  0  0.096803  0  3.981732  0  0  0.041813  0.085863  0  3.947763  0
C  C30  1  0.73747446  0.71557809  0.60785400  1  0  -0.148763  0  3.685116  0  0  -0.165658  0  3.925569  0  0  -0.173366  0  3.948216  0  0  -0.07906  -0.160259  0  3.910567  0
C  C31  1  0.45292489  0.28434584  0.10705568  1  0  -0.147564  0  3.683317  0  0  -0.164261  0  3.923822  0  0  -0.172109  0  3.94642  0  0  -0.078118  -0.159184  0  3.908657  0
C  C32  1  0.26252880  0.28441867  0.39214493  1  0  -0.148754  0  3.68487  0  0  -0.165644  0  3.92535  0  0  -0.173361  0  3.948007  0  0  -0.079072  -0.160236  0  3.910338  0
C  C33  1  0.54706768  0.71564975  0.89293760  1  0  -0.147481  0  3.683357  0  0  -0.164225  0  3.923886  0  0  -0.17207  0  3.946479  0  0  -0.078074  -0.159149  0  3.908721  0
C  C34  1  0.63330638  0.85397001  0.68431067  1  0  0.101558  0  3.738267  0  0  0.115035  0  3.961486  0  0  0.118748  0  3.982755  0  0  0.014924  0.112189  0  3.947288  0
C  C35  1  0.48740498  0.14598518  0.18359374  1  0  0.101871  0  3.736949  0  0  0.115444  0  3.960148  0  0  0.119236  0  3.981438  0  0  0.014588  0.112838  0  3.945885  0
C  C36  1  0.36669392  0.14601852  0.31568311  1  0  0.101528  0  3.738236  0  0  0.114915  0  3.961584  0  0  0.118628  0  3.982851  0  0  0.014965  0.11207  0  3.947384  0
C  C37  1  0.51259892  0.85401041  0.81640718  1  0  0.101792  0  3.737041  0  0  0.115361  0  3.960222  0  0  0.11915  0  3.981518  0  0  0.014541  0.112758  0  3.945954  0
C  C38  1  0.64975018  0.99227661  0.62970407  1  0  -0.149353  0  3.708597  0  0  -0.16832  0  3.958792  0  0  -0.174508  0  3.978025  0  0  -0.082346  -0.164182  0  3.94733  0
C  C39  1  0.64245952  0.00763925  0.12913600  1  0  -0.150835  0  3.711611  0  0  -0.170184  0  3.96202  0  0  -0.176474  0  3.981285  0  0  -0.082265  -0.165741  0  3.949184  0
C  C40  1  0.35024495  0.00771662  0.37028905  1  0  -0.149335  0  3.708643  0  0  -0.168271  0  3.958857  0  0  -0.174455  0  3.978078  0  0  -0.082374  -0.164135  0  3.947398  0
C  C41  1  0.35754812  0.99235163  0.87086475  1  0  -0.150878  0  3.711987  0  0  -0.170189  0  3.962373  0  0  -0.176479  0  3.981648  0  0  -0.08223  -0.165749  0  3.949536  0
C  C42  1  0.76866173  0.98797767  0.50647465  1  0  0.122187  0  3.698729  0  0  0.091781  0  3.950535  0  0  0.098807  0  3.967982  0  0  0.044575  0.086963  0  3.939463  0
C  C43  1  0.75723669  0.01196465  0.00597684  1  0  0.122447  0  3.700227  0  0  0.09177  0  3.952145  0  0  0.098826  0  3.969555  0  0  0.044477  0.087044  0  3.940863  0
C  C44  1  0.23132605  0.01203322  0.49352229  1  0  0.122252  0  3.698876  0  0  0.091839  0  3.950634  0  0  0.098878  0  3.968067  0  0  0.044624  0.08702  0  3.939563  0
C  C45  1  0.24277652  0.98802622  0.99402324  1  0  0.122631  0  3.700229  0  0  0.092003  0  3.952131  0  0  0.099055  0  3.96955  0  0  0.044565  0.087281  0  3.940848  0
N  N46  1  0.39285666  0.62738133  0.36184334  1  0  -0.467492  0  2.667287  0  0  -0.437316  0  2.926168  0  0  -0.448563  0  2.93308  0  0  -0.344331  -0.430429  0  2.92234  0
N  N47  1  0.02193735  0.37299516  0.86079503  1  0  -0.468052  0  2.666362  0  0  -0.438068  0  2.925109  0  0  -0.449341  0  2.932184  0  0  -0.344098  -0.431036  0  2.92079  0
N  N48  1  0.60713370  0.37262838  0.63818036  1  0  -0.467296  0  2.667672  0  0  -0.43709  0  2.926505  0  0  -0.448333  0  2.93342  0  0  -0.344169  -0.430205  0  2.922679  0
N  N49  1  0.97807428  0.62699101  0.13921652  1  0  -0.468359  0  2.666769  0  0  -0.438396  0  2.925539  0  0  -0.449665  0  2.932596  0  0  -0.344281  -0.431362  0  2.921228  0
N  N50  1  0.91188729  0.17476912  0.25032403  1  0  -0.458548  0  2.725586  0  0  -0.425224  0  2.985178  0  0  -0.438205  0  2.996922  0  0  -0.329768  -0.417158  0  2.978187  0
N  N51  1  0.08810865  0.82524529  0.74968071  1  0  -0.458727  0  2.725121  0  0  -0.425437  0  2.984773  0  0  -0.438416  0  2.996515  0  0  -0.32975  -0.417369  0  2.977784  0
N  N52  1  0.87222578  0.85386801  0.43564684  1  0  -0.29084  0  3.322495  0  0  -0.204495  0  3.595939  0  0  -0.222767  0  3.613121  0  0  -0.342824  -0.191755  0  3.584032  0
N  N53  1  0.72663658  0.14610572  0.93518982  1  0  -0.290425  0  3.320924  0  0  -0.203501  0  3.5941  0  0  -0.221846  0  3.61133  0  0  -0.342475  -0.19101  0  3.582391  0
N  N54  1  0.12777379  0.14613582  0.56434511  1  0  -0.290821  0  3.322727  0  0  -0.204453  0  3.596152  0  0  -0.222724  0  3.613334  0  0  -0.342857  -0.191715  0  3.584249  0
N  N55  1  0.27337022  0.85388397  0.06480910  1  0  -0.290398  0  3.320978  0  0  -0.203567  0  3.594239  0  0  -0.221909  0  3.61146  0  0  -0.342483  -0.191075  0  3.582531  0
