# generated using pymatgen
data_ZnH12C24(NO3)2
_symmetry_space_group_name_H-M   'P 1'
_cell_length_a   13.11764802
_cell_length_b   13.23582951
_cell_length_c   22.36158033
_cell_angle_alpha   89.99998947
_cell_angle_beta   89.99998520
_cell_angle_gamma   103.29307082
_symmetry_Int_Tables_number   1
_chemical_formula_structural   ZnH12C24(NO3)2
_chemical_formula_sum   'Zn4 H48 C96 N8 O24'
_cell_volume   3778.45900698
_cell_formula_units_Z   4
loop_
 _symmetry_equiv_pos_site_id
 _symmetry_equiv_pos_as_xyz
  1  'x, y, z'
loop_
 _atom_site_type_symbol
 _atom_site_label
 _atom_site_symmetry_multiplicity
 _atom_site_fract_x
 _atom_site_fract_y
 _atom_site_fract_z
 _atom_site_occupancy
 _atom_site_pbe_bader_charge
 _atom_site_pbe_bader_spin_density
 _atom_site_pbe_cm5_charge
 _atom_site_pbe_ddec_charge
 _atom_site_pbe_ddec_spin_density
 _atom_site_pbe_ddec_sum_bond_order
 _atom_site_pbe_magmom
Zn  Zn0  1  0.22643088  0.12809502  0.82806533  1  1.292621  0  0.669593  0.826573  0  2.422544  0
Zn  Zn1  1  0.77356905  0.87190564  0.32806526  1  1.29262  0  0.669597  0.826557  0  2.422558  0
Zn  Zn2  1  0.25405011  0.15550041  0.95478401  1  1.294244  0  0.670942  0.83006  0  2.414121  0
Zn  Zn3  1  0.74594958  0.84449941  0.45478394  1  1.294245  0  0.670964  0.83011  0  2.414083  0
H  H4  1  0.11159030  0.97598006  0.73508171  1  0.165595  0  0.124383  0.103652  0  1.002882  0
H  H5  1  0.88840968  0.02402064  0.23508215  1  0.165585  0  0.124383  0.10365  0  1.002879  0
H  H6  1  0.10441595  0.96547106  0.62346616  1  0.124055  0  0.123332  0.142421  0  0.969327  0
H  H7  1  0.89558486  0.03452969  0.12346616  1  0.124046  0  0.123326  0.142414  0  0.969315  0
H  H8  1  0.31685304  0.26772554  0.61832701  1  0.071799  0  0.122493  0.137825  0  0.965786  0
H  H9  1  0.68314718  0.73227598  0.11832652  1  0.071806  0  0.122487  0.137827  0  0.965776  0
H  H10  1  0.31451840  0.26663677  0.73106949  1  0.121162  0  0.128853  0.103846  0  0.976731  0
H  H11  1  0.68548082  0.73336392  0.23106900  1  0.121172  0  0.12888  0.103896  0  0.976717  0
H  H12  1  0.47419805  0.11538569  0.45101772  1  0.134999  0  0.119931  0.126511  0  0.981032  0
H  H13  1  0.52580317  0.88461415  0.95101767  1  0.135014  0  0.11994  0.126535  0  0.981  0
H  H14  1  0.48118574  0.12649273  0.33851270  1  0.132128  0  0.120877  0.127594  0  0.975575  0
H  H15  1  0.51881477  0.87350715  0.83851265  1  0.132035  0  0.120865  0.12758  0  0.975537  0
H  H16  1  0.96939901  0.13969679  0.33259582  1  0.150543  0  0.116223  0.121657  0  1.006035  0
H  H17  1  0.03060134  0.86030232  0.83259585  1  0.150528  0  0.116237  0.121663  0  1.00609  0
H  H18  1  0.96362386  0.12991540  0.44467869  1  0.14384  0  0.11649  0.122402  0  1.002141  0
H  H19  1  0.03637736  0.87008444  0.94467871  1  0.143818  0  0.11648  0.122392  0  1.00211  0
H  H20  1  0.31613887  0.30880057  0.16729449  1  0.092104  0  0.123536  0.138426  0  0.964237  0
H  H21  1  0.68386003  0.69119860  0.66729309  1  0.092107  0  0.123524  0.13839  0  0.964273  0
H  H22  1  0.32533699  0.30911292  0.05456721  1  0.099897  0  0.130698  0.103078  0  0.96772  0
H  H23  1  0.67466156  0.69088785  0.55456671  1  0.099886  0  0.130682  0.103071  0  0.967675  0
H  H24  1  0.16974556  0.99978905  0.04567381  1  0.157432  0  0.127951  0.107497  0  0.996749  0
H  H25  1  0.83025587  0.00021096  0.54567380  1  0.157423  0  0.127957  0.107505  0  0.996718  0
H  H26  1  0.15363363  0.98635317  0.15754157  1  0.105248  0  0.123735  0.140734  0  0.965014  0
H  H27  1  0.84636605  0.01364601  0.65754201  1  0.10526  0  0.123746  0.140757  0  0.96498  0
H  H28  1  0.23942098  0.44381216  0.77991353  1  0.09004  0  0.101287  0.105093  0  1.01031  0
H  H29  1  0.76057710  0.55618696  0.27991305  1  0.089776  0  0.101295  0.105122  0  1.010301  0
H  H30  1  0.23359548  0.62971922  0.76650615  1  0.074977  0  0.102864  0.104336  0  0.992573  0
H  H31  1  0.76640431  0.37028068  0.26650568  1  0.074961  0  0.102867  0.104356  0  0.992584  0
H  H32  1  0.26539649  0.48532978  0.96996494  1  0.090358  0  0.103226  0.108019  0  1.010061  0
H  H33  1  0.73460336  0.51467082  0.46996447  1  0.090367  0  0.103229  0.108023  0  1.010043  0
H  H34  1  0.23134194  0.80177537  0.81148597  1  0.109275  0  0.10668  0.115146  0  1.001101  0
H  H35  1  0.76865859  0.19822453  0.31148597  1  0.109268  0  0.106671  0.115127  0  1.001115  0
H  H36  1  0.25679220  0.84277198  0.00177620  1  0.077333  0  0.103942  0.110368  0  1.003947  0
H  H37  1  0.74320697  0.15722804  0.50177619  1  0.07734  0  0.103922  0.110364  0  1.003959  0
H  H38  1  0.26721162  0.65822256  0.01474219  1  0.056067  0  0.102093  0.10285  0  0.993509  0
H  H39  1  0.73278830  0.34177746  0.51474172  1  0.056078  0  0.102075  0.102835  0  0.993461  0
H  H40  1  0.90303846  0.12666307  0.81410249  1  0.095972  0  0.103372  0.11194  0  1.004088  0
H  H41  1  0.09696113  0.87333604  0.31410252  1  0.095975  0  0.103368  0.111892  0  1.004154  0
H  H42  1  0.74918462  0.15342202  0.01600775  1  0.046362  0  0.103604  0.108286  0  0.988885  0
H  H43  1  0.25081566  0.84657955  0.51600774  1  0.046371  0  0.103579  0.108293  0  0.988829  0
H  H44  1  0.93549551  0.13875933  0.00481890  1  0.06509  0  0.101963  0.110026  0  1.004028  0
H  H45  1  0.06450442  0.86124069  0.50481847  1  0.065045  0  0.101965  0.110022  0  1.004059  0
H  H46  1  0.73316573  0.13738667  0.76687150  1  0.070682  0  0.099917  0.100612  0  0.996668  0
H  H47  1  0.26683482  0.86261324  0.26687105  1  0.070684  0  0.09991  0.100596  0  0.99674  0
H  H48  1  0.54687976  0.15008290  0.77789980  1  0.101601  0  0.106902  0.115969  0  0.993088  0
H  H49  1  0.45312061  0.84991623  0.27790067  1  0.101607  0  0.106926  0.116003  0  0.993152  0
H  H50  1  0.57906616  0.16252447  0.96891760  1  0.103756  0  0.108394  0.118962  0  0.995771  0
H  H51  1  0.42093446  0.83747613  0.46891759  1  0.103752  0  0.108393  0.118971  0  0.995717  0
C  C52  1  0.15624790  0.03891536  0.70766375  1  0.51203  0  0.06388  0.117599  0  3.88945  0
C  C53  1  0.84375192  0.96108458  0.20766410  1  0.512034  0  0.063869  0.117573  0  3.889477  0
C  C54  1  0.15246947  0.03321041  0.64549506  1  -0.046354  0  -0.068717  -0.189288  0  3.915471  0
C  C55  1  0.84753115  0.96678956  0.14549541  1  -0.046353  0  -0.068679  -0.189229  0  3.915538  0
C  C56  1  0.21139283  0.11601187  0.61292893  1  0.3346  0  0.115155  0.239076  0  4.008772  0
C  C57  1  0.78860739  0.88398966  0.11292885  1  0.334609  0  0.115172  0.239103  0  4.008778  0
C  C58  1  0.27066894  0.20199691  0.64293530  1  0.032479  0  -0.072604  -0.194796  0  3.941686  0
C  C59  1  0.72933092  0.79800305  0.14293524  1  0.032473  0  -0.072631  -0.194857  0  3.94164  0
C  C60  1  0.27005101  0.20168437  0.70499621  1  0.520868  0  0.062013  0.113586  0  3.916315  0
C  C61  1  0.72994823  0.79831633  0.20499570  1  0.520861  0  0.062004  0.113573  0  3.916322  0
C  C62  1  0.11810970  0.11758868  0.51890964  1  1.286782  0  0.24959  0.444985  0  4.085716  0
C  C63  1  0.88189193  0.88241212  0.01891000  1  1.286823  0  0.249612  0.445034  0  4.08573  0
C  C64  1  0.12477036  0.12511616  0.45297960  1  0.022068  0  -0.000575  -0.061653  0  3.979153  0
C  C65  1  0.87523179  0.87488446  0.95297994  1  0.022055  0  -0.000569  -0.061687  0  3.979153  0
C  C66  1  0.22051416  0.12604751  0.42329251  1  0.0076  0  0.007883  0.03383  0  3.996643  0
C  C67  1  0.77948631  0.87395234  0.92329197  1  0.00764  0  0.007851  0.033789  0  3.99663  0
C  C68  1  0.31205049  0.11985641  0.45525044  1  -0.039367  0  -0.001255  -0.061033  0  3.986812  0
C  C69  1  0.68794937  0.88014420  0.95525081  1  -0.039368  0  -0.001273  -0.061058  0  3.986806  0
C  C70  1  0.30968504  0.11341022  0.52116976  1  1.293043  0  0.245654  0.436107  0  4.094255  0
C  C71  1  0.69031735  0.88659058  0.02116924  1  1.292998  0  0.245639  0.43612  0  4.094284  0
C  C72  1  0.40505047  0.12027386  0.42515283  1  0.039013  0  -0.056852  -0.061037  0  3.908529  0
C  C73  1  0.59495000  0.87972598  0.92515277  1  0.039012  0  -0.056841  -0.06102  0  3.908438  0
C  C74  1  0.40899386  0.12660469  0.36259419  1  -0.026369  0  -0.053666  -0.054052  0  3.906037  0
C  C75  1  0.59100664  0.87339518  0.86259413  1  -0.026264  0  -0.053647  -0.054065  0  3.906014  0
C  C76  1  0.32001198  0.13245732  0.33013048  1  0.048492  0  -0.003746  -0.066272  0  3.987026  0
C  C77  1  0.67998836  0.86754179  0.83013086  1  0.048455  0  -0.003719  -0.066208  0  3.987028  0
C  C78  1  0.22438413  0.13219492  0.35970443  1  -0.013567  0  0.007601  0.032255  0  3.995275  0
C  C79  1  0.77561696  0.86780418  0.85970434  1  -0.013505  0  0.00761  0.032303  0  3.995357  0
C  C80  1  0.13220155  0.13707334  0.32768568  1  -0.008356  0  -0.002319  -0.063804  0  3.975551  0
C  C81  1  0.86779803  0.86292576  0.82768558  1  -0.008416  0  -0.002338  -0.063875  0  3.97552  0
C  C82  1  0.03963073  0.13701370  0.35792908  1  0.045199  0  -0.054141  -0.046413  0  3.89043  0
C  C83  1  0.96036977  0.86298617  0.85792851  1  0.045204  0  -0.054182  -0.046425  0  3.890458  0
C  C84  1  0.03606145  0.13126280  0.42058431  1  -0.034542  0  -0.055386  -0.05125  0  3.887344  0
C  C85  1  0.96393996  0.86873783  0.92058419  1  -0.034505  0  -0.055341  -0.051195  0  3.887192  0
C  C86  1  0.13378490  0.14124708  0.26167380  1  1.30139  0  0.247773  0.449943  0  4.087796  0
C  C87  1  0.86621625  0.85875207  0.76167325  1  1.301431  0  0.247754  0.449942  0  4.087876  0
C  C88  1  0.32577030  0.13831776  0.26422190  1  1.284016  0  0.246315  0.444506  0  4.094996  0
C  C89  1  0.67423008  0.86168138  0.76422228  1  1.283996  0  0.246311  0.444499  0  4.094915  0
C  C90  1  0.23543362  0.14676000  0.17025046  1  0.320183  0  0.115094  0.244776  0  4.018048  0
C  C91  1  0.76456605  0.85323917  0.67025038  1  0.320174  0  0.115077  0.244787  0  4.018053  0
C  C92  1  0.28342937  0.23895241  0.14167868  1  0.047728  0  -0.070481  -0.193429  0  3.934324  0
C  C93  1  0.71657049  0.76104756  0.64167861  1  0.047735  0  -0.070478  -0.193444  0  3.934322  0
C  C94  1  0.28914510  0.23936620  0.07959094  1  0.477217  0  0.065232  0.112915  0  3.921075  0
C  C95  1  0.71085555  0.76063380  0.57958998  1  0.47721  0  0.065293  0.112997  0  3.920972  0
C  C96  1  0.20166197  0.06586804  0.07448935  1  0.512653  0  0.067135  0.124223  0  3.881984  0
C  C97  1  0.79833733  0.93413272  0.57448970  1  0.512654  0  0.067174  0.124265  0  3.88186  0
C  C98  1  0.19287124  0.05896162  0.13640403  1  0.027992  0  -0.068023  -0.19116  0  3.918415  0
C  C99  1  0.80712844  0.94103757  0.63640393  1  0.027993  0  -0.068003  -0.191178  0  3.918386  0
C  C100  1  0.25324404  0.34203613  0.88354306  1  1.556226  0  0.213659  0.594325  0  4.168619  0
C  C101  1  0.74675586  0.65796450  0.38354257  1  1.55634  0  0.213685  0.59437  0  4.168602  0
C  C102  1  0.25326093  0.45468760  0.87609501  1  -0.064778  0  -0.0189  -0.026855  0  3.977844  0
C  C103  1  0.74673804  0.54531226  0.37609453  1  -0.064823  0  -0.018938  -0.02691  0  3.977886  0
C  C104  1  0.24437629  0.49570727  0.81814070  1  -0.023312  0  -0.090721  -0.101379  0  4.008522  0
C  C105  1  0.75562211  0.50429338  0.31813977  1  -0.023037  0  -0.090741  -0.101425  0  4.008583  0
C  C106  1  0.24080567  0.59806598  0.81097573  1  -0.036423  0  -0.090606  -0.135071  0  4.005327  0
C  C107  1  0.75919333  0.40193390  0.31097526  1  -0.036408  0  -0.090598  -0.135093  0  4.0054  0
C  C108  1  0.24527804  0.66447387  0.86128836  1  0.016127  0  -0.006273  0.077777  0  4.007593  0
C  C109  1  0.75472152  0.33552522  0.36128790  1  0.016138  0  -0.006273  0.077788  0  4.007556  0
C  C110  1  0.25509833  0.62341143  0.91995148  1  -0.051965  0  -0.007281  0.075497  0  4.010567  0
C  C111  1  0.74490232  0.37658920  0.41995146  1  -0.051794  0  -0.007303  0.075459  0  4.010492  0
C  C112  1  0.25904144  0.51805598  0.92576189  1  -0.021773  0  -0.079859  -0.138646  0  3.941432  0
C  C113  1  0.74095768  0.48194463  0.42576142  1  -0.02158  0  -0.079851  -0.138609  0  3.941365  0
C  C114  1  0.23900387  0.76924601  0.85561746  1  -0.053607  0  -0.080041  -0.141673  0  3.939238  0
C  C115  1  0.76099587  0.23075386  0.35561701  1  -0.053377  0  -0.080035  -0.141673  0  3.939187  0
C  C116  1  0.24234404  0.83183735  0.90552002  1  -0.020115  0  -0.024068  -0.041294  0  4.002316  0
C  C117  1  0.75765603  0.16816405  0.40552047  1  -0.020369  0  -0.024064  -0.041202  0  4.002281  0
C  C118  1  0.25339400  0.79144022  0.96341083  1  -0.025089  0  -0.091824  -0.103059  0  4.0095  0
C  C119  1  0.74660568  0.20855960  0.46341038  1  -0.025096  0  -0.09188  -0.10318  0  4.009635  0
C  C120  1  0.25944026  0.68971769  0.97030480  1  -0.075971  0  -0.09042  -0.133715  0  4.006521  0
C  C121  1  0.74055960  0.31028291  0.47030434  1  -0.076315  0  -0.090323  -0.133615  0  4.006459  0
C  C122  1  0.23449773  0.94238675  0.89862873  1  1.560819  0  0.209738  0.578645  0  4.193188  0
C  C123  1  0.76550140  0.05761388  0.39862919  1  1.56083  0  0.209746  0.578601  0  4.19314  0
C  C124  1  0.03937349  0.12265027  0.90204178  1  1.570197  0  0.208847  0.583773  0  4.192366  0
C  C125  1  0.96062698  0.87734958  0.40204168  1  1.570194  0  0.208861  0.583807  0  4.192308  0
C  C126  1  0.92799300  0.13049212  0.90842812  1  -0.04989  0  -0.020796  -0.029398  0  3.987049  0
C  C127  1  0.07200654  0.86950695  0.40842770  1  -0.049948  0  -0.020816  -0.029468  0  3.987156  0
C  C128  1  0.86775556  0.13200247  0.85783107  1  0.001277  0  -0.082103  -0.142566  0  3.945987  0
C  C129  1  0.13224494  0.86799740  0.35783065  1  0.001335  0  -0.082155  -0.143265  0  3.945179  0
C  C130  1  0.76291573  0.14132509  0.86230348  1  -0.041591  0  -0.00886  0.071448  0  4.01286  0
C  C131  1  0.23708477  0.85867478  0.36230394  1  -0.041595  0  -0.008821  0.074723  0  4.009969  0
C  C132  1  0.71928383  0.14884366  0.92063746  1  -0.039935  0  -0.007318  0.07713  0  4.005679  0
C  C133  1  0.28071681  0.85115696  0.42063747  1  -0.039942  0  -0.00732  0.07353  0  4.009414  0
C  C134  1  0.78300793  0.14722723  0.97192453  1  -0.025108  0  -0.092924  -0.13954  0  4.006507  0
C  C135  1  0.21699192  0.85277337  0.47192410  1  -0.025097  0  -0.092877  -0.138661  0  4.007462  0
C  C136  1  0.88512481  0.13877996  0.96605061  1  -0.010996  0  -0.094213  -0.109741  0  4.014393  0
C  C137  1  0.11487487  0.86121986  0.46605064  1  -0.010951  0  -0.094229  -0.109703  0  4.014246  0
C  C138  1  0.69928883  0.14270340  0.81105353  1  -0.050376  0  -0.093264  -0.137793  0  4.011101  0
C  C139  1  0.30071170  0.85729649  0.31105353  1  -0.050362  0  -0.09329  -0.138527  0  4.010323  0
C  C140  1  0.59688304  0.15029301  0.81682728  1  -0.087158  0  -0.086109  -0.095828  0  3.989827  0
C  C141  1  0.40311766  0.84970766  0.31682726  1  -0.087166  0  -0.086081  -0.095835  0  3.990031  0
C  C142  1  0.55372896  0.15775343  0.87442697  1  0.005965  0  -0.016816  -0.025076  0  3.97205  0
C  C143  1  0.44627171  0.84224721  0.37442739  1  0.005338  0  -0.016791  -0.024991  0  3.971866  0
C  C144  1  0.61416112  0.15717998  0.92514520  1  -0.049938  0  -0.078402  -0.139698  0  3.930243  0
C  C145  1  0.38583969  0.84282142  0.42514519  1  -0.049954  0  -0.078418  -0.13885  0  3.931179  0
C  C146  1  0.44116370  0.16259897  0.88069263  1  1.580763  0  0.212338  0.58888  0  4.176866  0
C  C147  1  0.55883738  0.83740012  0.38069304  1  1.581406  0  0.212311  0.588804  0  4.176973  0
N  N148  1  0.21426380  0.12136442  0.73666661  1  -1.246689  0  -0.317708  -0.200975  0  3.517375  0
N  N149  1  0.78573601  0.87863550  0.23666653  1  -1.246693  0  -0.317719  -0.200996  0  3.5174  0
N  N150  1  0.21249752  0.11485705  0.54876844  1  -1.141169  0  -0.231241  -0.222491  0  3.5506  0
N  N151  1  0.78750333  0.88514373  0.04876881  1  -1.141197  0  -0.231245  -0.222498  0  3.550647  0
N  N152  1  0.23107891  0.14216987  0.23447982  1  -1.163731  0  -0.232552  -0.240321  0  3.570501  0
N  N153  1  0.76892208  0.85782851  0.73447974  1  -1.163736  0  -0.23251  -0.240299  0  3.570485  0
N  N154  1  0.24998608  0.15416578  0.04679810  1  -1.237502  0  -0.315606  -0.198897  0  3.51154  0
N  N155  1  0.75001230  0.84583422  0.54679801  1  -1.237496  0  -0.315716  -0.199008  0  3.511485  0
O  O156  1  0.03745649  0.11552570  0.54738259  1  -1.109017  0  -0.271432  -0.436834  0  2.091168  0
O  O157  1  0.96254418  0.88447430  0.04738249  1  -1.10906  0  -0.271469  -0.436886  0  2.091211  0
O  O158  1  0.38585124  0.10760554  0.55179996  1  -1.096653  0  -0.271734  -0.428093  0  2.067796  0
O  O159  1  0.61414960  0.89239524  0.05179991  1  -1.096596  0  -0.271725  -0.428107  0  2.067752  0
O  O160  1  0.05688783  0.14426337  0.23069746  1  -1.116224  0  -0.27246  -0.442961  0  2.097107  0
O  O161  1  0.94311239  0.85573501  0.73069779  1  -1.116268  0  -0.272447  -0.442954  0  2.097286  0
O  O162  1  0.40544686  0.13935040  0.23522171  1  -1.098727  0  -0.271756  -0.427725  0  2.064511  0
O  O163  1  0.59455371  0.86064953  0.73522165  1  -1.098689  0  -0.271772  -0.427746  0  2.06443  0
O  O164  1  0.40860186  0.17523721  0.93322112  1  -1.165268  0  -0.321417  -0.545339  0  2.321909  0
O  O165  1  0.59139877  0.82476341  0.43322108  1  -1.165294  0  -0.321435  -0.545352  0  2.321947  0
O  O166  1  0.38679060  0.15151122  0.83295809  1  -1.172124  0  -0.318086  -0.548671  0  2.331179  0
O  O167  1  0.61320822  0.84848788  0.33295849  1  -1.17212  0  -0.318054  -0.548598  0  2.331186  0
O  O168  1  0.07176377  0.11065353  0.84935320  1  -1.170703  0  -0.320717  -0.552121  0  2.345036  0
O  O169  1  0.92823597  0.88934634  0.34935265  1  -1.17071  0  -0.320736  -0.552153  0  2.345015  0
O  O170  1  0.09314478  0.12923501  0.94979198  1  -1.172028  0  -0.316505  -0.550122  0  2.346584  0
O  O171  1  0.90685491  0.87076481  0.44979189  1  -1.17201  0  -0.316493  -0.550117  0  2.34656  0
O  O172  1  0.24358569  0.99681787  0.94612715  1  -1.178076  0  -0.315112  -0.556567  0  2.356409  0
O  O173  1  0.75641400  0.00318196  0.44612807  1  -1.178093  0  -0.315131  -0.556596  0  2.356357  0
O  O174  1  0.21860809  0.97337755  0.84618878  1  -1.174218  0  -0.317383  -0.549814  0  2.33051  0
O  O175  1  0.78139131  0.02662077  0.34618925  1  -1.174183  0  -0.317349  -0.549736  0  2.3305  0
O  O176  1  0.26161496  0.30934470  0.93655094  1  -1.165785  0  -0.321504  -0.552111  0  2.316197  0
O  O177  1  0.73838321  0.69065512  0.43655045  1  -1.16589  0  -0.321481  -0.552116  0  2.316157  0
O  O178  1  0.24322248  0.28739353  0.83608220  1  -1.16742  0  -0.317417  -0.556592  0  2.338813  0
O  O179  1  0.75677727  0.71260635  0.33608170  1  -1.167445  0  -0.317446  -0.55661  0  2.338834  0
