# generated using pymatgen
data_Zn4H24C40N4O13
_symmetry_space_group_name_H-M   'P 1'
_cell_length_a   23.83820916
_cell_length_b   23.83905111
_cell_length_c   23.83789548
_cell_angle_alpha   66.98528193
_cell_angle_beta   72.27567875
_cell_angle_gamma   107.73298335
_symmetry_Int_Tables_number   1
_chemical_formula_structural   Zn4H24C40N4O13
_chemical_formula_sum   'Zn8 H48 C80 N8 O26'
_cell_volume   10398.17096710
_cell_formula_units_Z   2
loop_
 _symmetry_equiv_pos_site_id
 _symmetry_equiv_pos_as_xyz
  1  'x, y, z'
loop_
 _atom_site_type_symbol
 _atom_site_label
 _atom_site_symmetry_multiplicity
 _atom_site_fract_x
 _atom_site_fract_y
 _atom_site_fract_z
 _atom_site_occupancy
 _atom_site_pbe_bader_charge
 _atom_site_pbe_bader_spin_density
 _atom_site_pbe_cm5_charge
 _atom_site_pbe_ddec_charge
 _atom_site_pbe_ddec_spin_density
 _atom_site_pbe_ddec_sum_bond_order
 _atom_site_pbe_magmom
Zn  Zn0  1  0.05698692  0.95723313  0.48662336  1  1.317336  0  0.671875  0.957819  0  2.387632  0
Zn  Zn1  1  0.05699400  0.09975398  0.45638990  1  1.315963  0  0.671858  0.957955  0  2.38726  0
Zn  Zn2  1  0.94299403  0.98660669  0.45723208  1  1.316928  0  0.671881  0.957849  0  2.387155  0
Zn  Zn3  1  0.94299702  0.95637821  0.59976765  1  1.315763  0  0.671911  0.957989  0  2.387057  0
Zn  Zn4  1  0.94385142  0.54360939  0.01338677  1  1.315251  0  0.671796  0.957657  0  2.387517  0
Zn  Zn5  1  0.05615250  0.51338442  0.04362179  1  1.315337  0  0.671916  0.957941  0  2.387019  0
Zn  Zn6  1  0.94384545  0.40023882  0.04276881  1  1.315294  0  0.671867  0.958037  0  2.387075  0
Zn  Zn7  1  0.05613778  0.54276133  0.90024516  1  1.315448  0  0.671872  0.957804  0  2.387403  0
H  H8  1  0.92315934  0.65126198  0.11336881  1  0.108461  0  0.109636  0.115697  0  0.991481  0
H  H9  1  0.92295110  0.71440827  0.17600366  1  0.076997  0  0.107299  0.110121  0  0.987175  0
H  H10  1  0.07706084  0.67601355  0.21442508  1  0.076706  0  0.107307  0.110118  0  0.987189  0
H  H11  1  0.07684438  0.61336121  0.15129568  1  0.107162  0  0.109542  0.115568  0  0.99159  0
H  H12  1  0.92434812  0.82630498  0.28439237  1  0.055765  0  0.107531  0.110299  0  0.987807  0
H  H13  1  0.92496116  0.88942880  0.34709235  1  0.108366  0  0.108695  0.113817  0  0.992398  0
H  H14  1  0.07502662  0.84709689  0.38946027  1  0.107413  0  0.108684  0.113718  0  0.992119  0
H  H15  1  0.07562888  0.78436528  0.32636247  1  0.056334  0  0.107352  0.109943  0  0.987941  0
H  H16  1  0.07684590  0.46347386  0.77189016  1  0.087819  0  0.109616  0.115701  0  0.99129  0
H  H17  1  0.07706924  0.40104883  0.70853294  1  0.061525  0  0.107296  0.11011  0  0.987206  0
H  H18  1  0.92294129  0.20852223  0.90104695  1  0.061272  0  0.107285  0.110112  0  0.987133  0
H  H19  1  0.92315030  0.27186972  0.96348033  1  0.087611  0  0.109565  0.115681  0  0.991446  0
H  H20  1  0.07564489  0.29125645  0.59802797  1  0.110304  0  0.107444  0.110111  0  0.98796  0
H  H21  1  0.07503717  0.22793387  0.53552368  1  0.071687  0  0.108711  0.113809  0  0.992193  0
H  H22  1  0.92496223  0.03551420  0.72793756  1  0.071278  0  0.108678  0.113744  0  0.992024  0
H  H23  1  0.92435397  0.09802225  0.79125891  1  0.110271  0  0.10745  0.11013  0  0.987988  0
H  H24  1  0.73654377  0.46447341  0.11056756  1  0.110105  0  0.108699  0.113821  0  0.99224  0
H  H25  1  0.61071524  0.40197244  0.17366820  1  0.057932  0  0.107411  0.110021  0  0.988017  0
H  H26  1  0.61070485  0.20874006  0.21561305  1  0.055166  0  0.107444  0.110125  0  0.987852  0
H  H27  1  0.73653255  0.27205449  0.15290846  1  0.096396  0  0.108696  0.113786  0  0.992223  0
H  H28  1  0.39042777  0.29146015  0.28557505  1  0.102334  0  0.10722  0.109981  0  0.987187  0
H  H29  1  0.26464769  0.22812057  0.34871597  1  0.083639  0  0.109579  0.11569  0  0.991393  0
H  H30  1  0.26462421  0.03651385  0.38662466  1  0.119071  0  0.109608  0.115652  0  0.991454  0
H  H31  1  0.39040697  0.09893691  0.32397210  1  0.054953  0  0.107296  0.110102  0  0.987228  0
H  H32  1  0.26345952  0.61055668  0.96447829  1  0.110002  0  0.108644  0.113763  0  0.992242  0
H  H33  1  0.38928547  0.67366057  0.90196987  1  0.058274  0  0.107394  0.109988  0  0.988139  0
H  H34  1  0.38927277  0.71560323  0.70874345  1  0.054996  0  0.107452  0.110109  0  0.987989  0
H  H35  1  0.26344590  0.65290303  0.77206665  1  0.096538  0  0.108644  0.113692  0  0.992144  0
H  H36  1  0.60957498  0.78557651  0.79146494  1  0.102054  0  0.107272  0.110073  0  0.987227  0
H  H37  1  0.73535602  0.84872127  0.72811423  1  0.083649  0  0.109577  0.115682  0  0.991593  0
H  H38  1  0.73534541  0.88661401  0.53652369  1  0.119769  0  0.109568  0.115564  0  0.991532  0
H  H39  1  0.60956242  0.82396052  0.59894769  1  0.054762  0  0.107299  0.110144  0  0.987183  0
H  H40  1  0.91647989  0.84206107  0.74971350  1  0.499722  0  0.290241  0.300203  0  1.003914  0
H  H41  1  0.90934785  0.80302364  0.83113726  1  0.429403  0  0.293758  0.279417  0  0.973936  0
H  H42  1  0.09174951  0.66616451  0.75029373  1  0.47797  0  0.290324  0.300555  0  1.003501  0
H  H43  1  0.13415609  0.74047198  0.66887825  1  0.432048  0  0.293748  0.279468  0  0.974005  0
H  H44  1  0.90821885  0.65793423  0.92558567  1  0.476158  0  0.290209  0.300153  0  1.003965  0
H  H45  1  0.86583177  0.69696754  0.89367519  1  0.429687  0  0.293732  0.279375  0  0.974232  0
H  H46  1  0.08354968  0.83383043  0.57441360  1  0.48038  0  0.290253  0.300374  0  1.003778  0
H  H47  1  0.09065747  0.75952496  0.60632185  1  0.431385  0  0.293784  0.279476  0  0.973946  0
H  H48  1  0.91644768  0.07440895  0.33380188  1  0.481042  0  0.290185  0.300065  0  1.004131  0
H  H49  1  0.90933603  0.10632360  0.25949456  1  0.43063  0  0.29377  0.279475  0  0.974267  0
H  H50  1  0.09178210  0.42558108  0.15796862  1  0.476753  0  0.290091  0.29993  0  1.004115  0
H  H51  1  0.13416556  0.39366452  0.19701058  1  0.429398  0  0.293741  0.279554  0  0.973808  0
H  H52  1  0.90823926  0.25030429  0.16616435  1  0.477298  0  0.290286  0.300607  0  1.003385  0
H  H53  1  0.86584287  0.16887727  0.24045501  1  0.431972  0  0.293741  0.279423  0  0.973991  0
H  H54  1  0.08351935  0.24968425  0.34207478  1  0.497269  0  0.290237  0.300586  0  1.003512  0
H  H55  1  0.09064308  0.33110661  0.30305861  1  0.429835  0  0.293798  0.279481  0  0.973814  0
C  C56  1  0.18227446  0.09114052  0.40885600  1  1.55156  0  0.226431  0.603577  0  4.167836  0
C  C57  1  0.99998340  0.13937401  0.36060395  1  1.485986  0  0.222567  0.624386  0  4.113406  0
C  C58  1  0.99998726  0.90937383  0.40938348  1  1.506919  0  0.225465  0.605273  0  4.168582  0
C  C59  1  0.81771193  0.90884278  0.59114466  1  1.552179  0  0.226399  0.603645  0  4.16763  0
C  C60  1  0.00001853  0.86061701  0.63939149  1  1.486461  0  0.222744  0.624589  0  4.112614  0
C  C61  1  0.00000228  0.09061628  0.59062026  1  1.513701  0  0.225464  0.605131  0  4.16841  0
C  C62  1  0.00000012  0.59112569  0.09115530  1  1.525416  0  0.22642  0.603723  0  4.167579  0
C  C63  1  0.00001418  0.36061423  0.13939920  1  1.479122  0  0.222632  0.624573  0  4.113282  0
C  C64  1  0.81875669  0.40937440  0.09062488  1  1.512605  0  0.225571  0.605378  0  4.168322  0
C  C65  1  0.99999865  0.40885236  0.90886859  1  1.542487  0  0.226402  0.603523  0  4.167927  0
C  C66  1  0.99998047  0.63937475  0.86060972  1  1.48044  0  0.222573  0.62438  0  4.11263  0
C  C67  1  0.18124065  0.59062664  0.90938310  1  1.512726  0  0.225451  0.605198  0  4.168857  0
C  C68  1  0.00001842  0.80456978  0.69543881  1  0.016239  0  -0.041756  -0.254  0  3.951411  0
C  C69  1  0.99998406  0.69542650  0.80456124  1  -0.018609  0  -0.041796  -0.25415  0  3.951033  0
C  C70  1  0.95679627  0.77741094  0.76681579  1  0.441129  0  0.078487  0.175003  0  4.047986  0
C  C71  1  0.04422053  0.72360229  0.73317855  1  0.487061  0  0.078418  0.174953  0  4.048074  0
C  C72  1  0.95577023  0.72259556  0.82061423  1  0.398032  0  0.078419  0.174832  0  4.047833  0
C  C73  1  0.04322628  0.77639784  0.67938346  1  0.395403  0  0.078389  0.17467  0  4.048104  0
C  C74  1  0.99999095  0.19542972  0.30455606  1  0.017572  0  -0.041684  -0.253834  0  3.951149  0
C  C75  1  0.00000984  0.30455859  0.19543938  1  -0.0163  0  -0.041765  -0.254196  0  3.951324  0
C  C76  1  0.95677958  0.17937631  0.27638009  1  0.398106  0  0.078268  0.1743  0  4.048113  0
C  C77  1  0.04423097  0.32061273  0.22260738  1  0.39927  0  0.078393  0.174702  0  4.047912  0
C  C78  1  0.95577887  0.23317707  0.22359619  1  0.483593  0  0.078539  0.175313  0  4.047598  0
C  C79  1  0.04321128  0.26680963  0.27740993  1  0.438662  0  0.078517  0.175316  0  4.047867  0
C  C80  1  0.00001086  0.62865026  0.12865580  1  -0.017804  0  -0.016814  -0.040734  0  3.97187  0
C  C81  1  0.95657038  0.65710527  0.13572890  1  0.03  0  -0.079381  -0.084763  0  3.984401  0
C  C82  1  0.95648136  0.69211394  0.17052603  1  -0.094582  0  -0.080508  -0.126047  0  3.945785  0
C  C83  1  0.00001023  0.69938532  0.19938314  1  0.092905  0  0.004705  0.144829  0  4.112876  0
C  C84  1  0.04353079  0.67052676  0.19212578  1  -0.094663  0  -0.080641  -0.126266  0  3.945591  0
C  C85  1  0.04344552  0.63572902  0.15711692  1  0.031031  0  -0.079206  -0.08436  0  3.984552  0
C  C86  1  0.00000042  0.73492715  0.23494880  1  -0.236928  0  -0.041259  -0.104682  0  4.115966  0
C  C87  1  0.99998547  0.76563359  0.26568492  1  -0.153988  0  -0.041025  -0.104993  0  4.114234  0
C  C88  1  0.99997960  0.80118506  0.30123762  1  0.148345  0  0.005497  0.1477  0  4.10909  0
C  C89  1  0.95729804  0.83110002  0.30741190  1  -0.024832  0  -0.081463  -0.127575  0  3.947524  0
C  C90  1  0.95757540  0.86610178  0.34220214  1  -0.030766  0  -0.07939  -0.083762  0  3.986288  0
C  C91  1  0.99998789  0.87190026  0.37191132  1  0.006346  0  -0.018766  -0.043692  0  3.974809  0
C  C92  1  0.04240141  0.84219051  0.36613685  1  -0.030396  0  -0.079415  -0.083712  0  3.985626  0
C  C93  1  0.04267177  0.80737936  0.33115587  1  -0.025529  0  -0.081145  -0.127025  0  3.946785  0
C  C94  1  0.99999659  0.37133539  0.87135684  1  -0.036017  0  -0.016716  -0.040244  0  3.971245  0
C  C95  1  0.04343541  0.40769789  0.79945905  1  0.063272  0  -0.079216  -0.084734  0  3.984198  0
C  C96  1  0.04353360  0.37299228  0.76436168  1  -0.081953  0  -0.080731  -0.126182  0  3.946183  0
C  C97  1  0.00000275  0.30061156  0.80061654  1  0.09091  0  0.004747  0.144643  0  4.113208  0
C  C98  1  0.95647824  0.26435153  0.87299252  1  -0.08131  0  -0.080678  -0.126232  0  3.946133  0
C  C99  1  0.95656094  0.29944216  0.90770786  1  0.062662  0  -0.079282  -0.084754  0  3.984618  0
C  C100  1  0.00000058  0.26505984  0.76505589  1  -0.237321  0  -0.041176  -0.104289  0  4.116205  0
C  C101  1  0.00000154  0.23433581  0.73434116  1  -0.156419  0  -0.041258  -0.105561  0  4.114784  0
C  C102  1  0.99999663  0.19878763  0.69878724  1  0.136509  0  0.005654  0.148062  0  4.109115  0
C  C103  1  0.04267474  0.23528984  0.62619185  1  -0.073328  0  -0.08141  -0.127372  0  3.947536  0
C  C104  1  0.04241321  0.20021612  0.59147544  1  -0.013404  0  -0.079364  -0.083696  0  3.985772  0
C  C105  1  0.00000164  0.12808986  0.62809829  1  0.047323  0  -0.018702  -0.043729  0  3.97424  0
C  C106  1  0.95758718  0.09146740  0.70022262  1  -0.014217  0  -0.079342  -0.083541  0  3.98533  0
C  C107  1  0.95732210  0.12619034  0.73529164  1  -0.072578  0  -0.081386  -0.12744  0  3.947465  0
C  C108  1  0.74380885  0.37190136  0.12809993  1  -0.002723  0  -0.018751  -0.043797  0  3.97454  0
C  C109  1  0.70831180  0.40852678  0.13388637  1  -0.029466  0  -0.079464  -0.083882  0  3.985778  0
C  C110  1  0.63852235  0.37381389  0.16886376  1  -0.033537  0  -0.081298  -0.127061  0  3.947274  0
C  C111  1  0.60242535  0.30121271  0.19877983  1  0.147828  0  0.005651  0.147793  0  4.109083  0
C  C112  1  0.63851640  0.26470910  0.19260424  1  0.057721  0  -0.081435  -0.127374  0  3.947212  0
C  C113  1  0.70830966  0.29977979  0.15780592  1  -0.104765  0  -0.07933  -0.083604  0  3.985638  0
C  C114  1  0.53131666  0.26565738  0.23432712  1  -0.094081  0  -0.041132  -0.10522  0  4.114289  0
C  C115  1  0.46987391  0.23493650  0.26504248  1  -0.314542  0  -0.041279  -0.104722  0  4.115841  0
C  C116  1  0.39875881  0.19937531  0.30060408  1  0.105716  0  0.004735  0.145012  0  4.1126  0
C  C117  1  0.36263899  0.23563073  0.30787266  1  -0.110037  0  -0.080505  -0.126068  0  3.945909  0
C  C118  1  0.29283347  0.20053585  0.34288767  1  0.051929  0  -0.079241  -0.084697  0  3.984354  0
C  C119  1  0.25729952  0.12864694  0.37133685  1  -0.037267  0  -0.016767  -0.04033  0  3.971433  0
C  C120  1  0.29283241  0.09228666  0.36425691  1  -0.110426  0  -0.079543  -0.085034  0  3.98461  0
C  C121  1  0.36263648  0.12699175  0.32946021  1  0.060792  0  -0.080445  -0.125965  0  3.945803  0
C  C122  1  0.25618388  0.62809456  0.87190811  1  -0.002092  0  -0.018802  -0.043842  0  3.974803  0
C  C123  1  0.29168174  0.63388243  0.90853339  1  -0.029177  0  -0.07936  -0.083675  0  3.98587  0
C  C124  1  0.36147284  0.66886111  0.87381343  1  -0.033589  0  -0.081276  -0.127133  0  3.947155  0
C  C125  1  0.39757237  0.69877460  0.80121036  1  0.147515  0  0.005629  0.147869  0  4.108659  0
C  C126  1  0.36146548  0.69260500  0.76470932  1  0.057753  0  -0.081291  -0.12727  0  3.947123  0
C  C127  1  0.29167380  0.65780214  0.79978570  1  -0.104943  0  -0.079449  -0.083686  0  3.985441  0
C  C128  1  0.46867691  0.73431953  0.76565836  1  -0.094432  0  -0.041163  -0.105353  0  4.114619  0
C  C129  1  0.53011849  0.76504079  0.73493817  1  -0.314637  0  -0.041097  -0.104375  0  4.116159  0
C  C130  1  0.60122638  0.80059322  0.69938261  1  0.10598  0  0.004709  0.145026  0  4.112695  0
C  C131  1  0.63735436  0.80787141  0.73563810  1  -0.109456  0  -0.08061  -0.126362  0  3.94594  0
C  C132  1  0.70716068  0.84289034  0.70053986  1  0.051704  0  -0.079307  -0.084568  0  3.984419  0
C  C133  1  0.74268720  0.87133405  0.62864993  1  -0.037339  0  -0.016884  -0.04086  0  3.971789  0
C  C134  1  0.70714890  0.86424493  0.59229143  1  -0.110394  0  -0.079053  -0.084083  0  3.984295  0
C  C135  1  0.63734361  0.82944726  0.62699696  1  0.060112  0  -0.080736  -0.126527  0  3.945691  0
N  N136  1  0.91200047  0.80001367  0.78903459  1  -1.25148  0  -0.614247  -0.620046  0  3.334187  0
N  N137  1  0.08903802  0.70101918  0.71096476  1  -1.231909  0  -0.614296  -0.620399  0  3.334062  0
N  N138  1  0.91094365  0.69998303  0.88801698  1  -1.249484  0  -0.614178  -0.619937  0  3.33441  0
N  N139  1  0.08802180  0.79897879  0.61198200  1  -1.232779  0  -0.61431  -0.620214  0  3.334036  0
N  N140  1  0.91197432  0.11197907  0.29895261  1  -1.232832  0  -0.614307  -0.619945  0  3.334524  0
N  N141  1  0.08905583  0.38800921  0.20001579  1  -1.249455  0  -0.614167  -0.619939  0  3.334062  0
N  N142  1  0.91095870  0.21097184  0.20100524  1  -1.23081  0  -0.614332  -0.620536  0  3.333841  0
N  N143  1  0.08800285  0.28901653  0.30002945  1  -1.249258  0  -0.614276  -0.620617  0  3.333937  0
O  O144  1  0.99998842  0.99999388  0.50000105  1  -1.23441  0  -0.574536  -1.022813  0  2.563219  0
O  O145  1  0.15309210  0.02635059  0.43081068  1  -1.170526  0  -0.317192  -0.549435  0  2.336672  0
O  O146  1  0.04354850  0.15555600  0.38079359  1  -1.179375  0  -0.316282  -0.552186  0  2.376079  0
O  O147  1  0.96288434  0.93841999  0.40944471  1  -1.168473  0  -0.317993  -0.551939  0  2.337935  0
O  O148  1  0.15310358  0.12675717  0.41608657  1  -1.168596  0  -0.317055  -0.549419  0  2.336502  0
O  O149  1  0.03708374  0.90945038  0.43844143  1  -1.168423  0  -0.318084  -0.552084  0  2.337935  0
O  O150  1  0.95640761  0.07562536  0.38797813  1  -1.185599  0  -0.316165  -0.551772  0  2.376235  0
O  O151  1  0.84688670  0.93080852  0.52635082  1  -1.170453  0  -0.317124  -0.5494  0  2.33607  0
O  O152  1  0.95644471  0.88078916  0.65558041  1  -1.178917  0  -0.316369  -0.552129  0  2.375571  0
O  O153  1  0.84688722  0.91605967  0.62676438  1  -1.168654  0  -0.317048  -0.549443  0  2.336551  0
O  O154  1  0.04359769  0.88800723  0.57564539  1  -1.185365  0  -0.316197  -0.551902  0  2.375753  0
O  O155  1  0.03710961  0.12765188  0.52446811  1  -1.172961  0  -0.318041  -0.551988  0  2.337526  0
O  O156  1  0.96289533  0.02446493  0.62765402  1  -1.173035  0  -0.31802  -0.551989  0  2.337884  0
O  O157  1  0.00000173  0.49999885  0.00000775  1  -1.233624  0  -0.574555  -1.02276  0  2.563159  0
O  O158  1  0.95716296  0.58390512  0.06919725  1  -1.165514  0  -0.316978  -0.549263  0  2.336433  0
O  O159  1  0.03639322  0.42436349  0.11922195  1  -1.179223  0  -0.316115  -0.551769  0  2.376111  0
O  O160  1  0.84787284  0.37234116  0.09055494  1  -1.170143  0  -0.318054  -0.552061  0  2.337822  0
O  O161  1  0.04283682  0.56916808  0.08394686  1  -1.165496  0  -0.3172  -0.549587  0  2.336279  0
O  O162  1  0.84787865  0.47552581  0.06156784  1  -1.163437  0  -0.318064  -0.552018  0  2.337762  0
O  O163  1  0.96363788  0.34443411  0.11201867  1  -1.181296  0  -0.316282  -0.552244  0  2.375815  0
O  O164  1  0.95715782  0.37323415  0.97365944  1  -1.173754  0  -0.317076  -0.549442  0  2.336477  0
O  O165  1  0.03633958  0.61198609  0.84442110  1  -1.18153  0  -0.316246  -0.551968  0  2.375598  0
O  O166  1  0.04283285  0.47364479  0.87325097  1  -1.173612  0  -0.317067  -0.549335  0  2.336558  0
O  O167  1  0.96361553  0.61920161  0.92435796  1  -1.179098  0  -0.316172  -0.551803  0  2.375833  0
O  O168  1  0.15212470  0.56157281  0.97553543  1  -1.163599  0  -0.31803  -0.552005  0  2.337848  0
O  O169  1  0.15210816  0.59055146  0.87236222  1  -1.170933  0  -0.318091  -0.552021  0  2.338023  0
