# generated using pymatgen
data_MnH28C32S3(NO3)2
_symmetry_space_group_name_H-M   'P 1'
_cell_length_a   9.15581117
_cell_length_b   9.97647038
_cell_length_c   16.82208002
_cell_angle_alpha   95.04731349
_cell_angle_beta   91.60910284
_cell_angle_gamma   96.78286419
_symmetry_Int_Tables_number   1
_chemical_formula_structural   MnH28C32S3(NO3)2
_chemical_formula_sum   'Mn2 H56 C64 S6 N4 O12'
_cell_volume   1518.75264204
_cell_formula_units_Z   2
loop_
 _symmetry_equiv_pos_site_id
 _symmetry_equiv_pos_as_xyz
  1  'x, y, z'
loop_
 _atom_site_type_symbol
 _atom_site_label
 _atom_site_symmetry_multiplicity
 _atom_site_fract_x
 _atom_site_fract_y
 _atom_site_fract_z
 _atom_site_occupancy
 _atom_site_hle17_ddec_charge
 _atom_site_hle17_ddec_spin_density
 _atom_site_hle17_ddec_sum_bond_order
 _atom_site_hle17_magmom
 _atom_site_hse06_10hf_ddec_charge
 _atom_site_hse06_10hf_ddec_spin_density
 _atom_site_hse06_10hf_ddec_sum_bond_order
 _atom_site_hse06_10hf_magmom
 _atom_site_hse06_ddec_charge
 _atom_site_hse06_ddec_spin_density
 _atom_site_hse06_ddec_sum_bond_order
 _atom_site_hse06_magmom
 _atom_site_pbe_cm5_charge
 _atom_site_pbe_ddec_charge
 _atom_site_pbe_ddec_spin_density
 _atom_site_pbe_ddec_sum_bond_order
 _atom_site_pbe_magmom
Mn  Mn0  1  0.90854912  0.79559373  0.53317773  1  1.2156  4.792091  1.747342  4.674  1.067923  4.711082  2.248396  4.529  1.126212  4.760178  2.173289  4.598  0.602322  1.023982  4.655663  2.30342  4.454
Mn  Mn1  1  0.09144526  0.20440340  0.46682122  1  1.215573  4.792088  1.747398  4.674  1.067885  4.711074  2.24846  4.529  1.126171  4.76018  2.17335  4.598  0.602303  1.023944  4.655656  2.303486  4.454
H  H2  1  0.57977286  0.17703826  0.31671204  1  0.119621  -6e-05  0.92763  0.0  0.133367  7.4e-05  0.980809  0.0  0.136575  2.4e-05  0.978691  0.0  0.114486  0.131126  8.3e-05  0.982091  0.0
H  H3  1  0.42022836  0.82296086  0.68328769  1  0.119629  -5.4e-05  0.927644  0.0  0.133374  7.4e-05  0.980821  0.0  0.136582  2.4e-05  0.978704  0.0  0.114476  0.131132  8.3e-05  0.982104  0.0
H  H4  1  0.65830953  0.18137057  0.16653533  1  0.110595  -2e-06  0.972322  0.0  0.120806  2.5e-05  1.034844  0.0  0.122663  9e-06  1.035969  0.0  0.102397  0.119609  4.7e-05  1.033987  0.0
H  H5  1  0.34168950  0.81862856  0.83346438  1  0.110541  -8e-06  0.97234  0.0  0.120759  2.5e-05  1.03486  0.0  0.122616  9e-06  1.035985  0.0  0.102372  0.119562  4.7e-05  1.034003  0.0
H  H6  1  0.11716479  0.93697149  0.88207869  1  0.103835  7e-05  0.97142  0.0  0.112952  1.6e-05  1.036013  0.0  0.115851  7e-06  1.034913  0.0  0.097038  0.11092  1.1e-05  1.036643  0.0
H  H7  1  0.88283726  0.06302559  0.11792273  1  0.103846  7.9e-05  0.97146  0.0  0.112963  1.6e-05  1.03605  0.0  0.115861  7e-06  1.034951  0.0  0.09705  0.110931  1.1e-05  1.036681  0.0
H  H8  1  0.98614715  0.89011761  0.73831629  1  0.118198  -0.000599  0.97618  0.0  0.124186  -0.000409  1.044472  0.0  0.127581  -0.00046  1.041957  0.0  0.105869  0.121481  -0.000346  1.046456  0.0
H  H9  1  0.01385654  0.10988353  0.26168418  1  0.118212  -0.000602  0.976088  0.0  0.124233  -0.00041  1.044355  0.0  0.127631  -0.00046  1.041838  0.0  0.105879  0.121525  -0.000346  1.046341  0.0
H  H10  1  0.80921440  0.16454818  0.99248231  1  0.080785  -1.1e-05  0.976955  0.0  0.0867  5e-06  1.047792  0.0  0.089551  1e-06  1.046655  0.0  0.089594  0.085482  1.5e-05  1.047327  0.0
H  H11  1  0.19078849  0.83545498  0.00752123  1  0.080782  -1e-05  0.976888  0.0  0.086703  5e-06  1.047724  0.0  0.089556  1e-06  1.046585  0.0  0.089583  0.085485  1.5e-05  1.047259  0.0
H  H12  1  0.04779981  0.28565086  0.04937140  1  0.065098  -1.7e-05  1.003421  0.0  0.068008  4e-06  1.0805  0.0  0.070648  0.0  1.079832  0.0  0.081086  0.065541  1e-05  1.081631  0.0
H  H13  1  0.95220213  0.71435332  0.95063160  1  0.065151  0.0  1.003455  0.0  0.068054  5e-06  1.080519  0.0  0.070694  0.0  1.079851  0.0  0.081108  0.065588  1.1e-05  1.081652  0.0
H  H14  1  0.05934893  0.52051654  0.11452390  1  0.088704  -1.4e-05  0.962895  0.0  0.099894  -0.0  1.02179  0.0  0.101832  1e-06  1.022566  0.0  0.096987  0.098443  -0.0  1.02139  0.0
H  H15  1  0.94064875  0.47948868  0.88547672  1  0.088677  3e-06  0.962914  0.0  0.099857  -0.0  1.021816  0.0  0.101796  0.0  1.022592  0.0  0.09697  0.098407  -0.0  1.021416  0.0
H  H16  1  0.83211136  0.63524296  0.12139774  1  0.080611  -6e-06  0.971531  0.0  0.086542  -9e-06  1.039563  0.0  0.088913  -1e-05  1.039333  0.0  0.092031  0.085458  -0.0  1.039094  0.0
H  H17  1  0.16788536  0.36476328  0.87860233  1  0.080671  -2e-06  0.971566  0.0  0.086602  -8e-06  1.039586  0.0  0.088969  -1e-05  1.039366  0.0  0.092062  0.085518  -0.0  1.039117  0.0
H  H18  1  0.59402986  0.51331006  0.06555960  1  0.085061  -1.4e-05  0.97732  0.0  0.092813  1.2e-05  1.048098  0.0  0.094939  8e-06  1.048124  0.0  0.092417  0.091894  2.1e-05  1.046937  0.0
H  H19  1  0.40597039  0.48669009  0.93443959  1  0.085029  -4e-06  0.977378  0.0  0.092823  1.2e-05  1.048101  0.0  0.094949  8e-06  1.048127  0.0  0.092411  0.091903  2.2e-05  1.04694  0.0
H  H20  1  0.63902284  0.03163677  0.83152580  1  0.080281  0.0  1.004785  0.0  0.086104  1.3e-05  1.078597  0.0  0.087437  1e-05  1.080388  0.0  0.087609  0.084538  1.6e-05  1.078738  0.0
H  H21  1  0.36097183  0.96836238  0.16847386  1  0.08024  4e-06  1.00482  0.0  0.086063  1.3e-05  1.078646  0.0  0.087396  1e-05  1.080437  0.0  0.087598  0.084496  1.7e-05  1.078786  0.0
H  H22  1  0.81847063  0.06898945  0.72506727  1  0.093813  -0.000177  0.965419  0.0  0.102317  -0.000199  1.029554  0.0  0.10424  -0.000222  1.030061  0.0  0.09876  0.101212  -0.000156  1.028924  0.0
H  H23  1  0.18152951  0.93100967  0.27493424  1  0.093845  -0.000186  0.965408  0.0  0.102345  -0.000199  1.029545  0.0  0.104268  -0.000222  1.030051  0.0  0.098774  0.10124  -0.000156  1.028915  0.0
H  H24  1  0.88380074  0.30030245  0.68280944  1  0.086825  -0.00011  0.946348  0.0  0.100062  -0.000132  1.003405  0.0  0.102466  -0.000151  1.002663  0.0  0.100087  0.098427  -9.2e-05  1.00361  0.0
H  H25  1  0.11620626  0.69969866  0.31719523  1  0.086814  -0.000124  0.94639  0.0  0.10005  -0.000132  1.003444  0.0  0.102453  -0.000151  1.002704  0.0  0.100075  0.098416  -9.3e-05  1.003648  0.0
H  H26  1  0.76379143  0.49328203  0.74502095  1  0.07908  -4.1e-05  0.989504  0.0  0.084638  -1.3e-05  1.060342  0.0  0.087639  -4.1e-05  1.05899  0.0  0.090245  0.082106  2.6e-05  1.062484  0.0
H  H27  1  0.23621213  0.50671809  0.25498065  1  0.079016  -4.3e-05  0.989505  0.0  0.084551  -1.3e-05  1.060373  0.0  0.087554  -4.1e-05  1.05902  0.0  0.090206  0.082019  2.6e-05  1.062513  0.0
H  H28  1  0.58596728  0.45647422  0.85133912  1  0.083031  -1.6e-05  0.977084  0.0  0.091434  3e-06  1.046607  0.0  0.094016  2e-06  1.045873  0.0  0.091298  0.088796  1e-05  1.048632  0.0
H  H29  1  0.41403422  0.54352693  0.14866132  1  0.083015  -1.7e-05  0.977082  0.0  0.09144  3e-06  1.046585  0.0  0.094021  2e-06  1.04585  0.0  0.091317  0.088802  1e-05  1.048611  0.0
H  H30  1  0.22040133  0.93988029  0.47616357  1  0.056018  -9e-05  0.968483  0.0  0.062092  0.000286  1.04242  0.0  0.063782  3.5e-05  1.037868  0.0  0.130639  0.060645  0.000551  1.046182  0.0
H  H31  1  0.77959471  0.06012089  0.52383622  1  0.056008  -9.2e-05  0.968458  0.0  0.062091  0.000287  1.042368  0.0  0.063779  3.5e-05  1.037823  0.0  0.13064  0.060653  0.000551  1.04611  0.0
H  H32  1  0.42618174  0.98269648  0.41912000  1  0.116625  -0.000277  0.965798  0.0  0.133574  -0.000289  1.03241  0.0  0.135019  -0.000307  1.032011  0.0  0.106876  0.132312  -0.000254  1.032878  0.0
H  H33  1  0.57381634  0.01730367  0.58088035  1  0.116619  -0.000269  0.965828  0.0  0.133568  -0.000289  1.032439  0.0  0.135014  -0.000307  1.032038  0.0  0.106861  0.132307  -0.000254  1.032908  0.0
H  H34  1  0.47056624  0.84026829  0.35687479  1  0.08307  0.00015  0.984105  0.0  0.097947  0.000294  1.058879  0.0  0.097809  0.000217  1.060982  0.0  0.089438  0.097995  0.000405  1.057384  0.0
H  H35  1  0.52943198  0.15973287  0.64312621  1  0.083037  0.000147  0.984115  0.0  0.097913  0.000294  1.058901  0.0  0.097776  0.000218  1.061004  0.0  0.089414  0.097962  0.000404  1.057406  0.0
H  H36  1  0.57127554  0.88791344  0.44917166  1  0.115337  -0.000331  0.952383  0.0  0.131705  -0.000247  1.019847  0.0  0.132817  -0.000322  1.019312  0.0  0.104412  0.130584  -0.00019  1.020662  0.0
H  H37  1  0.42872269  0.11208772  0.55082934  1  0.115298  -0.000317  0.952389  0.0  0.131698  -0.000246  1.019822  0.0  0.132811  -0.000322  1.019287  0.0  0.104391  0.130578  -0.000189  1.020635  0.0
H  H38  1  0.30370965  0.59808285  0.49534217  1  0.116776  -0.000413  0.980682  0.0  0.132325  -0.000392  1.047111  0.0  0.134107  -0.000459  1.046117  0.0  0.107827  0.131098  -0.000349  1.047587  0.0
H  H39  1  0.69628937  0.40191629  0.50465635  1  0.116787  -0.000403  0.980677  0.0  0.132334  -0.000393  1.047105  0.0  0.134116  -0.000458  1.04611  0.0  0.107841  0.131107  -0.000349  1.047582  0.0
H  H40  1  0.49738985  0.65713418  0.49492895  1  0.114674  -0.000151  0.938945  0.0  0.134832  -8.1e-05  0.99962  0.0  0.13589  -0.000141  0.999099  0.0  0.108558  0.133835  -3.4e-05  1.000424  0.0
H  H41  1  0.50260754  0.34286902  0.50507036  1  0.114688  -0.000135  0.938932  0.0  0.134837  -8.1e-05  0.999614  0.0  0.135894  -0.000141  0.999097  0.0  0.108563  0.133841  -3.5e-05  1.000414  0.0
H  H42  1  0.39376658  0.60401819  0.40315463  1  0.093457  5.7e-05  0.938926  0.0  0.117409  0.00013  0.998688  0.0  0.116924  9.5e-05  1.000045  0.0  0.102423  0.117775  0.000211  0.997634  0.0
H  H43  1  0.60623395  0.39598398  0.59684467  1  0.093426  7.5e-05  0.938968  0.0  0.117396  0.00013  0.998708  0.0  0.116912  9.6e-05  1.000064  0.0  0.102404  0.117763  0.00021  0.997655  0.0
H  H44  1  0.00987673  0.50499815  0.42000318  1  0.053072  -0.000427  0.930828  0.0  0.060294  0.000118  1.003231  0.0  0.062392  -0.000126  0.99788  0.0  0.13052  0.058719  0.000388  1.006974  0.0
H  H45  1  0.99012324  0.49499998  0.57999411  1  0.052944  -0.000422  0.930944  0.0  0.060235  0.000118  1.003262  0.0  0.062331  -0.000126  0.997915  0.0  0.130498  0.058662  0.000388  1.007006  0.0
H  H46  1  0.58684661  0.44067494  0.36456184  1  0.096176  0.000253  0.945253  0.0  0.118143  0.000481  1.0073  0.0  0.117676  0.000346  1.008797  0.0  0.102208  0.11815  0.000573  1.00657  0.001
H  H47  1  0.41315569  0.55932419  0.63543672  1  0.096134  0.00025  0.945219  0.0  0.118112  0.000482  1.007269  0.0  0.117644  0.000346  1.008767  0.0  0.102189  0.118119  0.000573  1.006538  0.001
H  H48  1  0.64083673  0.52653914  0.27964802  1  0.09561  0.000101  0.944263  0.0  0.11474  0.000149  1.011255  0.0  0.114823  0.000117  1.012138  0.0  0.100717  0.114622  0.000179  1.010645  0.0
H  H49  1  0.35916311  0.47345797  0.72034981  1  0.095604  8.9e-05  0.944285  0.0  0.114739  0.000149  1.011274  0.0  0.114822  0.000117  1.012157  0.0  0.100732  0.114621  0.000179  1.010663  0.0
H  H50  1  0.65724528  0.61673304  0.37722724  1  0.112193  -0.000307  0.959706  0.0  0.126223  -0.00031  1.032217  0.0  0.127994  -0.000352  1.030714  0.0  0.109344  0.124739  -0.000258  1.033446  0.0
H  H51  1  0.34275469  0.38326508  0.62277124  1  0.112213  -0.000316  0.959598  0.0  0.126233  -0.000309  1.032142  0.0  0.128006  -0.000352  1.030635  0.0  0.109331  0.124749  -0.000257  1.033372  0.0
H  H52  1  0.98905130  0.39104540  0.30381776  1  0.121082  -0.00031  0.968381  0.0  0.137303  -0.000223  1.035142  0.0  0.139228  -0.000272  1.033528  0.0  0.108806  0.135712  -0.000166  1.03659  0.0
H  H53  1  0.01094975  0.60895273  0.69617836  1  0.121174  -0.00029  0.968308  0.0  0.137392  -0.000224  1.035045  0.0  0.139322  -0.000272  1.033423  0.0  0.108816  0.135798  -0.000167  1.036497  0.0
H  H54  1  0.85482977  0.43098743  0.23242739  1  0.094416  0.000225  0.974701  0.0  0.112648  0.000355  1.040902  0.0  0.11277  0.000276  1.042694  0.0  0.096155  0.1125  0.000442  1.039567  0.0
H  H55  1  0.14516924  0.56901172  0.76756995  1  0.094436  0.00025  0.974745  0.0  0.112663  0.000355  1.04094  0.0  0.112785  0.000276  1.042731  0.0  0.096162  0.112509  0.000442  1.03961  0.0
H  H56  1  0.81418875  0.29335220  0.29242525  1  0.096415  0.00016  0.942543  0.0  0.118061  0.000371  1.0045  0.0  0.117769  0.000261  1.005699  0.0  0.099836  0.118281  0.000508  1.00362  0.001
H  H57  1  0.18580999  0.70664492  0.70757197  1  0.096437  0.000191  0.942515  0.0  0.118068  0.00037  1.004481  0.0  0.117776  0.000261  1.005679  0.0  0.099853  0.118288  0.000508  1.003599  0.001
C  C58  1  0.28145791  0.22772807  0.35170707  1  0.627147  0.003247  3.994675  0.002  0.580756  0.006584  4.2851  0.004  0.615151  0.005299  4.278721  0.003  0.193358  0.556867  0.007869  4.288962  0.005
C  C59  1  0.71854331  0.77227105  0.64829267  1  0.627217  0.003252  3.994649  0.002  0.580815  0.006584  4.285065  0.004  0.615212  0.0053  4.278685  0.003  0.193369  0.556925  0.007869  4.28893  0.005
C  C60  1  0.36487979  0.22248488  0.27792454  1  -0.142556  -0.002197  3.728074  -0.002  -0.126048  -0.001671  3.99408  -0.001  -0.132042  -0.001903  4.011896  -0.001  -0.025963  -0.122906  -0.001007  3.98417  -0.001
C  C61  1  0.63512252  0.77751424  0.72207581  1  -0.142642  -0.00216  3.728131  -0.001  -0.126072  -0.001671  3.994054  -0.001  -0.132069  -0.001897  4.011874  -0.001  -0.025954  -0.122928  -0.00101  3.984141  -0.001
C  C62  1  0.50903172  0.19812427  0.26736495  1  -0.076094  0.001309  3.761343  0.001  -0.105602  0.001864  4.024845  0.002  -0.102549  0.001511  4.040589  0.001  -0.092786  -0.106673  0.002288  4.013446  0.002
C  C63  1  0.49096827  0.80187384  0.73263472  1  -0.076125  0.001265  3.761369  0.001  -0.105646  0.001864  4.024867  0.002  -0.102593  0.001506  4.040611  0.001  -0.092789  -0.106715  0.002291  4.013465  0.002
C  C64  1  0.55092892  0.20108412  0.18733729  1  -0.123894  -0.000228  3.743452  0.0  -0.148732  -4.1e-05  4.004405  0.0  -0.151615  -0.000204  4.024208  0.0  -0.103  -0.146732  0.000255  3.990687  0.0
C  C65  1  0.44907271  0.79891804  0.81266202  1  -0.123879  -0.000158  3.743494  0.0  -0.148734  -4.3e-05  4.004466  0.0  -0.151617  -0.000199  4.024271  0.0  -0.103014  -0.146734  0.000254  3.990747  0.0
C  C66  1  0.43661305  0.22361643  0.13589527  1  -0.01874  0.001014  3.806552  0.001  -0.00722  0.001558  4.073451  0.001  -0.005586  0.001206  4.09472  0.001  -0.019778  -0.00814  0.001842  4.060598  0.001
C  C67  1  0.56338776  0.77637965  0.86410489  1  -0.018647  0.000971  3.80644  0.001  -0.007132  0.001559  4.07336  0.001  -0.005498  0.001202  4.094627  0.001  -0.019708  -0.008053  0.001843  4.060507  0.001
C  C68  1  0.43198599  0.21583965  0.04950184  1  -0.058863  0.001516  3.793874  0.001  -0.056417  0.001379  4.068189  0.001  -0.055723  0.001175  4.089058  0.001  -0.019695  -0.058243  0.002342  4.055455  0.002
C  C69  1  0.56801291  0.78415846  0.95049841  1  -0.05884  0.001515  3.793899  0.001  -0.056384  0.001378  4.068227  0.001  -0.05569  0.001176  4.089096  0.001  -0.019709  -0.058209  0.00234  4.055493  0.002
C  C70  1  0.54145935  0.25570127  0.99759229  1  -0.018176  -0.000613  3.750509  0.0  -0.019111  0.000112  3.999099  0.0  -0.019258  -0.000211  4.02102  0.0  -0.015307  -0.019971  0.000168  3.985005  0.0
C  C71  1  0.45854078  0.74429786  0.00240803  1  -0.018234  -0.000609  3.750494  0.0  -0.019217  0.000112  3.999094  0.0  -0.019366  -0.000211  4.021008  0.0  -0.015338  -0.020073  0.00017  3.985004  0.0
C  C72  1  0.49889708  0.21668512  0.91535722  1  -0.021696  0.001918  3.73387  0.002  -0.023297  0.001687  3.984407  0.001  -0.022316  0.001488  4.005164  0.001  -0.015105  -0.022847  0.002656  3.969282  0.002
C  C73  1  0.50110319  0.78331502  0.08464375  1  -0.021812  0.001906  3.733983  0.002  -0.023301  0.001688  3.984356  0.001  -0.022312  0.001489  4.005101  0.001  -0.015091  -0.022867  0.002657  3.969248  0.002
C  C74  1  0.35603559  0.14925790  0.90580251  1  -0.056556  -0.00174  3.781097  -0.001  -0.052383  -0.000693  4.053335  -0.001  -0.052376  -0.00112  4.074527  -0.001  -0.018111  -0.052101  -0.000566  4.037776  -0.001
C  C75  1  0.64396605  0.85074426  0.09419859  1  -0.056524  -0.001709  3.781029  -0.001  -0.052394  -0.000695  4.053266  -0.001  -0.052391  -0.00112  4.074459  -0.001  -0.018123  -0.052106  -0.000564  4.037707  -0.001
C  C76  1  0.26667785  0.09617363  0.83540206  1  -0.011665  0.004987  3.80572  0.004  -0.002039  0.005521  4.073537  0.005  0.000485  0.004558  4.095021  0.004  -0.018864  -0.003857  0.008172  4.058676  0.007
C  C77  1  0.73332379  0.90382853  0.16459904  1  -0.011564  0.005011  3.805669  0.004  -0.001944  0.005522  4.073505  0.005  0.000579  0.004562  4.094992  0.004  -0.018835  -0.003765  0.008176  4.058644  0.007
C  C78  1  0.14860748  0.99321215  0.83137429  1  -0.148282  -0.003683  3.771215  -0.003  -0.169333  -0.002001  4.029347  -0.002  -0.173039  -0.002619  4.047348  -0.002  -0.114327  -0.166171  -0.002081  4.016605  -0.002
C  C79  1  0.85139292  0.00678901  0.16862614  1  -0.14828  -0.003748  3.771241  -0.003  -0.169336  -0.002001  4.0294  -0.002  -0.173041  -0.002623  4.047401  -0.002  -0.114308  -0.166172  -0.002085  4.016659  -0.002
C  C80  1  0.07830795  0.96777835  0.75524970  1  -0.069496  0.005631  3.773747  0.005  -0.099941  0.006322  4.035429  0.005  -0.096256  0.005142  4.052231  0.004  -0.097175  -0.102678  0.008539  4.023867  0.007
C  C81  1  0.92169436  0.03222077  0.24475065  1  -0.069503  0.005667  3.773692  0.005  -0.099986  0.006322  4.035366  0.005  -0.096303  0.005146  4.052168  0.004  -0.097208  -0.102722  0.008542  4.023802  0.007
C  C82  1  0.14076994  0.05196259  0.70087941  1  -0.164238  -0.004687  3.735693  -0.003  -0.145913  -0.003445  4.002498  -0.002  -0.154803  -0.00429  4.022001  -0.002  -0.030805  -0.141075  -0.003122  3.99067  -0.002
C  C83  1  0.85922923  0.94803755  0.29912036  1  -0.164284  -0.004728  3.735912  -0.003  -0.145934  -0.003444  4.002684  -0.002  -0.154824  -0.004298  4.022189  -0.002  -0.030784  -0.141089  -0.003127  3.99085  -0.002
C  C84  1  0.08981128  0.06071847  0.61797174  1  0.670301  0.013485  3.944278  0.014  0.61928  0.022222  4.235597  0.02  0.657054  0.016609  4.226438  0.016  0.21386  0.592147  0.02879  4.241895  0.025
C  C85  1  0.91018693  0.93928270  0.38202747  1  0.670265  0.013477  3.944495  0.014  0.619244  0.022224  4.235805  0.02  0.657018  0.01661  4.226646  0.016  0.213849  0.592107  0.028793  4.242104  0.025
C  C86  1  0.68543650  0.32998441  0.02662927  1  0.062874  -2.3e-05  3.796427  0.0  0.084307  1.1e-05  4.022787  0.0  0.08315  1e-05  4.048232  0.0  -0.0102  0.085278  1.4e-05  4.00577  0.0
C  C87  1  0.31456254  0.67001471  0.97337163  1  0.063003  -6.3e-05  3.796294  0.0  0.084394  1.2e-05  4.02271  0.0  0.083237  1e-05  4.048159  0.0  -0.010183  0.085366  1.6e-05  4.005693  0.0
C  C88  1  0.81470993  0.26741514  0.02135078  1  -0.116414  2.5e-05  3.740872  0.0  -0.132469  2e-05  3.979325  0.0  -0.134943  -6e-06  4.000465  0.0  -0.094256  -0.131528  2.5e-05  3.964502  0.0
C  C89  1  0.18529173  0.73258701  0.97865269  1  -0.116388  6.9e-05  3.740682  0.0  -0.132412  2e-05  3.979103  0.0  -0.134888  -5e-06  4.000246  0.0  -0.094225  -0.131471  2.6e-05  3.964279  0.0
C  C90  1  0.94805560  0.33532034  0.05363171  1  -0.070821  8e-06  3.797254  0.0  -0.078616  3.8e-05  4.040284  0.0  -0.081069  2.3e-05  4.062155  0.0  -0.096668  -0.076432  3.4e-05  4.025496  0.0
C  C91  1  0.05194401  0.66468282  0.94637179  1  -0.070912  -6.6e-05  3.797434  0.0  -0.078721  3.8e-05  4.040476  0.0  -0.081174  2.3e-05  4.062346  0.0  -0.09667  -0.076538  3.2e-05  4.025689  0.0
C  C92  1  0.95473804  0.46710969  0.09022633  1  -0.064222  5.2e-05  3.767762  0.0  -0.075141  3.2e-05  4.004662  0.0  -0.076319  1.3e-05  4.025543  0.0  -0.089464  -0.073873  4e-05  3.990104  0.0
C  C93  1  0.04525951  0.53289451  0.90977482  1  -0.064204  5.7e-05  3.767873  0.0  -0.075095  3.3e-05  4.004728  0.0  -0.076272  1.3e-05  4.025607  0.0  -0.089522  -0.073827  4e-05  3.990171  0.0
C  C94  1  0.82733620  0.53149244  0.09399918  1  -0.07229  -6.3e-05  3.79066  0.0  -0.081658  1e-06  4.038257  0.0  -0.083136  2e-06  4.058348  0.0  -0.094693  -0.081209  3.6e-05  4.024044  0.0
C  C95  1  0.17266147  0.46851278  0.90600026  1  -0.072374  -0.00011  3.79075  0.0  -0.081753  1e-06  4.038383  0.0  -0.083231  2e-06  4.058472  0.0  -0.094703  -0.081306  3.6e-05  4.02417  0.0
C  C96  1  0.69356395  0.46320552  0.06260229  1  -0.119296  5.8e-05  3.737562  0.0  -0.141157  3.5e-05  3.985451  0.0  -0.143964  1e-05  4.007753  0.0  -0.09507  -0.138201  4.8e-05  3.968777  0.0
C  C97  1  0.30643632  0.53679462  0.93739868  1  -0.119305  7.3e-05  3.737568  0.0  -0.141182  3.5e-05  3.985445  0.0  -0.143988  1e-05  4.007743  0.0  -0.095071  -0.138229  4.7e-05  3.968784  0.0
C  C98  1  0.60014994  0.24094716  0.84907397  1  0.053992  -0.000275  3.800938  0.0  0.074245  -3.1e-05  4.032105  0.0  0.07325  -6.5e-05  4.056358  0.0  -0.015201  0.074607  -1.8e-05  4.01485  0.0
C  C99  1  0.39984815  0.75905299  0.15092697  1  0.053985  -0.000213  3.801092  0.0  0.074273  -3e-05  4.032151  0.0  0.073275  -6.3e-05  4.056403  0.0  -0.015192  0.074638  -1.7e-05  4.014898  0.0
C  C100  1  0.66682744  0.13281713  0.81256590  1  -0.117202  0.000206  3.741152  0.0  -0.137073  8e-05  3.985462  0.0  -0.139802  8.5e-05  4.008019  0.0  -0.094837  -0.134769  0.000159  3.970035  0.0
C  C101  1  0.33317160  0.86718200  0.18743500  1  -0.117075  0.000122  3.741151  0.0  -0.136971  8e-05  3.985458  0.0  -0.139701  8.3e-05  4.008017  0.0  -0.094793  -0.134665  0.000156  3.970026  0.0
C  C102  1  0.76791083  0.15382483  0.75305510  1  -0.061651  -0.000214  3.760829  0.0  -0.070628  -1.2e-05  4.004528  0.0  -0.072656  -4.5e-05  4.026826  0.0  -0.091008  -0.068598  3.1e-05  3.98794  0.0
C  C103  1  0.23208823  0.84617429  0.24694699  1  -0.06173  -9.6e-05  3.760804  0.0  -0.070708  -1.3e-05  4.004521  0.0  -0.072737  -4.2e-05  4.026818  0.0  -0.091045  -0.068678  3.1e-05  3.987933  0.0
C  C104  1  0.80399990  0.28369196  0.72896392  1  -0.065503  0.00015  3.756308  0.0  -0.080308  5.2e-05  4.000373  0.0  -0.081612  3.4e-05  4.021037  0.0  -0.092107  -0.078724  8.9e-05  3.984902  0.0
C  C105  1  0.19600365  0.71630816  0.27103769  1  -0.065576  0.000105  3.756395  0.0  -0.080371  5.4e-05  4.000453  0.0  -0.081674  3.1e-05  4.021117  0.0  -0.092139  -0.078788  9.1e-05  3.984984  0.0
C  C106  1  0.73694059  0.39177283  0.76394629  1  -0.081305  -0.000171  3.806187  0.0  -0.089827  4.3e-05  4.0534  0.0  -0.091414  1.1e-05  4.07377  0.0  -0.097463  -0.08895  5.3e-05  4.039932  0.0
C  C107  1  0.26306654  0.60822930  0.23605726  1  -0.081149  -0.00011  3.806044  0.0  -0.089651  4.1e-05  4.053256  0.0  -0.091241  1.4e-05  4.073625  0.0  -0.097381  -0.088774  5.2e-05  4.039789  0.0
C  C108  1  0.63614835  0.37083801  0.82385406  1  -0.124323  0.000257  3.756498  0.0  -0.145887  0.000142  4.00352  0.0  -0.148191  0.000127  4.024262  0.0  -0.09708  -0.143358  0.000174  3.989768  0.0
C  C109  1  0.36385301  0.62916213  0.17614633  1  -0.124302  0.000229  3.75644  0.0  -0.145907  0.000143  4.003457  0.0  -0.14821  0.000125  4.024198  0.0  -0.097109  -0.143378  0.000176  3.989707  0.0
C  C110  1  0.23289589  0.83414281  0.48545538  1  0.388197  0.002342  3.784133  0.003  0.315269  0.005255  4.063287  0.005  0.34376  0.003634  4.065068  0.004  0.179271  0.295498  0.006876  4.061611  0.006
C  C111  1  0.76710233  0.16585835  0.51454443  1  0.388242  0.002341  3.784061  0.003  0.315321  0.005257  4.063192  0.005  0.343813  0.003634  4.064972  0.004  0.179273  0.295551  0.006878  4.061518  0.006
C  C112  1  0.46257974  0.88183243  0.41904645  1  -0.196272  0.000378  3.64322  0.0  -0.298147  0.000647  3.893041  0.0  -0.295929  0.000423  3.904234  0.0  -0.142695  -0.299063  0.000805  3.885426  0.0
C  C113  1  0.53742190  0.11816973  0.58095406  1  -0.196217  0.000349  3.643313  0.0  -0.298105  0.000649  3.893106  0.0  -0.295887  0.00042  3.904298  0.0  -0.142633  -0.299024  0.000804  3.885492  0.0
C  C114  1  0.38982407  0.65431335  0.46377839  1  -0.178668  -0.000167  3.628606  0.0  -0.276315  0.000174  3.866429  0.0  -0.272688  1.8e-05  3.875743  0.0  -0.137108  -0.278554  0.000317  3.859881  0.0
C  C115  1  0.61017429  0.34568883  0.53622147  1  -0.178717  -0.000249  3.62863  0.0  -0.276367  0.000174  3.866446  0.0  -0.27274  1.7e-05  3.875759  0.0  -0.137138  -0.278606  0.000318  3.8599  0.0
C  C116  1  0.89626871  0.53126190  0.41934099  1  0.404157  0.008332  3.771628  0.008  0.321606  0.012613  4.068412  0.012  0.352482  0.009072  4.066313  0.009  0.183953  0.300276  0.016403  4.069461  0.014
C  C117  1  0.10373219  0.46873523  0.58065388  1  0.404114  0.008332  3.771652  0.008  0.321559  0.012615  4.068426  0.012  0.352434  0.009073  4.066327  0.009  0.183875  0.300225  0.016406  4.069477  0.014
C  C118  1  0.66615298  0.51967632  0.34314059  1  -0.179516  -0.000537  3.661411  -0.001  -0.283556  -0.000136  3.913242  0.0  -0.279376  -0.000276  3.922993  0.0  -0.137723  -0.286003  3.1e-05  3.906672  0.0
C  C119  1  0.33384700  0.48032180  0.65685789  1  -0.179439  -0.000464  3.661285  0.0  -0.283471  -0.00014  3.913169  0.0  -0.27929  -0.000275  3.922922  0.0  -0.137687  -0.285916  3.2e-05  3.906595  0.0
C  C120  1  0.87190614  0.39626716  0.29162886  1  -0.181515  3e-05  3.644721  0.0  -0.281396  0.000407  3.888769  0.0  -0.278212  0.000191  3.899531  0.0  -0.138605  -0.283064  0.000623  3.881317  0.0
C  C121  1  0.12809479  0.60372995  0.70836899  1  -0.181601  -0.000121  3.644795  0.0  -0.281439  0.000409  3.888883  0.0  -0.278256  0.000189  3.899643  0.0  -0.138636  -0.283101  0.000624  3.881435  0.0
S  S122  1  0.27996092  0.24712479  0.18828472  1  0.121776  0.000374  2.596519  0.0  0.131176  0.001169  2.912605  0.001  0.129419  0.000689  2.919314  0.001  0.10003  0.130628  0.001846  2.91257  0.001
S  S123  1  0.72003799  0.75287332  0.81171612  1  0.121804  0.000386  2.596687  0.0  0.131188  0.001168  2.912747  0.001  0.129433  0.000691  2.919456  0.001  0.100033  0.130641  0.001847  2.912711  0.001
S  S124  1  0.27693719  0.13328174  0.99741880  1  0.088792  0.000247  2.603841  0.0  0.095069  0.000601  2.928648  0.001  0.092839  0.00036  2.935445  0.0  0.086578  0.096871  0.001154  2.92339  0.001
S  S125  1  0.72306280  0.86671637  0.00258087  1  0.088734  0.000237  2.603848  0.0  0.09501  0.000602  2.928664  0.001  0.092781  0.000359  2.935462  0.0  0.086566  0.096812  0.001152  2.923405  0.001
S  S126  1  0.28789019  0.16123215  0.74393928  1  0.149225  -0.000429  2.60773  0.0  0.155534  0.000954  2.925001  0.001  0.15538  8.6e-05  2.934564  0.0  0.112791  0.153965  0.002233  2.918612  0.002
S  S127  1  0.71210899  0.83876799  0.25606167  1  0.149208  -0.000423  2.607737  0.0  0.155517  0.000954  2.925  0.001  0.155363  8.5e-05  2.934563  0.0  0.112786  0.153946  0.002233  2.91861  0.002
N  N128  1  0.35676800  0.79232800  0.45880836  1  -0.068852  0.003636  3.516163  0.004  0.036847  0.005804  3.745461  0.006  0.016981  0.004652  3.771019  0.005  -0.27558  0.050424  0.006697  3.727647  0.007
N  N129  1  0.64322803  0.20767317  0.54119202  1  -0.068801  0.00363  3.516151  0.004  0.036892  0.005806  3.745476  0.006  0.017026  0.004649  3.771035  0.005  -0.275567  0.050467  0.006698  3.727663  0.007
N  N130  1  0.81653710  0.48792750  0.35245405  1  -0.079175  0.006632  3.495815  0.008  0.024728  0.01005  3.731983  0.011  0.004415  0.008065  3.756316  0.009  -0.278255  0.038177  0.012227  3.715157  0.013
N  N131  1  0.18346367  0.51206861  0.64754195  1  -0.079161  0.006608  3.495841  0.007  0.02464  0.010053  3.732138  0.011  0.004325  0.00806  3.756473  0.009  -0.278243  0.038091  0.012228  3.71531  0.013
O  O132  1  0.33335528  0.18706303  0.41482062  1  -0.618602  0.01902  1.929705  0.013  -0.562593  0.026306  2.163528  0.019  -0.589063  0.02308  2.153298  0.017  -0.305581  -0.543235  0.029557  2.170341  0.022
O  O133  1  0.66664390  0.81293711  0.58517975  1  -0.618623  0.019019  1.929693  0.013  -0.562613  0.026305  2.163519  0.019  -0.589086  0.02308  2.15329  0.017  -0.30559  -0.543256  0.029558  2.170333  0.022
O  O134  1  0.15479409  0.27129481  0.34818601  1  -0.660302  0.027348  1.986677  0.018  -0.599054  0.031977  2.237499  0.02  -0.628824  0.028474  2.225156  0.017  -0.32153  -0.576246  0.035538  2.245026  0.023
O  O135  1  0.84520698  0.72870331  0.65181248  1  -0.660303  0.027352  1.98665  0.018  -0.599071  0.031977  2.237505  0.02  -0.628841  0.028475  2.22516  0.017  -0.321514  -0.576265  0.035538  2.245034  0.023
O  O136  1  0.16602509  0.14410553  0.57716658  1  -0.650916  0.038144  2.041936  0.026  -0.589931  0.047036  2.313129  0.031  -0.618877  0.041037  2.297292  0.025  -0.313224  -0.568761  0.053394  2.323973  0.037
O  O137  1  0.83397339  0.85589766  0.42283216  1  -0.650903  0.038147  2.042086  0.026  -0.589917  0.047037  2.31326  0.031  -0.618857  0.041038  2.297419  0.025  -0.31324  -0.568749  0.053396  2.324106  0.037
O  O138  1  0.97033186  0.98863501  0.59288379  1  -0.668498  0.029665  2.095225  0.014  -0.604  0.037381  2.371448  0.017  -0.635158  0.033219  2.356369  0.014  -0.314519  -0.580533  0.041626  2.381294  0.021
O  O139  1  0.02966840  0.01136513  0.40711599  1  -0.668454  0.029663  2.095211  0.014  -0.60397  0.037381  2.371461  0.017  -0.635131  0.03322  2.356384  0.014  -0.314518  -0.580501  0.041626  2.381307  0.021
O  O140  1  0.13403125  0.76005382  0.51790001  1  -0.57248  0.030794  2.085893  0.018  -0.509753  0.038183  2.361149  0.022  -0.539247  0.034467  2.35065  0.019  -0.305581  -0.487767  0.04221  2.367284  0.025
O  O141  1  0.86596546  0.23994431  0.48209903  1  -0.572467  0.030807  2.085922  0.018  -0.509749  0.03818  2.361172  0.022  -0.539243  0.034472  2.350671  0.019  -0.305544  -0.487767  0.042209  2.367315  0.025
O  O142  1  0.84677745  0.59549765  0.47847425  1  -0.564442  0.024515  2.1415  0.011  -0.50035  0.030654  2.424433  0.014  -0.527923  0.027238  2.411358  0.011  -0.300472  -0.480483  0.034315  2.432912  0.017
O  O143  1  0.15322564  0.40449946  0.52152124  1  -0.564385  0.02452  2.141563  0.011  -0.500249  0.030649  2.42444  0.014  -0.527816  0.027244  2.411358  0.011  -0.300414  -0.480396  0.034309  2.432959  0.017
