# generated using pymatgen
data_CdH14C10O7
_symmetry_space_group_name_H-M   'P 1'
_cell_length_a   5.25224828
_cell_length_b   5.25211097
_cell_length_c   23.48744279
_cell_angle_alpha   96.55420723
_cell_angle_beta   96.54665513
_cell_angle_gamma   82.40769775
_symmetry_Int_Tables_number   1
_chemical_formula_structural   CdH14C10O7
_chemical_formula_sum   'Cd2 H28 C20 O14'
_cell_volume   634.80490775
_cell_formula_units_Z   2
loop_
 _symmetry_equiv_pos_site_id
 _symmetry_equiv_pos_as_xyz
  1  'x, y, z'
loop_
 _atom_site_type_symbol
 _atom_site_label
 _atom_site_symmetry_multiplicity
 _atom_site_fract_x
 _atom_site_fract_y
 _atom_site_fract_z
 _atom_site_occupancy
 _atom_site_hle17_bader_spin_density
 _atom_site_hle17_ddec_charge
 _atom_site_hle17_ddec_spin_density
 _atom_site_hle17_ddec_sum_bond_order
 _atom_site_hle17_magmom
 _atom_site_hse06_10hf_bader_spin_density
 _atom_site_hse06_10hf_ddec_charge
 _atom_site_hse06_10hf_ddec_spin_density
 _atom_site_hse06_10hf_ddec_sum_bond_order
 _atom_site_hse06_10hf_magmom
 _atom_site_hse06_bader_spin_density
 _atom_site_hse06_ddec_charge
 _atom_site_hse06_ddec_spin_density
 _atom_site_hse06_ddec_sum_bond_order
 _atom_site_hse06_magmom
 _atom_site_pbe_bader_spin_density
 _atom_site_pbe_cm5_charge
 _atom_site_pbe_ddec_charge
 _atom_site_pbe_ddec_spin_density
 _atom_site_pbe_ddec_sum_bond_order
 _atom_site_pbe_magmom
Cd  Cd0  1  0.81360965  0.18630027  0.75001004  1  0  1.312248  0  1.506706  0  0  1.134804  0  1.943423  0  0  1.191673  0  1.882135  0  0  0.784447  1.093845  0  1.985916  0
Cd  Cd1  1  0.18639264  0.81369094  0.24998962  1  0  1.312249  0  1.506622  0  0  1.134815  0  1.943322  0  0  1.191687  0  1.882032  0  0  0.784445  1.093849  0  1.985811  0
H  H2  1  0.33158680  0.50235570  0.76800719  1  0  0.434214  0  0.868433  0  0  0.404494  0  0.928189  0  0  0.415746  0  0.911906  0  0  0.289559  0.396454  0  0.939796  0
H  H3  1  0.49766932  0.66841591  0.73202276  1  0  0.433778  0  0.868895  0  0  0.404036  0  0.92867  0  0  0.415306  0  0.912368  0  0  0.289416  0.396031  0  0.940232  0
H  H4  1  0.66841343  0.49764737  0.23199438  1  0  0.434235  0  0.868406  0  0  0.40452  0  0.928157  0  0  0.415768  0  0.911881  0  0  0.28958  0.396482  0  0.93976  0
H  H5  1  0.50234259  0.33158023  0.26797848  1  0  0.43386  0  0.868796  0  0  0.404158  0  0.928531  0  0  0.415435  0  0.912217  0  0  0.289445  0.396151  0  0.940099  0
H  H6  1  0.65073812  0.77629782  0.66696125  1  0  0.45108  0  0.833641  0  0  0.419387  0  0.8965  0  0  0.430563  0  0.880148  0  0  0.307307  0.411441  0  0.908099  0
H  H7  1  0.22362768  0.34921484  0.83302024  1  0  0.45108  0  0.83365  0  0  0.419484  0  0.896363  0  0  0.430661  0  0.880008  0  0  0.307354  0.411534  0  0.907971  0
H  H8  1  0.34928585  0.22366620  0.33303659  1  0  0.451119  0  0.833616  0  0  0.419487  0  0.896387  0  0  0.430663  0  0.880034  0  0  0.307359  0.411537  0  0.907998  0
H  H9  1  0.77636639  0.65078055  0.16697465  1  0  0.451047  0  0.833673  0  0  0.419443  0  0.896393  0  0  0.430615  0  0.880048  0  0  0.307315  0.41149  0  0.908005  0
H  H10  1  0.38096308  0.98068758  0.68048823  1  0  0.438613  0  0.866498  0  0  0.401855  0  0.937714  0  0  0.414078  0  0.920406  0  0  0.290719  0.393204  0  0.949932  0
H  H11  1  0.01928435  0.61899420  0.81950499  1  0  0.438498  0  0.866552  0  0  0.401826  0  0.93763  0  0  0.414012  0  0.920376  0  0  0.290593  0.393173  0  0.949848  0
H  H12  1  0.61906061  0.01928992  0.31951031  1  0  0.438713  0  0.866383  0  0  0.401915  0  0.937658  0  0  0.414153  0  0.920329  0  0  0.290693  0.393263  0  0.949878  0
H  H13  1  0.98071987  0.38099878  0.18049517  1  0  0.43861  0  0.866419  0  0  0.401954  0  0.937456  0  0  0.414151  0  0.920189  0  0  0.290692  0.393306  0  0.949663  0
H  H14  1  0.46387054  0.83230606  0.90955958  1  0  0.114709  0  0.940377  0  0  0.127004  0  1.002807  0  0  0.12925  0  1.001888  0  0  0.099822  0.125445  0  1.00345  0
H  H15  1  0.16764414  0.53616658  0.59046004  1  0  0.114723  0  0.940388  0  0  0.126955  0  1.002899  0  0  0.129196  0  1.00198  0  0  0.099701  0.125382  0  1.003538  0
H  H16  1  0.53611963  0.16770541  0.09043940  1  0  0.114655  0  0.940475  0  0  0.12696  0  1.002931  0  0  0.129225  0  1.002024  0  0  0.099786  0.1254  0  1.00356  0
H  H17  1  0.83234080  0.46385585  0.40954800  1  0  0.114696  0  0.94048  0  0  0.126943  0  1.002978  0  0  0.129185  0  1.002062  0  0  0.099708  0.125373  0  1.00362  0
H  H18  1  0.72410083  0.60182871  0.88752831  1  0  0.115855  0  0.939115  0  0  0.126299  0  1.00466  0  0  0.129099  0  1.002892  0  0  0.100758  0.124291  0  1.006019  0
H  H19  1  0.39811998  0.27589618  0.61247101  1  0  0.115603  0  0.939403  0  0  0.126062  0  1.004929  0  0  0.128858  0  1.00316  0  0  0.100637  0.124045  0  1.006281  0
H  H20  1  0.27588183  0.39817190  0.11246944  1  0  0.115746  0  0.939095  0  0  0.126241  0  1.004648  0  0  0.129061  0  1.00289  0  0  0.10073  0.124224  0  1.006003  0
H  H21  1  0.60187622  0.72411103  0.38752971  1  0  0.115626  0  0.93934  0  0  0.126097  0  1.004863  0  0  0.128894  0  1.003098  0  0  0.100642  0.124083  0  1.006216  0
H  H22  1  0.12584931  0.57031282  0.94829757  1  0  0.089357  0  0.952026  0  0  0.10234  0  1.010227  0  0  0.105303  0  1.008853  0  0  0.098716  0.100184  0  1.011358  0
H  H23  1  0.42961611  0.87415596  0.55169692  1  0  0.089451  0  0.952284  0  0  0.102411  0  1.010511  0  0  0.105368  0  1.009149  0  0  0.098752  0.100257  0  1.011631  0
H  H24  1  0.87414271  0.42969247  0.05169876  1  0  0.089417  0  0.952056  0  0  0.102414  0  1.010234  0  0  0.105374  0  1.008869  0  0  0.098737  0.10026  0  1.011354  0
H  H25  1  0.57035473  0.12586522  0.44830356  1  0  0.089549  0  0.952056  0  0  0.102502  0  1.010308  0  0  0.105454  0  1.008945  0  0  0.098753  0.100349  0  1.01143  0
H  H26  1  0.58722042  0.25844197  0.96879485  1  0  0.09521  0  0.942349  0  0  0.110298  0  0.997331  0  0  0.11284  0  0.996933  0  0  0.101444  0.10842  0  0.997768  0
H  H27  1  0.74154663  0.41280360  0.53121607  1  0  0.095252  0  0.942719  0  0  0.110386  0  0.997597  0  0  0.1129  0  0.997238  0  0  0.101466  0.108476  0  0.99806  0
H  H28  1  0.41276692  0.74157862  0.03119659  1  0  0.095316  0  0.942456  0  0  0.110371  0  0.997436  0  0  0.112932  0  0.997015  0  0  0.101497  0.108475  0  0.997888  0
H  H29  1  0.25842839  0.58721949  0.46878880  1  0  0.095186  0  0.942789  0  0  0.110315  0  0.997682  0  0  0.112828  0  0.997325  0  0  0.101534  0.108428  0  0.998123  0
C  C30  1  0.83675864  0.90298537  0.95260308  1  0  0.110059  0  3.757506  0  0  0.129344  0  3.995267  0  0  0.129406  0  4.020673  0  0  -0.01396  0.129265  0  3.978048  0
C  C31  1  0.09695794  0.16325125  0.54739698  1  0  0.110533  0  3.757631  0  0  0.129827  0  3.995345  0  0  0.129883  0  4.020742  0  0  -0.013902  0.12974  0  3.978102  0
C  C32  1  0.16324581  0.09698817  0.04739413  1  0  0.110268  0  3.757444  0  0  0.129572  0  3.995242  0  0  0.129662  0  4.020673  0  0  -0.013961  0.129491  0  3.978007  0
C  C33  1  0.90305208  0.83675299  0.45260694  1  0  0.110229  0  3.757429  0  0  0.129562  0  3.995137  0  0  0.129622  0  4.020535  0  0  -0.014036  0.129478  0  3.977907  0
C  C34  1  0.66645122  0.80709345  0.90037874  1  0  -0.315229  0  3.688594  0  0  -0.356505  0  3.927108  0  0  -0.362175  0  3.933468  0  0  -0.163284  -0.352553  0  3.922707  0
C  C35  1  0.19285860  0.33355642  0.59962423  1  0  -0.315098  0  3.688124  0  0  -0.356275  0  3.926744  0  0  -0.361863  0  3.932967  0  0  -0.163028  -0.35233  0  3.922407  0
C  C36  1  0.33353518  0.19290076  0.09961596  1  0  -0.31499  0  3.688171  0  0  -0.356434  0  3.926864  0  0  -0.362158  0  3.933252  0  0  -0.163206  -0.352477  0  3.922475  0
C  C37  1  0.80715288  0.66643732  0.40037141  1  0  -0.315055  0  3.688145  0  0  -0.356311  0  3.926782  0  0  -0.361917  0  3.933015  0  0  -0.163022  -0.352342  0  3.922379  0
C  C38  1  0.07070350  0.76009076  0.97067044  1  0  -0.127482  0  3.776334  0  0  -0.147178  0  4.027157  0  0  -0.149734  0  4.048875  0  0  -0.095055  -0.145363  0  4.01239  0
C  C39  1  0.23988636  0.92932731  0.52932869  1  0  -0.127872  0  3.776141  0  0  -0.147571  0  4.027034  0  0  -0.15013  0  4.048743  0  0  -0.095249  -0.14575  0  4.01226  0
C  C40  1  0.92930340  0.23992034  0.02932206  1  0  -0.127663  0  3.776474  0  0  -0.147365  0  4.02732  0  0  -0.149926  0  4.049034  0  0  -0.095021  -0.145543  0  4.012544  0
C  C41  1  0.76009399  0.07071444  0.47067667  1  0  -0.127886  0  3.776106  0  0  -0.14759  0  4.026997  0  0  -0.150141  0  4.048699  0  0  -0.095101  -0.145768  0  4.01222  0
C  C42  1  0.76848208  0.14449820  0.98256632  1  0  -0.119618  0  3.748507  0  0  -0.140764  0  3.998708  0  0  -0.14372  0  4.021217  0  0  -0.094995  -0.138659  0  3.983436  0
C  C43  1  0.85551434  0.23155343  0.51744489  1  0  -0.119874  0  3.748998  0  0  -0.141035  0  3.999167  0  0  -0.143977  0  4.021683  0  0  -0.095032  -0.138899  0  3.983891  0
C  C44  1  0.23153139  0.85550525  0.01743297  1  0  -0.119914  0  3.748675  0  0  -0.141019  0  3.998849  0  0  -0.143995  0  4.021343  0  0  -0.095066  -0.138893  0  3.983578  0
C  C45  1  0.14449175  0.76845702  0.48255993  1  0  -0.119619  0  3.748695  0  0  -0.140797  0  3.998857  0  0  -0.143739  0  4.021375  0  0  -0.095009  -0.138679  0  3.983578  0
C  C46  1  0.68808241  0.96671876  0.85130926  1  0  0.71665  0  3.848148  0  0  0.669581  0  4.145462  0  0  0.702989  0  4.138718  0  0  0.211582  0.646834  0  4.149259  0
C  C47  1  0.03320690  0.31188185  0.64870619  1  0  0.716484  0  3.847599  0  0  0.669198  0  4.145284  0  0  0.702577  0  4.138577  0  0  0.211317  0.646445  0  4.149079  0
C  C48  1  0.31190302  0.03326283  0.14869240  1  0  0.716565  0  3.847817  0  0  0.669568  0  4.145118  0  0  0.702983  0  4.138409  0  0  0.211576  0.646816  0  4.148917  0
C  C49  1  0.96681520  0.68810209  0.35129799  1  0  0.716727  0  3.847685  0  0  0.669494  0  4.145243  0  0  0.702892  0  4.138511  0  0  0.211424  0.646742  0  4.149048  0
O  O50  1  0.49292341  0.50747005  0.75010133  1  0  -0.891785  0  1.912302  0  0  -0.821763  0  2.120843  0  0  -0.845659  0  2.084061  0  0  -0.612739  -0.804853  0  2.146496  0
O  O51  1  0.50709437  0.49254727  0.24990728  1  0  -0.891884  0  1.912237  0  0  -0.821902  0  2.120679  0  0  -0.8458  0  2.083896  0  0  -0.612798  -0.805006  0  2.146354  0
O  O52  1  0.52913159  0.16174866  0.84248790  1  0  -0.650714  0  1.960458  0  0  -0.594199  0  2.190519  0  0  -0.620361  0  2.179767  0  0  -0.319626  -0.575817  0  2.197295  0
O  O53  1  0.83810174  0.47079168  0.65750857  1  0  -0.651034  0  1.960177  0  0  -0.594393  0  2.190318  0  0  -0.620563  0  2.179586  0  0  -0.319675  -0.575974  0  2.197042  0
O  O54  1  0.47089149  0.83823807  0.15750655  1  0  -0.650811  0  1.960303  0  0  -0.594271  0  2.190309  0  0  -0.620436  0  2.179566  0  0  -0.319659  -0.575883  0  2.197087  0
O  O55  1  0.16188880  0.52915536  0.34249717  1  0  -0.651065  0  1.959942  0  0  -0.59444  0  2.190013  0  0  -0.620611  0  2.179272  0  0  -0.31962  -0.576039  0  2.196764  0
O  O56  1  0.88257202  0.90037812  0.82114575  1  0  -0.689861  0  2.016264  0  0  -0.612258  0  2.254819  0  0  -0.643997  0  2.242283  0  0  -0.329361  -0.589934  0  2.262715  0
O  O57  1  0.09964177  0.11742410  0.67886684  1  0  -0.689388  0  2.016206  0  0  -0.61172  0  2.254903  0  0  -0.643474  0  2.242387  0  0  -0.329009  -0.5894  0  2.262799  0
O  O58  1  0.11741389  0.09965497  0.17885486  1  0  -0.689741  0  2.016339  0  0  -0.612186  0  2.254882  0  0  -0.643928  0  2.242348  0  0  -0.329323  -0.589866  0  2.262777  0
O  O59  1  0.90037053  0.88256259  0.32113592  1  0  -0.689562  0  2.016289  0  0  -0.611857  0  2.254921  0  0  -0.643621  0  2.242384  0  0  -0.329125  -0.589538  0  2.26282  0
O  O60  1  0.56205698  0.90282423  0.69491217  1  0  -0.872835  0  1.92676  0  0  -0.795982  0  2.127907  0  0  -0.822058  0  2.091171  0  0  -0.56946  -0.777502  0  2.153361  0
O  O61  1  0.09715188  0.43786563  0.80507625  1  0  -0.872629  0  1.926829  0  0  -0.795955  0  2.127818  0  0  -0.822006  0  2.091146  0  0  -0.569329  -0.777444  0  2.153266  0
O  O62  1  0.43795487  0.09716988  0.30508775  1  0  -0.872914  0  1.926641  0  0  -0.796145  0  2.127778  0  0  -0.822236  0  2.091018  0  0  -0.569491  -0.777655  0  2.153235  0
O  O63  1  0.90285214  0.56212715  0.19492177  1  0  -0.872691  0  1.926628  0  0  -0.796007  0  2.127659  0  0  -0.822064  0  2.090964  0  0  -0.569365  -0.777498  0  2.153105  0
