# generated using pymatgen
data_InH6C12N2ClO4
_symmetry_space_group_name_H-M   'P 1'
_cell_length_a   9.15140040
_cell_length_b   11.51900357
_cell_length_c   16.69429545
_cell_angle_alpha   89.99971181
_cell_angle_beta   89.99961100
_cell_angle_gamma   89.99928767
_symmetry_Int_Tables_number   1
_chemical_formula_structural   InH6C12N2ClO4
_chemical_formula_sum   'In4 H24 C48 N8 Cl4 O16'
_cell_volume   1759.82938533
_cell_formula_units_Z   4
loop_
 _symmetry_equiv_pos_site_id
 _symmetry_equiv_pos_as_xyz
  1  'x, y, z'
loop_
 _atom_site_type_symbol
 _atom_site_label
 _atom_site_symmetry_multiplicity
 _atom_site_fract_x
 _atom_site_fract_y
 _atom_site_fract_z
 _atom_site_occupancy
 _atom_site_pbe_bader_charge
 _atom_site_pbe_bader_spin_density
 _atom_site_pbe_cm5_charge
 _atom_site_pbe_ddec_charge
 _atom_site_pbe_ddec_spin_density
 _atom_site_pbe_ddec_sum_bond_order
 _atom_site_pbe_magmom
In  In0  1  0.51934712  0.29223048  0.83101292  1  1.766549  0  0.673866  1.191122  0  2.86799  0
In  In1  1  0.48065486  0.79222258  0.16899620  1  1.766731  0  0.673895  1.19121  0  2.868051  0
In  In2  1  0.98066752  0.29221961  0.33100592  1  1.766887  0  0.673867  1.191141  0  2.868051  0
In  In3  1  0.01933337  0.79222043  0.66899242  1  1.766558  0  0.673885  1.191182  0  2.868066  0
H  H4  1  0.47250061  0.48444126  0.96956780  1  0.151241  0  0.133468  0.110419  0  0.976603  0
H  H5  1  0.52749952  0.98443828  0.03043828  1  0.151206  0  0.133447  0.110411  0  0.9766  0
H  H6  1  0.02751601  0.48443410  0.46955354  1  0.151017  0  0.133417  0.110306  0  0.976636  0
H  H7  1  0.97248631  0.98443242  0.53043038  1  0.151034  0  0.133494  0.110376  0  0.976571  0
H  H8  1  0.88531299  0.65430470  0.00829945  1  0.085983  0  0.117893  0.118071  0  0.987773  0
H  H9  1  0.11470203  0.15432415  0.99171373  1  0.086387  0  0.117878  0.118143  0  0.987761  0
H  H10  1  0.61471204  0.65431721  0.50828273  1  0.086516  0  0.117861  0.118039  0  0.9878  0
H  H11  1  0.38528223  0.15432032  0.49171488  1  0.086751  0  0.117858  0.118062  0  0.98785  0
H  H12  1  0.00333650  0.50134109  0.92412919  1  0.083681  0  0.12089  0.133805  0  0.975083  0
H  H13  1  0.99666339  0.00136113  0.07586953  1  0.083457  0  0.120925  0.133868  0  0.975039  0
H  H14  1  0.49668042  0.50135785  0.42412273  1  0.083703  0  0.120824  0.133686  0  0.97509  0
H  H15  1  0.50331838  0.00135306  0.57587779  1  0.083708  0  0.120813  0.133683  0  0.975108  0
H  H16  1  0.09068092  0.33982164  0.87992378  1  0.128985  0  0.119262  0.135802  0  0.998569  0
H  H17  1  0.90932143  0.83983584  0.12007200  1  0.128422  0  0.119219  0.135779  0  0.998464  0
H  H18  1  0.40932480  0.33983233  0.37993023  1  0.128458  0  0.119217  0.135756  0  0.998523  0
H  H19  1  0.59067209  0.83983296  0.62006855  1  0.128461  0  0.11924  0.135779  0  0.998505  0
H  H20  1  0.16656838  0.15903852  0.81044332  1  0.134875  0  0.109733  0.118165  0  1.027497  0
H  H21  1  0.83342253  0.65905817  0.18954589  1  0.13483  0  0.109733  0.11822  0  1.027493  0
H  H22  1  0.33342237  0.15905605  0.31045904  1  0.134861  0  0.10977  0.118232  0  1.027428  0
H  H23  1  0.66657619  0.65904672  0.68954873  1  0.13484  0  0.109787  0.118307  0  1.027344  0
H  H24  1  0.71361007  0.09726849  0.75240400  1  0.158962  0  0.122132  0.098313  0  1.016764  0
H  H25  1  0.28637851  0.59726370  0.24759740  1  0.158718  0  0.122167  0.098318  0  1.01674  0
H  H26  1  0.78637355  0.09727086  0.25239593  1  0.159666  0  0.122178  0.098312  0  1.016786  0
H  H27  1  0.21361503  0.59726479  0.74759528  1  0.158988  0  0.12216  0.098326  0  1.01677  0
C  C28  1  0.59048912  0.48992294  0.96151512  1  0.498843  0  0.080302  0.104855  0  3.887465  0
C  C29  1  0.40951093  0.98992022  0.03848855  1  0.49867  0  0.080324  0.104966  0  3.887425  0
C  C30  1  0.90952747  0.48991974  0.46150659  1  0.498757  0  0.080391  0.105059  0  3.88719  0
C  C31  1  0.09047695  0.98991735  0.53848629  1  0.498744  0  0.08031  0.104975  0  3.887279  0
C  C32  1  0.67087045  0.57872956  0.99769304  1  0.018609  0  0.00318  -0.051561  0  3.931979  0
C  C33  1  0.32913480  0.07873084  0.00230901  1  0.018441  0  0.003237  -0.051554  0  3.932014  0
C  C34  1  0.82915199  0.57872891  0.49768302  1  0.01865  0  0.00309  -0.051664  0  3.932087  0
C  C35  1  0.17085436  0.07873063  0.50231484  1  0.018586  0  0.00308  -0.051571  0  3.93203  0
C  C36  1  0.59508496  0.66126754  0.05240907  1  1.564072  0  0.213741  0.556933  0  4.22635  0
C  C37  1  0.40492887  0.16126877  0.94759930  1  1.564113  0  0.213784  0.557012  0  4.226283  0
C  C38  1  0.90493287  0.66126410  0.55239903  1  1.563994  0  0.213767  0.556925  0  4.22649  0
C  C39  1  0.09507331  0.16127394  0.44759795  1  1.564486  0  0.213788  0.556835  0  4.226214  0
C  C40  1  0.82107812  0.58375100  0.98288769  1  0.023191  0  -0.042864  -0.012905  0  3.886547  0
C  C41  1  0.17892706  0.08375888  0.01711794  1  0.022853  0  -0.04291  -0.013067  0  3.886843  0
C  C42  1  0.67894115  0.58375706  0.48287824  1  0.022483  0  -0.042842  -0.012924  0  3.886812  0
C  C43  1  0.32106184  0.08375716  0.51712260  1  0.022202  0  -0.04287  -0.013064  0  3.886888  0
C  C44  1  0.88662968  0.49818268  0.93624363  1  0.052281  0  -0.063517  -0.129263  0  3.903207  0
C  C45  1  0.11336915  0.99819143  0.06375821  1  0.052397  0  -0.063523  -0.129258  0  3.903429  0
C  C46  1  0.61338382  0.49819027  0.43623982  1  0.052857  0  -0.063355  -0.128898  0  3.903206  0
C  C47  1  0.38661611  0.99818991  0.56376262  1  0.05286  0  -0.063339  -0.128886  0  3.903264  0
C  C48  1  0.79993999  0.41010183  0.90351121  1  0.473854  0  0.142247  0.189146  0  3.946654  0
C  C49  1  0.20005691  0.91010600  0.09648913  1  0.47402  0  0.142215  0.18906  0  3.946687  0
C  C50  1  0.70007088  0.41009987  0.40351066  1  0.473812  0  0.142136  0.188858  0  3.946612  0
C  C51  1  0.29993040  0.91010362  0.59648848  1  0.473738  0  0.142132  0.188871  0  3.946865  0
C  C52  1  0.85934396  0.31232676  0.85592195  1  0.485882  0  0.140914  0.182654  0  3.950029  0
C  C53  1  0.14065225  0.81233117  0.14408052  1  0.486147  0  0.140855  0.182654  0  3.95007  0
C  C54  1  0.64065806  0.31232714  0.35592283  1  0.486145  0  0.140862  0.182601  0  3.950153  0
C  C55  1  0.35933597  0.81232906  0.64407724  1  0.486398  0  0.140824  0.182622  0  3.949989  0
C  C56  1  0.00835859  0.28527751  0.85171739  1  -0.032218  0  -0.06434  -0.144631  0  3.897327  0
C  C57  1  0.99164569  0.78528719  0.14828277  1  -0.03213  0  -0.064235  -0.144555  0  3.897238  0
C  C58  1  0.49164721  0.28528563  0.35172112  1  -0.032139  0  -0.064146  -0.144367  0  3.897089  0
C  C59  1  0.50835160  0.78528341  0.64827844  1  -0.032233  0  -0.064179  -0.144416  0  3.897026  0
C  C60  1  0.05162730  0.18347176  0.81329956  1  0.042619  0  -0.045185  -0.020536  0  3.884909  0
C  C61  1  0.94836652  0.68347812  0.18669615  1  0.042672  0  -0.045205  -0.020578  0  3.88468  0
C  C62  1  0.44836851  0.18347771  0.31330346  1  0.042659  0  -0.045261  -0.020688  0  3.884558  0
C  C63  1  0.55162968  0.68347303  0.68669704  1  0.042683  0  -0.045225  -0.020712  0  3.884694  0
C  C64  1  0.94574914  0.11219559  0.77824948  1  0.013381  0  0.00377  -0.047157  0  3.924994  0
C  C65  1  0.05424250  0.61219508  0.22174707  1  0.013234  0  0.003681  -0.047348  0  3.925219  0
C  C66  1  0.55424159  0.11220205  0.27824590  1  0.013246  0  0.003616  -0.047409  0  3.925082  0
C  C67  1  0.44575550  0.61219817  0.72174886  1  0.013391  0  0.003655  -0.047339  0  3.92539  0
C  C68  1  0.98219710  0.99805689  0.74128260  1  1.5527  0  0.20965  0.553634  0  4.223765  0
C  C69  1  0.01778097  0.49806025  0.25871026  1  1.553779  0  0.209682  0.553545  0  4.22398  0
C  C70  1  0.51779033  0.99806979  0.24127915  1  1.552662  0  0.209761  0.553753  0  4.223415  0
C  C71  1  0.48220850  0.49807166  0.75872029  1  1.552525  0  0.209755  0.553732  0  4.223393  0
C  C72  1  0.80007497  0.14796243  0.78070144  1  0.513761  0  0.079533  0.104186  0  3.881998  0
C  C73  1  0.19991502  0.64795960  0.21930039  1  0.513917  0  0.07959  0.104315  0  3.882125  0
C  C74  1  0.69991300  0.14796742  0.28069610  1  0.512963  0  0.079633  0.104381  0  3.882134  0
C  C75  1  0.30008136  0.64796242  0.71929853  1  0.513952  0  0.079614  0.104282  0  3.882189  0
N  N76  1  0.65349349  0.40952696  0.91549522  1  -1.248124  0  -0.296318  -0.272652  0  3.514146  0
N  N77  1  0.34650451  0.90952279  0.08450811  1  -1.248186  0  -0.296334  -0.272785  0  3.51409  0
N  N78  1  0.84652052  0.40952005  0.41548993  1  -1.248459  0  -0.296255  -0.272615  0  3.513752  0
N  N79  1  0.15348513  0.90951667  0.58450742  1  -1.248247  0  -0.296239  -0.27263  0  3.513943  0
N  N80  1  0.75966597  0.24422516  0.81900605  1  -1.257198  0  -0.294708  -0.252363  0  3.527185  0
N  N81  1  0.24033456  0.74422481  0.18100024  1  -1.256821  0  -0.294674  -0.252332  0  3.527016  0
N  N82  1  0.74033535  0.24422279  0.31900116  1  -1.256709  0  -0.294779  -0.252415  0  3.527141  0
N  N83  1  0.25966519  0.74422110  0.68099734  1  -1.257273  0  -0.294773  -0.252395  0  3.527119  0
Cl  Cl84  1  0.42948597  0.16737330  0.72581270  1  -0.621841  0  -0.269184  -0.503  0  1.021774  0
Cl  Cl85  1  0.57051356  0.66736545  0.27420044  1  -0.621953  0  -0.269203  -0.50306  0  1.021875  0
Cl  Cl86  1  0.07051771  0.16735963  0.22580426  1  -0.621967  0  -0.269178  -0.503026  0  1.021902  0
Cl  Cl87  1  0.92948510  0.66735482  0.77419091  1  -0.621926  0  -0.269185  -0.50302  0  1.021894  0
O  O88  1  0.66374137  0.75078699  0.07842127  1  -1.151518  0  -0.295977  -0.540392  0  2.173664  0
O  O89  1  0.33626890  0.25078650  0.92157901  1  -1.151344  0  -0.296054  -0.5405  0  2.173699  0
O  O90  1  0.83626166  0.75077470  0.57842167  1  -1.151231  0  -0.295997  -0.540409  0  2.173855  0
O  O91  1  0.16375516  0.25078404  0.42158160  1  -1.151485  0  -0.295952  -0.540304  0  2.173445  0
O  O92  1  0.46532016  0.63863942  0.07459298  1  -1.147149  0  -0.300323  -0.543706  0  2.150113  0
O  O93  1  0.53469620  0.13864037  0.92542145  1  -1.147091  0  -0.300309  -0.543665  0  2.150084  0
O  O94  1  0.03469670  0.63864145  0.57458196  1  -1.147222  0  -0.300357  -0.5437  0  2.150059  0
O  O95  1  0.96530764  0.13865397  0.42541690  1  -1.147559  0  -0.300357  -0.543684  0  2.150179  0
O  O96  1  0.88815749  0.95332712  0.69252967  1  -1.137941  0  -0.301923  -0.546924  0  2.172609  0
O  O97  1  0.11181580  0.45333176  0.30746753  1  -1.138605  0  -0.30183  -0.546824  0  2.172663  0
O  O98  1  0.61181483  0.95334081  0.19251868  1  -1.13784  0  -0.301885  -0.546825  0  2.172456  0
O  O99  1  0.38818687  0.45334499  0.80748391  1  -1.137768  0  -0.301878  -0.54678  0  2.172443  0
O  O100  1  0.10046129  0.94756472  0.75878016  1  -1.153566  0  -0.29624  -0.532029  0  2.13883  0
O  O101  1  0.89952957  0.44756800  0.24120747  1  -1.153807  0  -0.296367  -0.531978  0  2.138939  0
O  O102  1  0.39953986  0.94756509  0.25878544  1  -1.153585  0  -0.296357  -0.532142  0  2.138715  0
O  O103  1  0.60046630  0.44756502  0.74121477  1  -1.153572  0  -0.296362  -0.53218  0  2.138516  0
