# generated using pymatgen
data_BaH21C25NO10
_symmetry_space_group_name_H-M   'P 1'
_cell_length_a   7.92270493
_cell_length_b   12.62020516
_cell_length_c   14.08271742
_cell_angle_alpha   115.68347054
_cell_angle_beta   94.35947571
_cell_angle_gamma   104.67534202
_symmetry_Int_Tables_number   1
_chemical_formula_structural   BaH21C25NO10
_chemical_formula_sum   'Ba2 H42 C50 N2 O20'
_cell_volume   1199.35816689
_cell_formula_units_Z   2
loop_
 _symmetry_equiv_pos_site_id
 _symmetry_equiv_pos_as_xyz
  1  'x, y, z'
loop_
 _atom_site_type_symbol
 _atom_site_label
 _atom_site_symmetry_multiplicity
 _atom_site_fract_x
 _atom_site_fract_y
 _atom_site_fract_z
 _atom_site_occupancy
 _atom_site_hle17_bader_spin_density
 _atom_site_hle17_ddec_charge
 _atom_site_hle17_ddec_spin_density
 _atom_site_hle17_ddec_sum_bond_order
 _atom_site_hle17_magmom
 _atom_site_hse06_10hf_bader_spin_density
 _atom_site_hse06_10hf_ddec_charge
 _atom_site_hse06_10hf_ddec_spin_density
 _atom_site_hse06_10hf_ddec_sum_bond_order
 _atom_site_hse06_10hf_magmom
 _atom_site_hse06_bader_spin_density
 _atom_site_hse06_ddec_charge
 _atom_site_hse06_ddec_spin_density
 _atom_site_hse06_ddec_sum_bond_order
 _atom_site_hse06_magmom
 _atom_site_pbe_bader_spin_density
 _atom_site_pbe_cm5_charge
 _atom_site_pbe_ddec_charge
 _atom_site_pbe_ddec_spin_density
 _atom_site_pbe_ddec_sum_bond_order
 _atom_site_pbe_magmom
Ba  Ba0  1  0.53954934  0.66407899  0.17744557  1  0  1.623763  0  1.110367  0  0  1.474802  0  1.496534  0  0  1.517927  0  1.450837  0  0  0.935617  1.443211  0  1.52884  0
Ba  Ba1  1  0.46045140  0.33592157  0.82255419  1  0  1.623765  0  1.110353  0  0  1.474808  0  1.496516  0  0  1.517932  0  1.45082  0  0  0.93564  1.443218  0  1.528815  0
H  H2  1  0.71554540  0.88728302  0.10781921  1  0  0.413762  0  0.881812  0  0  0.38177  0  0.963662  0  0  0.393893  0  0.946524  0  0  0.314063  0.373232  0  0.973127  0
H  H3  1  0.28445365  0.11271938  0.89218047  1  0  0.413708  0  0.881887  0  0  0.381698  0  0.963766  0  0  0.393827  0  0.946621  0  0  0.314023  0.373163  0  0.97322  0
H  H4  1  0.48502020  0.53917932  0.72245445  1  0  0.408968  0  0.882952  0  0  0.377641  0  0.96367  0  0  0.389232  0  0.951181  0  0  0.314113  0.369501  0  0.972376  0
H  H5  1  0.51498096  0.46082215  0.27754355  1  0  0.40898  0  0.882995  0  0  0.377645  0  0.963717  0  0  0.389238  0  0.951226  0  0  0.314131  0.36951  0  0.972416  0
H  H6  1  0.22571483  0.75853814  0.17009663  1  0  0.406649  0  0.88784  0  0  0.379809  0  0.94984  0  0  0.389523  0  0.93531  0  0  0.295679  0.372885  0  0.960196  0
H  H7  1  0.77428507  0.24146335  0.82990415  1  0  0.406719  0  0.887761  0  0  0.379858  0  0.949773  0  0  0.389573  0  0.93524  0  0  0.295698  0.37293  0  0.960135  0
H  H8  1  0.10385760  0.68743068  0.22327783  1  0  0.42783  0  0.875932  0  0  0.3962  0  0.940802  0  0  0.40746  0  0.924431  0  0  0.285092  0.388216  0  0.952385  0
H  H9  1  0.89614273  0.31256896  0.77672155  1  0  0.427812  0  0.875948  0  0  0.396183  0  0.940817  0  0  0.407443  0  0.924445  0  0  0.28509  0.388203  0  0.952391  0
H  H10  1  0.46055113  0.28491442  0.12651582  1  0  0.112931  0  0.975567  0  0  0.121126  0  1.037855  0  0  0.125204  0  1.03521  0  0  0.108385  0.11819  0  1.039833  0
H  H11  1  0.53944582  0.71508614  0.87348519  1  0  0.112888  0  0.975619  0  0  0.121115  0  1.037864  0  0  0.125195  0  1.035219  0  0  0.108374  0.118176  0  1.039842  0
H  H12  1  0.62197121  0.14055571  0.12001035  1  0  0.096248  0  0.957448  0  0  0.104803  0  1.022988  0  0  0.107058  0  1.022784  0  0  0.104  0.103173  0  1.023203  0
H  H13  1  0.37802954  0.85944487  0.87999154  1  0  0.096376  0  0.957339  0  0  0.104905  0  1.022907  0  0  0.107167  0  1.022686  0  0  0.104035  0.103274  0  1.023125  0
H  H14  1  0.03588800  0.47651691  0.07774013  1  0  0.099043  0  0.955009  0  0  0.10824  0  1.019339  0  0  0.112059  0  1.016304  0  0  0.114679  0.105483  0  1.021579  0
H  H15  1  0.96411528  0.52348368  0.92226187  1  0  0.09904  0  0.954995  0  0  0.108223  0  1.019349  0  0  0.112042  0  1.016314  0  0  0.114669  0.105463  0  1.021589  0
H  H16  1  0.60540314  0.21989207  0.46266270  1  0  0.101207  0  0.947506  0  0  0.114516  0  1.002128  0  0  0.117794  0  0.999829  0  0  0.110956  0.112089  0  1.003904  0
H  H17  1  0.39459380  0.78010849  0.53733831  1  0  0.101222  0  0.94749  0  0  0.114525  0  1.002116  0  0  0.117808  0  0.999817  0  0  0.11096  0.112095  0  1.003894  0
H  H18  1  0.90169514  0.58141485  0.41001487  1  0  0.093054  0  0.958446  0  0  0.10525  0  1.018268  0  0  0.10757  0  1.018152  0  0  0.104604  0.103575  0  1.018448  0
H  H19  1  0.09830519  0.41858199  0.58998131  1  0  0.093081  0  0.958458  0  0  0.105282  0  1.018274  0  0  0.107602  0  1.018159  0  0  0.104628  0.103604  0  1.018453  0
H  H20  1  0.00613958  0.22387570  0.26544699  1  0  0.090316  0  0.967288  0  0  0.100586  0  1.03328  0  0  0.103978  0  1.031262  0  0  0.10171  0.098143  0  1.034871  0
H  H21  1  0.99385315  0.77611834  0.73454922  1  0  0.090324  0  0.967296  0  0  0.1006  0  1.03329  0  0  0.10398  0  1.031287  0  0  0.101697  0.098153  0  1.034886  0
H  H22  1  0.75420426  0.61060536  0.56479691  1  0  0.095562  0  0.947832  0  0  0.105987  0  1.010855  0  0  0.109107  0  1.008846  0  0  0.10492  0.103752  0  1.012327  0
H  H23  1  0.24579775  0.38939518  0.43520077  1  0  0.095576  0  0.947795  0  0  0.106001  0  1.010833  0  0  0.109121  0  1.008824  0  0  0.104916  0.103767  0  1.012311  0
H  H24  1  0.73849311  0.18756693  0.30226962  1  0  0.098134  0  0.964089  0  0  0.107047  0  1.028022  0  0  0.110108  0  1.026586  0  0  0.10298  0.104866  0  1.029085  0
H  H25  1  0.26150342  0.81242993  0.69772996  1  0  0.09816  0  0.964079  0  0  0.107056  0  1.028028  0  0  0.110119  0  1.02659  0  0  0.102993  0.104874  0  1.029094  0
H  H26  1  0.13582431  0.88223334  0.10930054  1  0  0.093034  0  0.971724  0  0  0.098711  0  1.042933  0  0  0.102242  0  1.040249  0  0  0.101789  0.096114  0  1.044979  0
H  H27  1  0.86417263  0.11776442  0.89069727  1  0  0.093044  0  0.971731  0  0  0.09871  0  1.042937  0  0  0.102241  0  1.040256  0  0  0.101795  0.096116  0  1.044976  0
H  H28  1  0.97498992  0.02873129  0.11971256  1  0  0.10409  0  0.968671  0  0  0.112444  0  1.033228  0  0  0.115781  0  1.031689  0  0  0.102299  0.110006  0  1.034526  0
H  H29  1  0.02500872  0.97126741  0.88028568  1  0  0.104062  0  0.968665  0  0  0.112412  0  1.033248  0  0  0.11575  0  1.031706  0  0  0.102286  0.109975  0  1.034547  0
H  H30  1  0.98877509  0.85871691  0.28455781  1  0  0.037816  0  0.948082  0  0  0.044627  0  1.024233  0  0  0.046787  0  1.018431  0  0  0.125717  0.042862  0  1.02848  0
H  H31  1  0.01122776  0.14128552  0.71544418  1  0  0.037836  0  0.94807  0  0  0.044649  0  1.024212  0  0  0.046807  0  1.018417  0  0  0.125727  0.042888  0  1.028452  0
H  H32  1  0.00073686  0.20913480  0.43372130  1  0  0.085439  0  0.958435  0  0  0.106918  0  1.025326  0  0  0.106453  0  1.02638  0  0  0.098237  0.107146  0  1.024677  0
H  H33  1  0.99926557  0.79086669  0.56627960  1  0  0.085427  0  0.958451  0  0  0.10691  0  1.025335  0  0  0.106442  0  1.026392  0  0  0.098241  0.107141  0  1.024681  0
H  H34  1  0.08080273  0.19417820  0.54767675  1  0  0.104137  0  0.94403  0  0  0.123837  0  1.009181  0  0  0.12439  0  1.009227  0  0  0.112095  0.12333  0  1.009244  0
H  H35  1  0.91919759  0.80582423  0.45232513  1  0  0.104112  0  0.943956  0  0  0.123811  0  1.009113  0  0  0.124364  0  1.009157  0  0  0.112085  0.123305  0  1.009174  0
H  H36  1  0.85446401  0.10973188  0.47288105  1  0  0.116082  0  0.932198  0  0  0.136627  0  0.990483  0  0  0.138308  0  0.989054  0  0  0.114141  0.135308  0  0.991604  0
H  H37  1  0.14553716  0.89026961  0.52711908  1  0  0.116079  0  0.932227  0  0  0.136624  0  0.990509  0  0  0.138304  0  0.989084  0  0  0.114152  0.135306  0  0.991633  0
H  H38  1  0.25947727  0.97424448  0.34799277  1  0  0.107564  0  0.945395  0  0  0.125959  0  1.011302  0  0  0.127254  0  1.010226  0  0  0.110453  0.124887  0  1.012188  0
H  H39  1  0.74052685  0.02575796  0.65200927  1  0  0.107544  0  0.945388  0  0  0.125951  0  1.011276  0  0  0.127246  0  1.0102  0  0  0.110449  0.124876  0  1.012164  0
H  H40  1  0.31283322  0.10205413  0.48135237  1  0  0.113052  0  0.9381  0  0  0.130747  0  1.002372  0  0  0.132528  0  1.000893  0  0  0.111357  0.129357  0  1.003572  0
H  H41  1  0.68716922  0.89794737  0.51864925  1  0  0.113061  0  0.938155  0  0  0.130725  0  1.002453  0  0  0.132506  0  1.000975  0  0  0.111349  0.129333  0  1.003647  0
H  H42  1  0.28490919  0.12736907  0.36639405  1  0  0.094678  0  0.936731  0  0  0.114176  0  1.000592  0  0  0.11414  0  1.002204  0  0  0.098765  0.114124  0  0.999506  0
H  H43  1  0.71509325  0.87263243  0.63360756  1  0  0.094696  0  0.936729  0  0  0.114196  0  1.000577  0  0  0.114161  0  1.002188  0  0  0.098763  0.11414  0  0.999493  0
C  C44  1  0.22545086  0.32712731  0.00436327  1  0  0.681503  0  3.898708  0  0  0.630118  0  4.197786  0  0  0.664929  0  4.187792  0  0  0.221302  0.606495  0  4.203779  0
C  C45  1  0.77455158  0.67287419  0.99563835  1  0  0.681488  0  3.898706  0  0  0.630097  0  4.19778  0  0  0.664911  0  4.187792  0  0  0.221264  0.606461  0  4.203783  0
C  C46  1  0.12002424  0.33321412  0.09016245  1  0  -0.090533  0  3.692351  0  0  -0.074539  0  3.932883  0  0  -0.081238  0  3.952087  0  0  -0.004018  -0.070364  0  3.92016  0
C  C47  1  0.87997481  0.66678552  0.90983830  1  0  -0.090559  0  3.692266  0  0  -0.074513  0  3.932738  0  0  -0.08124  0  3.951955  0  0  -0.004005  -0.070325  0  3.919991  0
C  C48  1  0.48764624  0.91523661  0.11293997  1  0  0.668315  0  3.811862  0  0  0.619266  0  4.102103  0  0  0.6538  0  4.092567  0  0  0.2436  0.595816  0  4.107987  0
C  C49  1  0.51235239  0.08476487  0.88706005  1  0  0.668349  0  3.811752  0  0  0.619228  0  4.102109  0  0  0.653762  0  4.09257  0  0  0.243564  0.59577  0  4.108006  0
C  C50  1  0.66927816  0.41659517  0.52259042  1  0  -0.081421  0  3.770664  0  0  -0.058894  0  4.006121  0  0  -0.068043  0  4.029102  0  0  -0.019977  -0.052954  0  3.990651  0
C  C51  1  0.33072301  0.58340632  0.47740971  1  0  -0.081413  0  3.770664  0  0  -0.058902  0  4.006131  0  0  -0.068049  0  4.029112  0  0  -0.019989  -0.052962  0  3.990662  0
C  C52  1  0.81238317  0.51952636  0.20990925  1  0  0.671955  0  3.910849  0  0  0.6197  0  4.211797  0  0  0.654055  0  4.202142  0  0  0.218649  0.596424  0  4.217538  0
C  C53  1  0.18761335  0.48047048  0.79008819  1  0  0.671942  0  3.910814  0  0  0.619718  0  4.211724  0  0  0.654074  0  4.202067  0  0  0.218656  0.596437  0  4.217468  0
C  C54  1  0.10697415  0.25763368  0.14117813  1  0  0.062443  0  3.736583  0  0  0.065168  0  3.975781  0  0  0.068245  0  3.996737  0  0  0.004995  0.063154  0  3.961602  0
C  C55  1  0.89302575  0.74236502  0.85882017  1  0  0.062468  0  3.736579  0  0  0.06518  0  3.975806  0  0  0.068301  0  3.996711  0  0  0.004961  0.063165  0  3.961619  0
C  C56  1  0.38774581  0.19740296  0.12342373  1  0  -0.103242  0  3.688038  0  0  -0.125379  0  3.941065  0  0  -0.128589  0  3.958976  0  0  -0.087894  -0.123342  0  3.929113  0
C  C57  1  0.61225072  0.80259667  0.87657691  1  0  -0.103166  0  3.687959  0  0  -0.12531  0  3.941007  0  0  -0.128511  0  3.958895  0  0  -0.087872  -0.12327  0  3.929059  0
C  C58  1  0.57630188  0.42900368  0.61229476  1  0  0.658628  0  3.820369  0  0  0.609755  0  4.113711  0  0  0.643846  0  4.104815  0  0  0.239478  0.586596  0  4.119223  0
C  C59  1  0.42370183  0.57099504  0.38770584  1  0  0.658672  0  3.820315  0  0  0.609822  0  4.113604  0  0  0.643914  0  4.104708  0  0  0.239503  0.586655  0  4.119127  0
C  C60  1  0.48023869  0.11654196  0.12080662  1  0  -0.051537  0  3.735865  0  0  -0.077784  0  3.990166  0  0  -0.076525  0  4.010571  0  0  -0.081952  -0.078426  0  3.97634  0
C  C61  1  0.51975826  0.88345860  0.87919439  1  0  -0.051669  0  3.73582  0  0  -0.077901  0  3.99015  0  0  -0.076642  0  4.010563  0  0  -0.081959  -0.078544  0  3.976324  0
C  C62  1  0.02779514  0.41998597  0.11886199  1  0  -0.080423  0  3.727299  0  0  -0.112669  0  3.975566  0  0  -0.111408  0  3.993765  0  0  -0.070218  -0.113304  0  3.963392  0
C  C63  1  0.97220772  0.58001367  0.88113822  1  0  -0.080502  0  3.72729  0  0  -0.112765  0  3.975562  0  0  -0.1115  0  3.993769  0  0  -0.070249  -0.113397  0  3.963376  0
C  C64  1  0.66850266  0.29801513  0.44910378  1  0  -0.055176  0  3.736916  0  0  -0.078866  0  3.980818  0  0  -0.077198  0  3.999891  0  0  -0.07638  -0.07974  0  3.967852  0
C  C65  1  0.33149640  0.70198452  0.55089697  1  0  -0.055215  0  3.736992  0  0  -0.078904  0  3.980894  0  0  -0.077241  0  3.999972  0  0  -0.076391  -0.079774  0  3.967919  0
C  C66  1  0.82670763  0.38212737  0.34320215  1  0  0.07293  0  3.755809  0  0  0.085128  0  3.990289  0  0  0.086511  0  4.012965  0  0  0.003535  0.084232  0  3.974938  0
C  C67  1  0.17329059  0.61787040  0.65679572  1  0  0.072952  0  3.75601  0  0  0.085228  0  3.990374  0  0  0.086617  0  4.013051  0  0  0.003526  0.084332  0  3.975017  0
C  C68  1  0.83194503  0.50127533  0.41927377  1  0  -0.108426  0  3.722054  0  0  -0.129899  0  3.976298  0  0  -0.133682  0  3.997129  0  0  -0.086527  -0.127454  0  3.962299  0
C  C69  1  0.16805529  0.49872430  0.58072562  1  0  -0.108514  0  3.722158  0  0  -0.130007  0  3.976361  0  0  -0.133794  0  3.997195  0  0  -0.086531  -0.127549  0  3.962355  0
C  C70  1  0.00538324  0.27594164  0.22077130  1  0  -0.138705  0  3.696829  0  0  -0.167991  0  3.955843  0  0  -0.171564  0  3.973638  0  0  -0.08121  -0.165577  0  3.943816  0
C  C71  1  0.99461117  0.72405612  0.77922711  1  0  -0.138702  0  3.696729  0  0  -0.167987  0  3.955768  0  0  -0.171564  0  3.97356  0  0  -0.081139  -0.165574  0  3.943738  0
C  C72  1  0.39208716  0.00319105  0.11751713  1  0  -0.104661  0  3.798262  0  0  -0.080601  0  4.030714  0  0  -0.090706  0  4.05497  0  0  -0.024981  -0.073983  0  4.0143  0
C  C73  1  0.60791190  0.99680858  0.88248291  1  0  -0.104681  0  3.798239  0  0  -0.080651  0  4.03077  0  0  -0.090754  0  4.055024  0  0  -0.025024  -0.074039  0  4.014364  0
C  C74  1  0.91436579  0.36322154  0.25094651  1  0  0.04963  0  3.748018  0  0  0.053938  0  3.986282  0  0  0.056283  0  4.008181  0  0  0.000377  0.052458  0  3.971401  0
C  C75  1  0.08563412  0.63677439  0.74905144  1  0  0.049582  0  3.747979  0  0  0.053838  0  3.98627  0  0  0.056178  0  4.008174  0  0  0.000355  0.052362  0  3.971382  0
C  C76  1  0.92237759  0.43454169  0.19589025  1  0  -0.084947  0  3.69554  0  0  -0.068313  0  3.932421  0  0  -0.074805  0  3.952068  0  0  -0.0067  -0.064217  0  3.919253  0
C  C77  1  0.07762104  0.56545700  0.80410799  1  0  -0.084764  0  3.69552  0  0  -0.068112  0  3.932369  0  0  -0.074605  0  3.952018  0  0  -0.006622  -0.06402  0  3.919199  0
C  C78  1  0.75255770  0.51839139  0.50716337  1  0  -0.047171  0  3.727473  0  0  -0.076769  0  3.986767  0  0  -0.074978  0  4.005761  0  0  -0.07964  -0.077769  0  3.973867  0
C  C79  1  0.24744474  0.48160733  0.49283575  1  0  -0.047123  0  3.727318  0  0  -0.076737  0  3.986621  0  0  -0.074945  0  4.005613  0  0  -0.079613  -0.077744  0  3.973735  0
C  C80  1  0.74465457  0.28089262  0.36021761  1  0  -0.120443  0  3.740159  0  0  -0.138185  0  3.990454  0  0  -0.142404  0  4.011412  0  0  -0.088623  -0.135363  0  3.976266  0
C  C81  1  0.25534365  0.71910518  0.63978311  1  0  -0.120437  0  3.74027  0  0  -0.138178  0  3.990526  0  0  -0.142407  0  4.011497  0  0  -0.08862  -0.135353  0  3.976333  0
C  C82  1  0.20540541  0.16817644  0.12543871  1  0  0.076561  0  3.74289  0  0  0.090216  0  3.975797  0  0  0.092096  0  3.997136  0  0  0.00339  0.089024  0  3.961311  0
C  C83  1  0.79459196  0.83182226  0.87456018  1  0  0.076531  0  3.742853  0  0  0.090143  0  3.975837  0  0  0.092011  0  3.997175  0  0  0.003373  0.088949  0  3.961349  0
C  C84  1  0.20841338  0.97152196  0.11565154  1  0  -0.050948  0  3.742303  0  0  -0.077417  0  3.994879  0  0  -0.076224  0  4.015229  0  0  -0.081025  -0.077984  0  3.981037  0
C  C85  1  0.79158357  0.02847581  0.88434769  1  0  -0.050947  0  3.742336  0  0  -0.077376  0  3.9949  0  0  -0.076184  0  4.015249  0  0  -0.080986  -0.077935  0  3.981056  0
C  C86  1  0.11729796  0.05377468  0.12104777  1  0  -0.117986  0  3.722926  0  0  -0.134862  0  3.970435  0  0  -0.13934  0  3.991305  0  0  -0.089007  -0.131862  0  3.956254  0
C  C87  1  0.88269898  0.94622309  0.87895075  1  0  -0.117986  0  3.722882  0  0  -0.134857  0  3.970405  0  0  -0.139337  0  3.991282  0  0  -0.089042  -0.131858  0  3.956223  0
C  C88  1  0.92762207  0.92797558  0.33366779  1  0  0.397411  0  3.833261  0  0  0.323397  0  4.126228  0  0  0.351953  0  4.12588  0  0  0.176683  0.304315  0  4.125873  0
C  C89  1  0.07238290  0.07202593  0.66633393  1  0  0.39739  0  3.83332  0  0  0.323395  0  4.126251  0  0  0.35195  0  4.1259  0  0  0.176654  0.304314  0  4.125897  0
C  C90  1  0.99281283  0.14426003  0.46726049  1  0  -0.168395  0  3.647723  0  0  -0.269958  0  3.89263  0  0  -0.265749  0  3.902514  0  0  -0.131573  -0.27254  0  3.885916  0
C  C91  1  0.00718960  0.85574146  0.53274041  1  0  -0.16834  0  3.64763  0  0  -0.269901  0  3.892543  0  0  -0.26569  0  3.902426  0  0  -0.131568  -0.272485  0  3.885827  0
C  C92  1  0.23719916  0.06226518  0.39843964  1  0  -0.18279  0  3.66578  0  0  -0.283739  0  3.915178  0  0  -0.281018  0  3.926346  0  0  -0.132983  -0.28528  0  3.907565  0
C  C93  1  0.76280496  0.93773726  0.60156312  1  0  -0.182774  0  3.665801  0  0  -0.283709  0  3.915202  0  0  -0.280987  0  3.92637  0  0  -0.132957  -0.285245  0  3.907585  0
N  N94  1  0.04757289  0.04002911  0.39807207  1  0  -0.092644  0  3.498569  0  0  0.01312  0  3.731043  0  0  -0.007749  0  3.757046  0  0  -0.283042  0.027127  0  3.712942  0
N  N95  1  0.95242954  0.95997240  0.60192955  1  0  -0.092701  0  3.498513  0  0  0.013047  0  3.730999  0  0  -0.007821  0  3.756999  0  0  -0.283071  0.027047  0  3.712907  0
O  O96  1  0.32449275  0.42972474  0.01471762  1  0  -0.714195  0  1.957825  0  0  -0.652193  0  2.19659  0  0  -0.680072  0  2.188094  0  0  -0.38011  -0.632438  0  2.201773  0
O  O97  1  0.67550758  0.57027490  0.98528319  1  0  -0.714211  0  1.957784  0  0  -0.652206  0  2.196547  0  0  -0.680088  0  2.18805  0  0  -0.380119  -0.632444  0  2.20173  0
O  O98  1  0.20551007  0.22251770  0.92320822  1  0  -0.691322  0  2.005968  0  0  -0.633209  0  2.244424  0  0  -0.660241  0  2.234476  0  0  -0.338255  -0.61405  0  2.250102  0
O  O99  1  0.79448941  0.77748286  0.07679148  1  0  -0.691345  0  2.005968  0  0  -0.633241  0  2.244434  0  0  -0.660262  0  2.234461  0  0  -0.33825  -0.614082  0  2.250123  0
O  O100  1  0.64421712  0.47531225  0.20025372  1  0  -0.693422  0  2.04656  0  0  -0.633536  0  2.28247  0  0  -0.660089  0  2.273401  0  0  -0.348103  -0.614759  0  2.28806  0
O  O101  1  0.35578278  0.52468644  0.79974386  1  0  -0.693464  0  2.046498  0  0  -0.633594  0  2.282399  0  0  -0.660148  0  2.273332  0  0  -0.348127  -0.614812  0  2.28799  0
O  O102  1  0.66401787  0.95866141  0.12635638  1  0  -0.555296  0  2.112234  0  0  -0.503133  0  2.335426  0  0  -0.525923  0  2.31934  0  0  -0.319906  -0.487267  0  2.344187  0
O  O103  1  0.33598330  0.04134008  0.87364517  1  0  -0.555256  0  2.112246  0  0  -0.503017  0  2.335449  0  0  -0.52581  0  2.319356  0  0  -0.319839  -0.487147  0  2.344205  0
O  O104  1  0.88694878  0.62876086  0.22447566  1  0  -0.663729  0  1.961039  0  0  -0.605952  0  2.187688  0  0  -0.632597  0  2.178321  0  0  -0.325054  -0.587233  0  2.19353  0
O  O105  1  0.11305239  0.37123785  0.77552269  1  0  -0.663704  0  1.961053  0  0  -0.605952  0  2.187712  0  0  -0.632595  0  2.178344  0  0  -0.325065  -0.587233  0  2.193553  0
O  O106  1  0.40961974  0.80812916  0.09709364  1  0  -0.627207  0  1.975407  0  0  -0.568855  0  2.197705  0  0  -0.592536  0  2.188276  0  0  -0.31763  -0.552512  0  2.203875  0
O  O107  1  0.59038016  0.19186955  0.90290608  1  0  -0.627232  0  1.975453  0  0  -0.568856  0  2.197782  0  0  -0.592535  0  2.188349  0  0  -0.31762  -0.55251  0  2.203952  0
O  O108  1  0.56956772  0.54267163  0.67227031  1  0  -0.551245  0  2.138233  0  0  -0.498866  0  2.361225  0  0  -0.523026  0  2.352671  0  0  -0.317318  -0.482079  0  2.36666  0
O  O109  1  0.43043260  0.45732799  0.32772836  1  0  -0.551296  0  2.138293  0  0  -0.498894  0  2.361263  0  0  -0.523054  0  2.352708  0  0  -0.31734  -0.482105  0  2.36669  0
O  O110  1  0.50729578  0.33983900  0.62842290  1  0  -0.619831  0  1.950762  0  0  -0.5694  0  2.176762  0  0  -0.591852  0  2.167396  0  0  -0.32729  -0.553893  0  2.182841  0
O  O111  1  0.49270961  0.66016342  0.37157706  1  0  -0.619888  0  1.950654  0  0  -0.569467  0  2.176635  0  0  -0.59192  0  2.16727  0  0  -0.327329  -0.553951  0  2.182706  0
O  O112  1  0.22980603  0.72837334  0.22331489  1  0  -0.88371  0  1.771484  0  0  -0.829666  0  1.931181  0  0  -0.849127  0  1.900469  0  0  -0.631843  -0.815732  0  1.952736  0
O  O113  1  0.77019345  0.27162722  0.77668624  1  0  -0.883764  0  1.771429  0  0  -0.829699  0  1.931161  0  0  -0.84916  0  1.900446  0  0  -0.631857  -0.815766  0  1.952716  0
O  O114  1  0.76264416  0.90064579  0.32834892  1  0  -0.58329  0  1.979792  0  0  -0.5309  0  2.216412  0  0  -0.553787  0  2.208955  0  0  -0.352391  -0.514922  0  2.220934  0
O  O115  1  0.23735658  0.09935477  0.67165084  1  0  -0.583278  0  1.979866  0  0  -0.530901  0  2.216477  0  0  -0.553786  0  2.209021  0  0  -0.352379  -0.514925  0  2.221002  0
