# generated using pymatgen
data_UAgH9(C3O2)4
_symmetry_space_group_name_H-M   'P 1'
_cell_length_a   8.17471182
_cell_length_b   10.17327972
_cell_length_c   18.32458776
_cell_angle_alpha   82.63735066
_cell_angle_beta   77.12048696
_cell_angle_gamma   66.32182651
_symmetry_Int_Tables_number   1
_chemical_formula_structural   UAgH9(C3O2)4
_chemical_formula_sum   'U4 Ag4 H36 C48 O32'
_cell_volume   1359.25987530
_cell_formula_units_Z   4
loop_
 _symmetry_equiv_pos_site_id
 _symmetry_equiv_pos_as_xyz
  1  'x, y, z'
loop_
 _atom_site_type_symbol
 _atom_site_label
 _atom_site_symmetry_multiplicity
 _atom_site_fract_x
 _atom_site_fract_y
 _atom_site_fract_z
 _atom_site_occupancy
 _atom_site_hle17_bader_spin_density
 _atom_site_hle17_ddec_charge
 _atom_site_hle17_ddec_spin_density
 _atom_site_hle17_ddec_sum_bond_order
 _atom_site_hle17_magmom
 _atom_site_hse06_10hf_bader_spin_density
 _atom_site_hse06_10hf_ddec_charge
 _atom_site_hse06_10hf_ddec_spin_density
 _atom_site_hse06_10hf_ddec_sum_bond_order
 _atom_site_hse06_10hf_magmom
 _atom_site_hse06_bader_spin_density
 _atom_site_hse06_ddec_charge
 _atom_site_hse06_ddec_spin_density
 _atom_site_hse06_ddec_sum_bond_order
 _atom_site_hse06_magmom
 _atom_site_pbe_bader_spin_density
 _atom_site_pbe_cm5_charge
 _atom_site_pbe_ddec_charge
 _atom_site_pbe_ddec_spin_density
 _atom_site_pbe_ddec_sum_bond_order
 _atom_site_pbe_magmom
U  U0  1  0.66423879  0.70760983  0.02496842  1  0  2.479726  0  4.115671  0  0  2.550395  0  4.769278  0  0  2.664136  0  4.732066  0  0  2.170565  2.469414  0  4.796488  0
U  U1  1  0.39704749  0.79217728  0.47505094  1  0  2.479286  0  4.118481  0  0  2.55  0  4.77158  0  0  2.663656  0  4.734597  0  0  2.170871  2.46934  0  4.798629  0
U  U2  1  0.33575370  0.29239091  0.97503124  1  0  2.479729  0  4.11583  0  0  2.5504  0  4.769473  0  0  2.664139  0  4.732267  0  0  2.170609  2.469381  0  4.796739  0
U  U3  1  0.60295325  0.20782241  0.52494474  1  0  2.479155  0  4.118264  0  0  2.549894  0  4.771356  0  0  2.663546  0  4.73439  0  0  2.17076  2.469268  0  4.798348  0
Ag  Ag4  1  0.11043693  0.00222359  0.07312577  1  0  0.710671  0  1.43303  0  0  0.627478  0  1.854125  0  0  0.645745  0  1.808783  0  0  0.541257  0.616498  0  1.885063  0
Ag  Ag5  1  0.18585176  0.49773442  0.42683352  1  0  0.710741  0  1.433242  0  0  0.627838  0  1.853895  0  0  0.64595  0  1.808599  0  0  0.54118  0.616334  0  1.885558  0
Ag  Ag6  1  0.88956085  0.99778144  0.92687520  1  0  0.710675  0  1.432984  0  0  0.627474  0  1.854078  0  0  0.645739  0  1.808739  0  0  0.541257  0.616495  0  1.885014  0
Ag  Ag7  1  0.81415360  0.50226418  0.57316565  1  0  0.710738  0  1.433262  0  0  0.627847  0  1.853909  0  0  0.64596  0  1.808611  0  0  0.541167  0.616347  0  1.88557  0
H  H8  1  0.17060352  0.86141890  0.30336163  1  0  0.114161  0  0.956445  0  0  0.123262  0  1.020049  0  0  0.126261  0  1.01941  0  0  0.106692  0.121209  0  1.020645  0
H  H9  1  0.33548741  0.63863024  0.19660881  1  0  0.113877  0  0.955903  0  0  0.123211  0  1.019279  0  0  0.126093  0  1.018792  0  0  0.106308  0.121086  0  1.019987  0
H  H10  1  0.82939913  0.13858292  0.69663735  1  0  0.114159  0  0.956493  0  0  0.123247  0  1.02011  0  0  0.126245  0  1.019473  0  0  0.106701  0.121194  0  1.020704  0
H  H11  1  0.66451252  0.36137048  0.80339347  1  0  0.11389  0  0.955923  0  0  0.123235  0  1.019282  0  0  0.126117  0  1.018793  0  0  0.106319  0.121111  0  1.019987  0
H  H12  1  0.63449720  0.05319734  0.25118090  1  0  0.099878  0  0.947984  0  0  0.111595  0  1.011027  0  0  0.114036  0  1.010536  0  0  0.101595  0.10989  0  1.011504  0
H  H13  1  0.93871688  0.44692185  0.24879694  1  0  0.099239  0  0.948946  0  0  0.111274  0  1.011772  0  0  0.113617  0  1.011406  0  0  0.101347  0.109712  0  1.011942  0
H  H14  1  0.36550634  0.94679803  0.74881797  1  0  0.099857  0  0.948012  0  0  0.111576  0  1.011052  0  0  0.114017  0  1.010564  0  0  0.101575  0.109871  0  1.011528  0
H  H15  1  0.06128567  0.55307674  0.75120253  1  0  0.099227  0  0.948931  0  0  0.11126  0  1.011769  0  0  0.113602  0  1.011405  0  0  0.101343  0.109698  0  1.011939  0
H  H16  1  0.03851902  0.22323758  0.14473027  1  0  0.120454  0  0.950398  0  0  0.127334  0  1.01557  0  0  0.130456  0  1.014181  0  0  0.1112  0.125233  0  1.016546  0
H  H17  1  0.40646607  0.27665330  0.35515836  1  0  0.120931  0  0.949586  0  0  0.127303  0  1.015396  0  0  0.130446  0  1.013972  0  0  0.1113  0.125177  0  1.016425  0
H  H18  1  0.96147816  0.77676637  0.85527061  1  0  0.120489  0  0.950311  0  0  0.127354  0  1.015495  0  0  0.130475  0  1.014111  0  0  0.111204  0.125253  0  1.01647  0
H  H19  1  0.59353421  0.72334422  0.64484143  1  0  0.120951  0  0.949588  0  0  0.127329  0  1.015384  0  0  0.130471  0  1.013963  0  0  0.111321  0.125202  0  1.016411  0
H  H20  1  0.38390832  0.98337285  0.25475331  1  0  0.128645  0  0.916663  0  0  0.144652  0  0.972228  0  0  0.147038  0  0.970467  0  0  0.114128  0.143077  0  0.973551  0
H  H21  1  0.62217232  0.51644822  0.24531139  1  0  0.128323  0  0.916219  0  0  0.144168  0  0.97172  0  0  0.146557  0  0.969954  0  0  0.11385  0.142561  0  0.973052  0
H  H22  1  0.61608983  0.01662681  0.74524754  1  0  0.128656  0  0.916603  0  0  0.14464  0  0.972184  0  0  0.147025  0  0.970426  0  0  0.114121  0.143064  0  0.973509  0
H  H23  1  0.37782908  0.48354822  0.75468910  1  0  0.128323  0  0.91634  0  0  0.14418  0  0.971823  0  0  0.146569  0  0.970061  0  0  0.113875  0.142573  0  0.973155  0
H  H24  1  0.34680233  0.11323754  0.17935994  1  0  0.136828  0  0.908139  0  0  0.153865  0  0.960494  0  0  0.156331  0  0.959604  0  0  0.118661  0.152161  0  0.961276  0
H  H25  1  0.63916536  0.38658932  0.32067836  1  0  0.13657  0  0.907849  0  0  0.153365  0  0.960167  0  0  0.155824  0  0.959293  0  0  0.118428  0.151623  0  0.960948  0
H  H26  1  0.65320082  0.88676105  0.82064020  1  0  0.136816  0  0.908142  0  0  0.153841  0  0.960495  0  0  0.156305  0  0.959608  0  0  0.118642  0.152138  0  0.961274  0
H  H27  1  0.36083705  0.61340605  0.67932038  1  0  0.136655  0  0.90782  0  0  0.153415  0  0.960186  0  0  0.155876  0  0.959314  0  0  0.118433  0.151675  0  0.960964  0
H  H28  1  0.95476903  0.75922781  0.35819904  1  0  0.123506  0  0.925129  0  0  0.133808  0  0.995709  0  0  0.138565  0  0.99096  0  0  0.110797  0.130172  0  0.999551  0
H  H29  1  0.07211148  0.74093362  0.14181609  1  0  0.122806  0  0.925098  0  0  0.133047  0  0.996141  0  0  0.137844  0  0.991361  0  0  0.110183  0.129346  0  0.999967  0
H  H30  1  0.04523733  0.24076864  0.64179896  1  0  0.123517  0  0.925182  0  0  0.133821  0  0.995753  0  0  0.138571  0  0.991016  0  0  0.110815  0.130198  0  0.999589  0
H  H31  1  0.92788522  0.25907140  0.85818598  1  0  0.122757  0  0.925129  0  0  0.133005  0  0.996166  0  0  0.137808  0  0.991379  0  0  0.110169  0.129302  0  0.999997  0
H  H32  1  0.75925513  0.80115299  0.32107705  1  0  0.136031  0  0.931357  0  0  0.149397  0  0.98948  0  0  0.152333  0  0.98818  0  0  0.116752  0.147366  0  0.990434  0
H  H33  1  0.88145825  0.69892357  0.17889874  1  0  0.136056  0  0.931472  0  0  0.149619  0  0.989602  0  0  0.152571  0  0.988309  0  0  0.116513  0.147516  0  0.99062  0
H  H34  1  0.24074956  0.19884346  0.67892138  1  0  0.136008  0  0.931312  0  0  0.149373  0  0.98945  0  0  0.152307  0  0.988151  0  0  0.116754  0.14735  0  0.990408  0
H  H35  1  0.11853678  0.30108145  0.82110375  1  0  0.136107  0  0.93136  0  0  0.149667  0  0.989507  0  0  0.152626  0  0.988194  0  0  0.116514  0.147561  0  0.990528  0
H  H36  1  0.70201160  0.35483741  0.13506564  1  0  0.152329  0  0.948639  0  0  0.171718  0  0.996506  0  0  0.174316  0  0.99463  0  0  0.116006  0.170098  0  0.997905  0
H  H37  1  0.19146941  0.14524254  0.36489269  1  0  0.152108  0  0.947738  0  0  0.171955  0  0.994941  0  0  0.174507  0  0.993081  0  0  0.115896  0.17028  0  0.996468  0
H  H38  1  0.29798668  0.64516439  0.86493650  1  0  0.152339  0  0.94861  0  0  0.171735  0  0.99649  0  0  0.174334  0  0.994613  0  0  0.115997  0.170113  0  0.997892  0
H  H39  1  0.80853306  0.85475391  0.63510670  1  0  0.152105  0  0.947787  0  0  0.171892  0  0.995059  0  0  0.17448  0  0.993141  0  0  0.115884  0.170221  0  0.996585  0
H  H40  1  0.54679975  0.27545535  0.17625550  1  0  0.12154  0  0.93943  0  0  0.136609  0  0.997629  0  0  0.13766  0  0.999102  0  0  0.107688  0.136021  0  0.996476  0
H  H41  1  0.99815465  0.22475310  0.32369057  1  0  0.122004  0  0.937759  0  0  0.136578  0  0.996527  0  0  0.137629  0  0.997992  0  0  0.107622  0.13589  0  0.99564  0
H  H42  1  0.45319746  0.72454752  0.82374716  1  0  0.121491  0  0.939503  0  0  0.136579  0  0.997692  0  0  0.13763  0  0.999166  0  0  0.107676  0.135999  0  0.996531  0
H  H43  1  0.00184676  0.77524441  0.67630935  1  0  0.121999  0  0.937772  0  0  0.136588  0  0.996515  0  0  0.137637  0  0.997986  0  0  0.107617  0.1359  0  0.995628  0
C  C44  1  0.13159838  0.03315058  0.21837011  1  0  0.129046  0  3.764548  0  0  0.146635  0  4.008592  0  0  0.148918  0  4.031742  0  0  -0.01777  0.145394  0  3.992879  0
C  C45  1  0.38313669  0.46679200  0.28153070  1  0  0.130008  0  3.762362  0  0  0.146069  0  4.008529  0  0  0.148343  0  4.031678  0  0  -0.017961  0.144667  0  3.992673  0
C  C46  1  0.86839873  0.96685231  0.78163011  1  0  0.128975  0  3.764812  0  0  0.146593  0  4.00879  0  0  0.148877  0  4.031929  0  0  -0.017776  0.145353  0  3.993072  0
C  C47  1  0.61686204  0.53320765  0.71847081  1  0  0.130043  0  3.762371  0  0  0.146117  0  4.008537  0  0  0.148395  0  4.031685  0  0  -0.017985  0.144713  0  3.992679  0
C  C48  1  0.07471973  0.94042749  0.27103188  1  0  -0.167811  0  3.658391  0  0  -0.201532  0  3.912166  0  0  -0.206104  0  3.932236  0  0  -0.090082  -0.198919  0  3.899268  0
C  C49  1  0.28618221  0.55964884  0.22891556  1  0  -0.167369  0  3.655289  0  0  -0.201324  0  3.910102  0  0  -0.205824  0  3.930226  0  0  -0.089391  -0.19836  0  3.896775  0
C  C50  1  0.92527952  0.05957433  0.72896673  1  0  -0.1678  0  3.658417  0  0  -0.201516  0  3.912188  0  0  -0.206089  0  3.932262  0  0  -0.090097  -0.198904  0  3.899284  0
C  C51  1  0.71381820  0.44035081  0.77108553  1  0  -0.167367  0  3.655335  0  0  -0.201376  0  3.910137  0  0  -0.205876  0  3.93026  0  0  -0.089409  -0.198411  0  3.896807  0
C  C52  1  0.89612520  0.94840783  0.28404856  1  0  0.155342  0  3.758686  0  0  0.173465  0  3.998225  0  0  0.176692  0  4.021616  0  0  -0.004946  0.171682  0  3.982253  0
C  C53  1  0.12850031  0.55173006  0.21592614  1  0  0.154194  0  3.759089  0  0  0.17302  0  3.998222  0  0  0.176244  0  4.021534  0  0  -0.005097  0.17093  0  3.982348  0
C  C54  1  0.10387677  0.05159077  0.71595024  1  0  0.155461  0  3.758687  0  0  0.173571  0  3.998243  0  0  0.176798  0  4.021636  0  0  -0.004902  0.171798  0  3.982276  0
C  C55  1  0.87149859  0.44827389  0.78407553  1  0  0.15405  0  3.759248  0  0  0.17298  0  3.998243  0  0  0.176202  0  4.021569  0  0  -0.005071  0.170892  0  3.982368  0
C  C56  1  0.77290146  0.04908457  0.24230039  1  0  -0.162634  0  3.668342  0  0  -0.197771  0  3.925571  0  0  -0.20152  0  3.944944  0  0  -0.090919  -0.195388  0  3.91255  0
C  C57  1  0.06419075  0.45104150  0.25763454  1  0  -0.162987  0  3.671628  0  0  -0.198711  0  3.928813  0  0  -0.202344  0  3.948169  0  0  -0.091352  -0.196342  0  3.915728  0
C  C58  1  0.22709938  0.95091510  0.75769772  1  0  -0.162745  0  3.668388  0  0  -0.197872  0  3.925612  0  0  -0.201625  0  3.944989  0  0  -0.090971  -0.19549  0  3.912592  0
C  C59  1  0.93581015  0.54895817  0.74236479  1  0  -0.162914  0  3.671603  0  0  -0.198681  0  3.928756  0  0  -0.202316  0  3.948115  0  0  -0.091362  -0.196309  0  3.915668  0
C  C60  1  0.82213047  0.14534843  0.18973067  1  0  0.132617  0  3.76653  0  0  0.147678  0  4.016921  0  0  0.150389  0  4.040613  0  0  -0.017392  0.145968  0  4.000652  0
C  C61  1  0.15719555  0.35465719  0.31016000  1  0  0.132761  0  3.767804  0  0  0.148174  0  4.017651  0  0  0.150827  0  4.041435  0  0  -0.017062  0.146383  0  4.001542  0
C  C62  1  0.17786764  0.85465231  0.81026839  1  0  0.13267  0  3.766346  0  0  0.147757  0  4.016724  0  0  0.150471  0  4.040411  0  0  -0.017376  0.146046  0  4.000458  0
C  C63  1  0.84280582  0.64534141  0.68983814  1  0  0.132683  0  3.767746  0  0  0.14811  0  4.01758  0  0  0.150759  0  4.041375  0  0  -0.017086  0.146319  0  4.001469  0
C  C64  1  0.00326645  0.13815665  0.17854090  1  0  -0.256925  0  3.791619  0  0  -0.277561  0  4.058121  0  0  -0.282447  0  4.075762  0  0  -0.133101  -0.274312  0  4.045643  0
C  C65  1  0.32002087  0.36172903  0.32131082  1  0  -0.2569  0  3.790901  0  0  -0.277252  0  4.057927  0  0  -0.282116  0  4.075551  0  0  -0.132975  -0.27399  0  4.045778  0
C  C66  1  0.99673060  0.86184625  0.82145811  1  0  -0.256915  0  3.791534  0  0  -0.27756  0  4.058036  0  0  -0.282446  0  4.075676  0  0  -0.133082  -0.27431  0  4.045553  0
C  C67  1  0.67997994  0.63826849  0.67868843  1  0  -0.256894  0  3.790807  0  0  -0.277248  0  4.057823  0  0  -0.282113  0  4.075445  0  0  -0.13297  -0.273994  0  4.045689  0
C  C68  1  0.32895294  0.01365578  0.20269784  1  0  -0.312796  0  3.660737  0  0  -0.352516  0  3.894356  0  0  -0.357436  0  3.899835  0  0  -0.152381  -0.34932  0  3.890498  0
C  C69  1  0.54526231  0.48621066  0.29731370  1  0  -0.312392  0  3.660246  0  0  -0.350649  0  3.892325  0  0  -0.355592  0  3.897923  0  0  -0.151901  -0.347362  0  3.888456  0
C  C70  1  0.67104634  0.98634388  0.79730313  1  0  -0.312779  0  3.660835  0  0  -0.352475  0  3.894329  0  0  -0.357394  0  3.899809  0  0  -0.152386  -0.349281  0  3.890471  0
C  C71  1  0.45473968  0.51378578  0.70268745  1  0  -0.312515  0  3.660464  0  0  -0.3508  0  3.892584  0  0  -0.355751  0  3.898194  0  0  -0.151945  -0.347511  0  3.888714  0
C  C72  1  0.45101553  0.89809397  0.14698232  1  0  0.710883  0  3.788962  0  0  0.674569  0  4.088795  0  0  0.709883  0  4.081801  0  0  0.214792  0.650703  0  4.092162  0
C  C73  1  0.49606750  0.60171823  0.35305897  1  0  0.706773  0  3.793787  0  0  0.670794  0  4.092506  0  0  0.70606  0  4.085648  0  0  0.213448  0.646899  0  4.095846  0
C  C74  1  0.54898093  0.10190461  0.85301951  1  0  0.710667  0  3.789268  0  0  0.674453  0  4.088935  0  0  0.709767  0  4.081948  0  0  0.214755  0.650586  0  4.092291  0
C  C75  1  0.50393949  0.39827713  0.64694148  1  0  0.706827  0  3.793821  0  0  0.670911  0  4.092457  0  0  0.706179  0  4.085594  0  0  0.213503  0.647016  0  4.095801  0
C  C76  1  0.83671803  0.85032442  0.34204950  1  0  -0.32569  0  3.67496  0  0  -0.365512  0  3.900245  0  0  -0.37368  0  3.906574  0  0  -0.147717  -0.359696  0  3.895765  0
C  C77  1  0.02903361  0.64979859  0.15792666  1  0  -0.322587  0  3.673523  0  0  -0.363156  0  3.898992  0  0  -0.371433  0  3.905478  0  0  -0.14624  -0.357297  0  3.894744  0
C  C78  1  0.16328553  0.14967203  0.65794880  1  0  -0.325639  0  3.674883  0  0  -0.365588  0  3.900288  0  0  -0.373751  0  3.90661  0  0  -0.147754  -0.359813  0  3.895844  0
C  C79  1  0.97095869  0.35020858  0.84207621  1  0  -0.322537  0  3.673616  0  0  -0.363127  0  3.898987  0  0  -0.371405  0  3.905476  0  0  -0.146223  -0.357274  0  3.894734  0
C  C80  1  0.72042426  0.92091175  0.41431686  1  0  0.774749  0  3.746236  0  0  0.750204  0  4.032181  0  0  0.790707  0  4.017587  0  0  0.262521  0.722127  0  4.041484  0
C  C81  1  0.05565767  0.57914707  0.08567093  1  0  0.774367  0  3.747503  0  0  0.750081  0  4.033021  0  0  0.790635  0  4.018477  0  0  0.26282  0.721839  0  4.042445  0
C  C82  1  0.27958315  0.07908256  0.58568118  1  0  0.774598  0  3.746384  0  0  0.75031  0  4.031976  0  0  0.790817  0  4.017375  0  0  0.262556  0.722254  0  4.041263  0
C  C83  1  0.94433677  0.42085795  0.91433089  1  0  0.774394  0  3.747813  0  0  0.750156  0  4.033244  0  0  0.790703  0  4.018714  0  0  0.2629  0.721928  0  4.042647  0
C  C84  1  0.68638719  0.25100175  0.14528895  1  0  -0.337939  0  3.664998  0  0  -0.37698  0  3.89029  0  0  -0.384154  0  3.898836  0  0  -0.159181  -0.372206  0  3.884186  0
C  C85  1  0.08245105  0.24915874  0.35462473  1  0  -0.33746  0  3.664012  0  0  -0.376299  0  3.888639  0  0  -0.383438  0  3.897291  0  0  -0.15866  -0.371527  0  3.882836  0
C  C86  1  0.31360884  0.74900112  0.85471237  1  0  -0.337894  0  3.664999  0  0  -0.377006  0  3.890303  0  0  -0.384181  0  3.898848  0  0  -0.159195  -0.372235  0  3.884193  0
C  C87  1  0.91755144  0.75083878  0.64537410  1  0  -0.337395  0  3.664084  0  0  -0.376224  0  3.888714  0  0  -0.383377  0  3.897347  0  0  -0.158641  -0.371461  0  3.882914  0
C  C88  1  0.69341955  0.20719839  0.06767704  1  0  0.768409  0  3.745969  0  0  0.734627  0  4.033154  0  0  0.771633  0  4.024476  0  0  0.250418  0.709189  0  4.038154  0
C  C89  1  0.96821694  0.29304433  0.43223556  1  0  0.767808  0  3.747256  0  0  0.734433  0  4.033748  0  0  0.77135  0  4.025058  0  0  0.249838  0.709113  0  4.038572  0
C  C90  1  0.30657375  0.79280663  0.93232466  1  0  0.76824  0  3.746137  0  0  0.734557  0  4.033206  0  0  0.771565  0  4.024528  0  0  0.250393  0.709116  0  4.038213  0
C  C91  1  0.03178564  0.70695642  0.56776278  1  0  0.76777  0  3.747376  0  0  0.734425  0  4.033799  0  0  0.771331  0  4.025131  0  0  0.249804  0.709106  0  4.038626  0
O  O92  1  0.66492113  0.55729745  0.09000410  1  0  -0.721878  0  1.572101  0  0  -0.722735  0  1.853144  0  0  -0.743249  0  1.839861  0  0  -0.757403  -0.710887  0  1.863328  0
O  O93  1  0.31243321  0.94248499  0.41003030  1  0  -0.721449  0  1.572317  0  0  -0.722584  0  1.853243  0  0  -0.743008  0  1.839992  0  0  -0.757271  -0.710681  0  1.863426  0
O  O94  1  0.33507953  0.44270009  0.90999150  1  0  -0.721903  0  1.572115  0  0  -0.72277  0  1.853162  0  0  -0.743285  0  1.83988  0  0  -0.75739  -0.71091  0  1.86335  0
O  O95  1  0.68757323  0.05750929  0.58997127  1  0  -0.721456  0  1.572021  0  0  -0.722565  0  1.85289  0  0  -0.743  0  1.839651  0  0  -0.757172  -0.710669  0  1.863063  0
O  O96  1  0.67317531  0.86142623  0.96366011  1  0  -0.761274  0  1.671731  0  0  -0.762312  0  2.003024  0  0  -0.783741  0  1.985683  0  0  -0.756228  -0.749798  0  2.015977  0
O  O97  1  0.49853644  0.63837497  0.53636092  1  0  -0.762219  0  1.673675  0  0  -0.763445  0  2.005412  0  0  -0.784778  0  1.987996  0  0  -0.756838  -0.750814  0  2.018154  0
O  O98  1  0.32680485  0.13858845  0.03634229  1  0  -0.761305  0  1.671846  0  0  -0.762354  0  2.003165  0  0  -0.78378  0  1.985822  0  0  -0.756327  -0.749835  0  2.016126  0
O  O99  1  0.50146107  0.36162146  0.46364096  1  0  -0.76212  0  1.673824  0  0  -0.763331  0  2.005549  0  0  -0.784657  0  1.988136  0  0  -0.756854  -0.750703  0  2.018273  0
O  O100  1  0.38046752  0.84098215  0.11012561  1  0  -0.694276  0  2.136676  0  0  -0.660298  0  2.424148  0  0  -0.694295  0  2.416681  0  0  -0.364512  -0.635957  0  2.427851  0
O  O101  1  0.33151095  0.65894509  0.38981480  1  0  -0.692832  0  2.137597  0  0  -0.658661  0  2.424098  0  0  -0.692713  0  2.416928  0  0  -0.364173  -0.634365  0  2.427769  0
O  O102  1  0.61952562  0.15901858  0.88987593  1  0  -0.694108  0  2.136673  0  0  -0.660176  0  2.424104  0  0  -0.694173  0  2.416633  0  0  -0.364441  -0.635828  0  2.427803  0
O  O103  1  0.66849622  0.34105565  0.61018524  1  0  -0.692849  0  2.137397  0  0  -0.658711  0  2.423882  0  0  -0.692763  0  2.416708  0  0  -0.364207  -0.634419  0  2.427553  0
O  O104  1  0.62256885  0.85716192  0.13511585  1  0  -0.625854  0  1.921847  0  0  -0.60306  0  2.163585  0  0  -0.633953  0  2.159768  0  0  -0.327016  -0.581007  0  2.165091  0
O  O105  1  0.61484112  0.64256444  0.36501509  1  0  -0.62301  0  1.922278  0  0  -0.600548  0  2.163562  0  0  -0.63139  0  2.159854  0  0  -0.326089  -0.578642  0  2.165158  0
O  O106  1  0.37742980  0.14283451  0.86488615  1  0  -0.625761  0  1.921999  0  0  -0.603002  0  2.163693  0  0  -0.63389  0  2.159861  0  0  -0.326996  -0.580942  0  2.165191  0
O  O107  1  0.38517095  0.35742768  0.63498823  1  0  -0.622987  0  1.922442  0  0  -0.600544  0  2.163696  0  0  -0.631385  0  2.159981  0  0  -0.326072  -0.578643  0  2.165296  0
O  O108  1  0.65092245  0.84448880  0.46186681  1  0  -0.683281  0  2.052634  0  0  -0.678069  0  2.334898  0  0  -0.714865  0  2.326271  0  0  -0.382293  -0.651559  0  2.339838  0
O  O109  1  0.95721523  0.65547979  0.03812202  1  0  -0.683689  0  2.05047  0  0  -0.678685  0  2.333193  0  0  -0.715518  0  2.324462  0  0  -0.382604  -0.652085  0  2.338053  0
O  O110  1  0.34908501  0.15550550  0.53813245  1  0  -0.68317  0  2.052756  0  0  -0.67804  0  2.334909  0  0  -0.714834  0  2.326273  0  0  -0.382282  -0.651538  0  2.339841  0
O  O111  1  0.04277651  0.34452953  0.96187905  1  0  -0.683692  0  2.050714  0  0  -0.678684  0  2.333369  0  0  -0.715515  0  2.324643  0  0  -0.382643  -0.65208  0  2.338219  0
O  O112  1  0.69837490  0.04761457  0.42523032  1  0  -0.651952  0  2.031393  0  0  -0.635364  0  2.290235  0  0  -0.668643  0  2.281695  0  0  -0.347175  -0.611573  0  2.295289  0
O  O113  1  0.17133008  0.45251058  0.07475195  1  0  -0.652121  0  2.032833  0  0  -0.635514  0  2.291649  0  0  -0.668803  0  2.28299  0  0  -0.347521  -0.61158  0  2.296689  0
O  O114  1  0.30163366  0.95238081  0.57476728  1  0  -0.651915  0  2.03138  0  0  -0.63542  0  2.290124  0  0  -0.668691  0  2.28156  0  0  -0.347199  -0.611626  0  2.295169  0
O  O115  1  0.82866158  0.54750092  0.92524555  1  0  -0.652102  0  2.032842  0  0  -0.635527  0  2.291629  0  0  -0.668814  0  2.282973  0  0  -0.347549  -0.611605  0  2.296662  0
O  O116  1  0.56055696  0.28434026  0.03468888  1  0  -0.672283  0  2.017325  0  0  -0.663277  0  2.290594  0  0  -0.701535  0  2.283289  0  0  -0.385611  -0.635713  0  2.29439  0
O  O117  1  0.87904280  0.21619218  0.46518209  1  0  -0.672707  0  2.018733  0  0  -0.663964  0  2.291805  0  0  -0.702144  0  2.284504  0  0  -0.385931  -0.636245  0  2.29549  0
O  O118  1  0.43943671  0.71565939  0.96531269  1  0  -0.672196  0  2.017475  0  0  -0.663219  0  2.290702  0  0  -0.701483  0  2.283405  0  0  -0.385564  -0.635662  0  2.294494  0
O  O119  1  0.12096043  0.78380856  0.53481813  1  0  -0.672662  0  2.018758  0  0  -0.66392  0  2.291802  0  0  -0.702099  0  2.284509  0  0  -0.385898  -0.636195  0  2.295484  0
O  O120  1  0.82744011  0.10201749  0.03773865  1  0  -0.620629  0  2.177123  0  0  -0.560474  0  2.469316  0  0  -0.589539  0  2.452205  0  0  -0.309197  -0.539896  0  2.480249  0
O  O121  1  0.96758043  0.39797442  0.46224233  1  0  -0.619771  0  2.177414  0  0  -0.560023  0  2.469509  0  0  -0.58905  0  2.452448  0  0  -0.308663  -0.539441  0  2.480765  0
O  O122  1  0.17255651  0.89798538  0.96226334  1  0  -0.620585  0  2.177152  0  0  -0.560467  0  2.469313  0  0  -0.589532  0  2.452201  0  0  -0.30922  -0.539891  0  2.480246  0
O  O123  1  0.03242278  0.60202848  0.53775553  1  0  -0.619768  0  2.177501  0  0  -0.560034  0  2.469605  0  0  -0.589059  0  2.452546  0  0  -0.308641  -0.539438  0  2.480828  0
