# generated using pymatgen
data_AlH5C12O5
_symmetry_space_group_name_H-M   'P 1'
_cell_length_a   6.69828523
_cell_length_b   17.87069739
_cell_length_c   19.69502957
_cell_angle_alpha   104.44833451
_cell_angle_beta   90.00003583
_cell_angle_gamma   90.00028609
_symmetry_Int_Tables_number   1
_chemical_formula_structural   AlH5C12O5
_chemical_formula_sum   'Al4 H20 C48 O20'
_cell_volume   2282.99235408
_cell_formula_units_Z   4
loop_
 _symmetry_equiv_pos_site_id
 _symmetry_equiv_pos_as_xyz
  1  'x, y, z'
loop_
 _atom_site_type_symbol
 _atom_site_label
 _atom_site_symmetry_multiplicity
 _atom_site_fract_x
 _atom_site_fract_y
 _atom_site_fract_z
 _atom_site_occupancy
 _atom_site_pbe_bader_charge
 _atom_site_pbe_bader_spin_density
 _atom_site_pbe_cm5_charge
 _atom_site_pbe_ddec_charge
 _atom_site_pbe_ddec_spin_density
 _atom_site_pbe_ddec_sum_bond_order
 _atom_site_pbe_magmom
Al  Al0  1  0.24159356  0.25048288  0.25082003  1  2.5035  0  0.404928  1.651852  0  2.575213  0
Al  Al1  1  0.75840867  0.74951471  0.74917784  1  2.503399  0  0.405019  1.65178  0  2.575166  0
Al  Al2  1  0.74159465  0.24951558  0.24917802  1  2.503484  0  0.405071  1.651737  0  2.575278  0
Al  Al3  1  0.25840609  0.75048313  0.75081985  1  2.503448  0  0.40503  1.651794  0  2.575194  0
H  H4  1  0.29568384  0.65728115  0.92415401  1  0.094622  0  0.110849  0.120478  0  0.992528  0
H  H5  1  0.70431392  0.34271714  0.07584438  1  0.094597  0  0.110843  0.120456  0  0.992566  0
H  H6  1  0.79567836  0.84272056  0.57584739  1  0.094478  0  0.110818  0.120344  0  0.992497  0
H  H7  1  0.20432238  0.15728054  0.42415311  1  0.094718  0  0.110839  0.120373  0  0.992557  0
H  H8  1  0.55296633  0.46811999  0.89306243  1  0.071139  0  0.105238  0.108638  0  0.98759  0
H  H9  1  0.44703441  0.53187858  0.10693702  1  0.071073  0  0.105243  0.108637  0  0.987581  0
H  H10  1  0.05296508  0.03187968  0.60693655  1  0.07108  0  0.105256  0.108658  0  0.987576  0
H  H11  1  0.94703267  0.96812001  0.39306289  1  0.071164  0  0.10524  0.108647  0  0.987582  0
H  H12  1  0.54824823  0.38474495  0.97603947  1  0.074635  0  0.106339  0.11061  0  0.985663  0
H  H13  1  0.45175400  0.61525418  0.02395997  1  0.074623  0  0.106339  0.1106  0  0.985658  0
H  H14  1  0.04824793  0.11525457  0.52395898  1  0.074648  0  0.106338  0.1106  0  0.985655  0
H  H15  1  0.95174983  0.88474526  0.47604099  1  0.074663  0  0.106347  0.110616  0  0.985643  0
H  H16  1  0.71645657  0.57170458  0.84809027  1  0.070456  0  0.107989  0.115368  0  0.998298  0
H  H17  1  0.28353969  0.42829315  0.15190812  1  0.070519  0  0.107978  0.115342  0  0.998303  0
H  H18  1  0.21645164  0.92829598  0.65190950  1  0.070439  0  0.107967  0.115366  0  0.998262  0
H  H19  1  0.78354910  0.07170470  0.34809152  1  0.070429  0  0.107983  0.115358  0  0.998372  0
H  H20  1  0.49297798  0.35154122  0.27093493  1  0.626376  0  0.360306  0.439934  0  0.838629  0
H  H21  1  0.50702425  0.64845736  0.72906451  1  0.626348  0  0.360361  0.440027  0  0.83854  0
H  H22  1  0.99297622  0.14845677  0.22905962  1  0.626222  0  0.360334  0.439998  0  0.838618  0
H  H23  1  0.00702750  0.85154193  0.77093616  1  0.626367  0  0.360343  0.440067  0  0.8385  0
C  C24  1  0.49052364  0.14522277  0.14462340  1  1.696132  0  0.278807  0.706466  0  4.170034  0
C  C25  1  0.50949352  0.85477792  0.85537972  1  1.69624  0  0.278683  0.706351  0  4.170267  0
C  C26  1  0.99049795  0.35477678  0.35537901  1  1.696304  0  0.278921  0.706904  0  4.169702  0
C  C27  1  0.00949234  0.64522222  0.64462201  1  1.695899  0  0.278895  0.706635  0  4.169877  0
C  C28  1  0.49157200  0.16844528  0.33113924  1  1.557087  0  0.269835  0.65117  0  4.084288  0
C  C29  1  0.50843620  0.83155624  0.66886074  1  1.557041  0  0.269665  0.650923  0  4.084692  0
C  C30  1  0.99153968  0.33155342  0.16886003  1  1.556887  0  0.269662  0.651104  0  4.084253  0
C  C31  1  0.00845210  0.66844389  0.83113889  1  1.557194  0  0.269679  0.651044  0  4.084529  0
C  C32  1  0.16862272  0.61988504  0.92676428  1  -0.007006  0  -0.079037  -0.145171  0  3.929155  0
C  C33  1  0.83137354  0.38011241  0.07323516  1  -0.007041  0  -0.07907  -0.145175  0  3.929075  0
C  C34  1  0.66861175  0.88011486  0.57323545  1  -0.006586  0  -0.079036  -0.145023  0  3.929299  0
C  C35  1  0.33138749  0.11988610  0.42676452  1  -0.006819  0  -0.079017  -0.145008  0  3.929346  0
C  C36  1  0.00626470  0.61884548  0.88179960  1  -0.029958  0  -0.01897  -0.043598  0  4.026588  0
C  C37  1  0.99373604  0.38115141  0.11819983  1  -0.030063  0  -0.018992  -0.043666  0  4.026565  0
C  C38  1  0.50625682  0.88115212  0.61819896  1  -0.029566  0  -0.019017  -0.04372  0  4.026817  0
C  C39  1  0.49374392  0.11884954  0.38180154  1  -0.02955  0  -0.019055  -0.043764  0  4.02678  0
C  C40  1  0.84174538  0.57099785  0.88331295  1  0.01077  0  -0.081256  -0.145205  0  3.933897  0
C  C41  1  0.15824790  0.42900115  0.11668597  1  0.010893  0  -0.081153  -0.145089  0  3.933839  0
C  C42  1  0.34173890  0.92900228  0.61668637  1  0.010319  0  -0.081212  -0.14519  0  3.933788  0
C  C43  1  0.65826184  0.07099882  0.38331413  1  0.010322  0  -0.081162  -0.145056  0  3.933916  0
C  C44  1  0.83850845  0.52166264  0.92861884  1  -0.022984  0  -0.008047  0.070968  0  4.051385  0
C  C45  1  0.16148931  0.47833649  0.07138061  1  -0.022831  0  -0.008082  0.070934  0  4.051432  0
C  C46  1  0.33850851  0.97833706  0.57138101  1  -0.022993  0  -0.008037  0.071008  0  4.051287  0
C  C47  1  0.66148925  0.02166264  0.42861843  1  -0.022863  0  -0.008099  0.070862  0  4.051465  0
C  C48  1  0.00141367  0.52394002  0.97612834  1  -0.053945  0  0.003368  0.001548  0  3.912847  0
C  C49  1  0.99858558  0.47605856  0.02387111  1  0.010031  0  0.003306  0.001472  0  3.912878  0
C  C50  1  0.50140835  0.97606023  0.52387181  1  -0.053968  0  0.003355  0.001547  0  3.91275  0
C  C51  1  0.49858791  0.02393932  0.47612711  1  0.010018  0  0.003372  0.001551  0  3.912728  0
C  C52  1  0.16692651  0.57450867  0.97555012  1  -0.004559  0  -0.008004  0.072805  0  4.043743  0
C  C53  1  0.83307274  0.42549005  0.02444984  1  -0.004349  0  -0.008006  0.072802  0  4.043626  0
C  C54  1  0.66692501  0.92549096  0.52445065  1  -0.004403  0  -0.00803  0.072792  0  4.043778  0
C  C55  1  0.33307424  0.07450916  0.47554827  1  -0.004423  0  -0.008086  0.072747  0  4.043766  0
C  C56  1  0.67676820  0.46932576  0.92935652  1  -0.036375  0  -0.08688  -0.126576  0  4.012215  0
C  C57  1  0.32322955  0.53067464  0.07064346  1  -0.036426  0  -0.08689  -0.126561  0  4.012227  0
C  C58  1  0.17676837  0.03067530  0.57064255  1  -0.036284  0  -0.086878  -0.126548  0  4.012175  0
C  C59  1  0.82322939  0.96932495  0.42935689  1  -0.036487  0  -0.086841  -0.126519  0  4.012198  0
C  C60  1  0.67411204  0.42329004  0.97522189  1  -0.07407  0  -0.08858  -0.130086  0  4.010672  0
C  C61  1  0.32588720  0.57670994  0.02477860  1  -0.074017  0  -0.088564  -0.130068  0  4.010692  0
C  C62  1  0.17411571  0.07671003  0.52477769  1  -0.074186  0  -0.088569  -0.130116  0  4.01075  0
C  C63  1  0.82588354  0.92328980  0.47522228  1  -0.074151  0  -0.08859  -0.130122  0  4.010734  0
C  C64  1  0.00965460  0.58287592  0.58181363  1  0.200745  0  -0.002907  -0.149196  0  3.847213  0
C  C65  1  0.99034166  0.41711986  0.41818580  1  0.200746  0  -0.002898  -0.149368  0  3.846393  0
C  C66  1  0.50965970  0.91712029  0.91818598  1  0.200751  0  -0.00288  -0.149195  0  3.846444  0
C  C67  1  0.49034253  0.08287674  0.08181398  1  0.200491  0  -0.002937  -0.149247  0  3.847111  0
C  C68  1  0.00340036  0.52945205  0.52912638  1  -0.250469  0  -0.005159  0.033972  0  4.234089  0
C  C69  1  0.99659590  0.47055621  0.47087991  1  -0.343987  0  -0.005061  0.03415  0  4.233133  0
C  C70  1  0.50339880  0.97055607  0.97088008  1  -0.344031  0  -0.005124  0.034017  0  4.233187  0
C  C71  1  0.49659597  0.02945205  0.02912568  1  -0.250438  0  -0.005098  0.034094  0  4.234101  0
O  O72  1  0.66021525  0.18525035  0.30877590  1  -1.263028  0  -0.238277  -0.601041  0  2.344048  0
O  O73  1  0.33978399  0.81475047  0.69122355  1  -1.262962  0  -0.238216  -0.600938  0  2.34388  0
O  O74  1  0.16021489  0.31474936  0.19122733  1  -1.262681  0  -0.238207  -0.601134  0  2.343534  0
O  O75  1  0.83978884  0.68524852  0.80877368  1  -1.262683  0  -0.238181  -0.601017  0  2.343876  0
O  O76  1  0.32111778  0.16918600  0.17031252  1  -1.232772  0  -0.223754  -0.574391  0  2.275002  0
O  O77  1  0.67888594  0.83081846  0.82968799  1  -1.232849  0  -0.22369  -0.574311  0  2.275309  0
O  O78  1  0.82113204  0.33081977  0.32968718  1  -1.232856  0  -0.223816  -0.574442  0  2.275606  0
O  O79  1  0.17887766  0.66917978  0.67031174  1  -1.232828  0  -0.223786  -0.5744  0  2.275289  0
O  O80  1  0.32148680  0.18910035  0.31316245  1  -1.257888  0  -0.237154  -0.597941  0  2.341825  0
O  O81  1  0.67850648  0.81090257  0.68683858  1  -1.257886  0  -0.237077  -0.597789  0  2.342243  0
O  O82  1  0.82148858  0.31089616  0.18683197  1  -1.25814  0  -0.237057  -0.597769  0  2.342386  0
O  O83  1  0.17851515  0.68910143  0.81316589  1  -1.25804  0  -0.237105  -0.597864  0  2.342224  0
O  O84  1  0.16151396  0.33059835  0.33158572  1  -1.230618  0  -0.222628  -0.571763  0  2.28341  0
O  O85  1  0.83848379  0.66939910  0.66841162  1  -1.230182  0  -0.222594  -0.571562  0  2.283775  0
O  O86  1  0.66150490  0.16939476  0.16841382  1  -1.230255  0  -0.222516  -0.571385  0  2.284242  0
O  O87  1  0.33850032  0.83060255  0.83158509  1  -1.230526  0  -0.222541  -0.571428  0  2.283935  0
O  O88  1  0.49203109  0.29571254  0.25548939  1  -1.427338  0  -0.447146  -0.999067  0  2.204705  0
O  O89  1  0.50796816  0.70428631  0.74450900  1  -1.427354  0  -0.447216  -0.999195  0  2.204665  0
O  O90  1  0.99203308  0.20428504  0.24450986  1  -1.42723  0  -0.447175  -0.999191  0  2.204822  0
O  O91  1  0.00797065  0.79571354  0.75548958  1  -1.427346  0  -0.447187  -0.999251  0  2.204622  0
