# generated using pymatgen
data_MnH12C7O5
_symmetry_space_group_name_H-M   'P 1'
_cell_length_a   6.79985443
_cell_length_b   10.79593166
_cell_length_c   12.90173446
_cell_angle_alpha   89.99961666
_cell_angle_beta   105.28878838
_cell_angle_gamma   90.00049426
_symmetry_Int_Tables_number   1
_chemical_formula_structural   MnH12C7O5
_chemical_formula_sum   'Mn4 H48 C28 O20'
_cell_volume   913.60647034
_cell_formula_units_Z   4
loop_
 _symmetry_equiv_pos_site_id
 _symmetry_equiv_pos_as_xyz
  1  'x, y, z'
loop_
 _atom_site_type_symbol
 _atom_site_label
 _atom_site_symmetry_multiplicity
 _atom_site_fract_x
 _atom_site_fract_y
 _atom_site_fract_z
 _atom_site_occupancy
 _atom_site_hle17_ddec_charge
 _atom_site_hle17_ddec_spin_density
 _atom_site_hle17_ddec_sum_bond_order
 _atom_site_hle17_magmom
 _atom_site_hse06_10hf_ddec_charge
 _atom_site_hse06_10hf_ddec_spin_density
 _atom_site_hse06_10hf_ddec_sum_bond_order
 _atom_site_hse06_10hf_magmom
 _atom_site_hse06_ddec_charge
 _atom_site_hse06_ddec_spin_density
 _atom_site_hse06_ddec_sum_bond_order
 _atom_site_hse06_magmom
 _atom_site_pbe_cm5_charge
 _atom_site_pbe_ddec_charge
 _atom_site_pbe_ddec_spin_density
 _atom_site_pbe_ddec_sum_bond_order
 _atom_site_pbe_magmom
Mn  Mn0  1  0.64098669  0.28478835  0.99992003  1  1.259516  -4.79753  1.676347  -4.689  1.105329  -4.726494  2.163329  -4.556  1.165097  -4.765457  2.088162  -4.613  0.603923  1.058805  -4.686735  2.218112  -4.499
Mn  Mn1  1  0.85900893  0.78478685  0.00007453  1  1.259477  -4.797499  1.676617  -4.689  1.10533  -4.72643  2.163614  -4.556  1.165096  -4.765412  2.088445  -4.613  0.603908  1.058821  -4.686651  2.218401  -4.499
Mn  Mn2  1  0.35901198  0.71521114  0.00007886  1  1.259508  -4.797528  1.676462  -4.689  1.105268  -4.726489  2.163483  -4.556  1.16504  -4.765455  2.088311  -4.613  0.603911  1.058744  -4.686729  2.218268  -4.499
Mn  Mn3  1  0.14098670  0.21521356  0.99992393  1  1.259483  -4.79747  1.6767  -4.689  1.105297  -4.726413  2.163729  -4.556  1.165061  -4.765396  2.088556  -4.613  0.603871  1.058783  -4.686629  2.21853  -4.499
H  H4  1  0.84418721  0.59168158  0.25089059  1  0.079634  0.000554  0.93963  0.0  0.094922  0.000627  1.00171  0.0  0.097034  0.000644  1.000344  0.0  0.094256  0.093307  0.000595  1.002814  0.0
H  H5  1  0.65581374  0.09168054  0.74910968  1  0.079638  0.000551  0.939632  0.0  0.094918  0.000627  1.001701  0.0  0.09703  0.000645  1.000335  0.0  0.094258  0.093307  0.000595  1.0028  0.0
H  H6  1  0.40660585  0.40832984  0.25088574  1  0.080242  0.000556  0.940383  0.0  0.095656  0.000625  1.002642  0.0  0.097839  0.000643  1.001233  0.0  0.095125  0.094015  0.000593  1.00374  0.0
H  H7  1  0.09339357  0.90832831  0.74911530  1  0.080222  0.000552  0.940375  0.0  0.095642  0.000626  1.002639  0.0  0.097825  0.000644  1.001231  0.0  0.095137  0.09401  0.000593  1.003735  0.0
H  H8  1  0.15581297  0.40831697  0.74911084  1  0.079634  0.000556  0.939625  0.0  0.094912  0.000627  1.001706  0.0  0.097023  0.000645  1.000342  0.0  0.094251  0.093299  0.000595  1.002809  0.0
H  H9  1  0.34418643  0.90831802  0.25089252  1  0.079636  0.00056  0.939628  0.0  0.094922  0.000627  1.001721  0.0  0.097035  0.000644  1.000353  0.0  0.094249  0.093308  0.000595  1.002822  0.0
H  H10  1  0.59339587  0.59167149  0.74911358  1  0.080166  0.000558  0.940323  0.0  0.095595  0.000625  1.002592  0.0  0.097778  0.000643  1.00118  0.0  0.095081  0.093956  0.000594  1.003689  0.0
H  H11  1  0.90660359  0.09167303  0.25088260  1  0.08021  0.00055  0.940407  0.0  0.095647  0.000626  1.002663  0.0  0.097828  0.000643  1.001257  0.0  0.095132  0.094012  0.000593  1.003764  0.0
H  H12  1  0.93133535  0.47454194  0.34638175  1  0.06668  -7.3e-05  0.92787  0.0  0.087746  -0.000142  0.982603  0.0  0.088081  -9.5e-05  0.983504  0.0  0.090986  0.087396  -0.000199  0.98212  0.0
H  H13  1  0.56866699  0.97454196  0.65361967  1  0.066649  -7.3e-05  0.927865  0.0  0.087711  -0.000142  0.982587  0.0  0.088045  -9.5e-05  0.983489  0.0  0.090957  0.087368  -0.000199  0.982103  0.0
H  H14  1  0.41489994  0.52547639  0.34634944  1  0.06669  -6.6e-05  0.9285  0.0  0.088317  -0.000134  0.983027  0.0  0.08871  -9e-05  0.983868  0.0  0.091432  0.087934  -0.000187  0.982577  0.0
H  H15  1  0.08509963  0.02547480  0.65364834  1  0.066676  -6.5e-05  0.928483  0.0  0.088329  -0.000134  0.983001  0.0  0.088719  -9e-05  0.983842  0.0  0.091429  0.087951  -0.000187  0.98255  0.0
H  H16  1  0.06866941  0.52545569  0.65361956  1  0.066651  -7e-05  0.927849  0.0  0.087715  -0.000142  0.982574  0.0  0.088049  -9.6e-05  0.983476  0.0  0.090953  0.087373  -0.000199  0.982077  0.0
H  H17  1  0.43133624  0.02545845  0.34638141  1  0.066659  -7.1e-05  0.927818  0.0  0.087732  -0.000142  0.982555  0.0  0.088067  -9.5e-05  0.983455  0.0  0.090969  0.087383  -0.000199  0.982072  0.0
H  H18  1  0.58510181  0.47452680  0.65364679  1  0.066669  -6.6e-05  0.928495  0.0  0.088317  -0.000134  0.983019  0.0  0.088704  -9e-05  0.983863  0.0  0.091439  0.087939  -0.000187  0.982564  0.0
H  H19  1  0.91489904  0.97452746  0.34635055  1  0.066689  -6.7e-05  0.928414  0.0  0.088348  -0.000134  0.982945  0.0  0.088737  -9e-05  0.983787  0.0  0.091447  0.087969  -0.000187  0.982493  0.0
H  H20  1  0.97916735  0.68434392  0.43060085  1  0.086422  -2.3e-05  0.979447  0.0  0.107044  -4.5e-05  1.046747  0.0  0.107882  -3.9e-05  1.047557  0.0  0.083839  0.106379  -5.4e-05  1.046232  0.0
H  H21  1  0.52083620  0.18434358  0.56940005  1  0.086455  -2.4e-05  0.979471  0.0  0.107083  -4.5e-05  1.046757  0.0  0.10792  -3.9e-05  1.047566  0.0  0.083854  0.106422  -5.4e-05  1.04624  0.0
H  H22  1  0.45151379  0.31573140  0.43062355  1  0.085492  -1.5e-05  0.979291  0.0  0.106204  -4.2e-05  1.046691  0.0  0.107041  -3.6e-05  1.047482  0.0  0.083339  0.105542  -5.1e-05  1.046183  0.0
H  H23  1  0.04849217  0.81572828  0.56937894  1  0.085535  -2.3e-05  0.979213  0.0  0.106231  -4.2e-05  1.04663  0.0  0.107068  -3.7e-05  1.047423  0.0  0.083358  0.10557  -5.1e-05  1.046117  0.0
H  H24  1  0.02083437  0.31565650  0.56939925  1  0.086485  -1.7e-05  0.979474  0.0  0.107112  -4.5e-05  1.046759  0.0  0.10795  -3.9e-05  1.047569  0.0  0.08386  0.10645  -5.4e-05  1.046239  0.0
H  H25  1  0.47916854  0.81565683  0.43060281  1  0.086445  -2.5e-05  0.979494  0.0  0.107076  -4.5e-05  1.04677  0.0  0.107912  -3.9e-05  1.047582  0.0  0.083838  0.106414  -5.4e-05  1.046256  0.0
H  H26  1  0.54849402  0.68427364  0.56937741  1  0.08554  -1.4e-05  0.979211  0.0  0.106238  -4.2e-05  1.046635  0.0  0.107077  -3.7e-05  1.047422  0.0  0.083347  0.105579  -5.1e-05  1.046126  0.0
H  H27  1  0.95150652  0.18427398  0.43061918  1  0.085475  -2e-05  0.979197  0.0  0.106177  -4.2e-05  1.046615  0.0  0.107017  -3.6e-05  1.047403  0.0  0.083326  0.105519  -5.1e-05  1.046105  0.0
H  H28  1  0.13309069  0.73058715  0.34614943  1  0.101788  0.00016  0.950778  0.0  0.124641  0.00014  1.009136  0.0  0.125995  0.000164  1.00959  0.0  0.087761  0.123593  0.000108  1.008914  0.0
H  H29  1  0.36691277  0.23058616  0.65385086  1  0.101822  0.000159  0.950794  0.0  0.124637  0.000141  1.009207  0.0  0.12599  0.000164  1.009659  0.0  0.087763  0.123588  0.000109  1.00898  0.0
H  H30  1  0.21310335  0.26940067  0.34621439  1  0.101319  0.000163  0.951688  0.0  0.124413  0.000141  1.009601  0.0  0.125803  0.000164  1.010002  0.0  0.087547  0.123343  0.000109  1.009398  0.0
H  H31  1  0.28690052  0.76940095  0.65379039  1  0.101259  0.000154  0.951678  0.0  0.124411  0.000142  1.009535  0.0  0.125805  0.000164  1.009931  0.0  0.08755  0.123338  0.00011  1.00933  0.0
H  H32  1  0.86690951  0.26941234  0.65384969  1  0.101801  0.000162  0.950809  0.0  0.124648  0.00014  1.009175  0.0  0.126001  0.000163  1.009627  0.0  0.087765  0.123601  0.000108  1.008951  0.0
H  H33  1  0.63309045  0.76941425  0.34615100  1  0.101792  0.000154  0.950821  0.0  0.124609  0.000141  1.009234  0.0  0.125959  0.000164  1.009693  0.0  0.087761  0.123564  0.000109  1.009003  0.0
H  H34  1  0.78690292  0.73060066  0.65378868  1  0.101267  0.000165  0.951664  0.0  0.124416  0.000141  1.009531  0.0  0.125808  0.000164  1.009934  0.0  0.087554  0.123344  0.00011  1.009331  0.0
H  H35  1  0.71309663  0.23060131  0.34620829  1  0.101302  0.00016  0.951587  0.0  0.12441  0.000142  1.009497  0.0  0.125804  0.000164  1.009892  0.0  0.087546  0.12334  0.00011  1.009294  0.0
H  H36  1  0.22039095  0.61452475  0.44568953  1  0.085681  -3e-05  0.966291  0.0  0.108539  -5.2e-05  1.028125  0.0  0.109336  -4.6e-05  1.029021  0.0  0.083005  0.107913  -6e-05  1.027533  0.0
H  H37  1  0.27961117  0.11452409  0.55431044  1  0.085722  -3e-05  0.966259  0.0  0.108599  -5.2e-05  1.028058  0.0  0.109392  -4.6e-05  1.028959  0.0  0.083037  0.107977  -6e-05  1.027465  0.0
H  H38  1  0.22538501  0.38552924  0.44568704  1  0.085733  -2.7e-05  0.964513  0.0  0.108389  -5.3e-05  1.026747  0.0  0.109142  -4.7e-05  1.027675  0.0  0.082943  0.107786  -6.2e-05  1.026142  0.0
H  H39  1  0.27461871  0.88552840  0.55431551  1  0.085708  -3.3e-05  0.964566  0.0  0.108369  -5.3e-05  1.026795  0.0  0.109123  -4.6e-05  1.027724  0.0  0.082938  0.107767  -6.2e-05  1.026194  0.0
H  H40  1  0.77961078  0.38547474  0.55430980  1  0.085737  -2.7e-05  0.966259  0.0  0.108606  -5.2e-05  1.028078  0.0  0.109396  -4.6e-05  1.028982  0.0  0.083035  0.107986  -6e-05  1.027482  0.0
H  H41  1  0.72039207  0.88547632  0.44568987  1  0.085707  -3.3e-05  0.966296  0.0  0.108574  -5.2e-05  1.028106  0.0  0.109373  -4.6e-05  1.029  0.0  0.083026  0.107952  -6e-05  1.027514  0.0
H  H42  1  0.77462128  0.61447488  0.55431370  1  0.085704  -2.5e-05  0.964571  0.0  0.108374  -5.4e-05  1.02679  0.0  0.109128  -4.7e-05  1.027718  0.0  0.082919  0.107772  -6.2e-05  1.026183  0.0
H  H43  1  0.72537844  0.11447387  0.44568317  1  0.085698  -3e-05  0.964585  0.0  0.108352  -5.4e-05  1.02681  0.0  0.109104  -4.7e-05  1.027742  0.0  0.082923  0.107751  -6.2e-05  1.026207  0.0
H  H44  1  0.35031527  0.43829822  0.06231462  1  0.438639  0.000964  0.846155  -0.001  0.406992  -1.1e-05  0.920244  -0.002  0.418372  0.000346  0.904655  -0.002  0.312536  0.398798  -0.000349  0.928901  -0.003
H  H45  1  0.14968299  0.93829918  0.93768454  1  0.438604  0.000965  0.846203  -0.001  0.406959  -1.1e-05  0.920289  -0.002  0.41834  0.000346  0.904703  -0.002  0.312525  0.398765  -0.000349  0.928947  -0.003
H  H46  1  0.71199197  0.56163640  0.06229175  1  0.439326  0.000967  0.844552  -0.001  0.407338  -8e-06  0.919358  -0.002  0.418743  0.000349  0.904153  -0.002  0.312988  0.399114  -0.000346  0.928035  -0.003
H  H47  1  0.78800710  0.06163457  0.93770920  1  0.43944  0.000964  0.84438  -0.001  0.40738  -7e-06  0.919305  -0.002  0.418783  0.000349  0.90411  -0.002  0.313031  0.399154  -0.000345  0.927994  -0.003
H  H48  1  0.64968341  0.56170219  0.93768428  1  0.438627  0.000966  0.846164  -0.001  0.406982  -1.1e-05  0.920252  -0.002  0.418362  0.000346  0.90467  -0.002  0.31253  0.398784  -0.00035  0.928915  -0.003
H  H49  1  0.85031415  0.06170123  0.06231491  1  0.438595  0.000966  0.846225  -0.001  0.406961  -1.1e-05  0.920292  -0.002  0.418341  0.000346  0.904701  -0.002  0.312533  0.398765  -0.00035  0.928957  -0.003
H  H50  1  0.28800670  0.43836401  0.93770792  1  0.43934  0.000967  0.844555  -0.001  0.407344  -7e-06  0.919364  -0.002  0.418749  0.000349  0.90415  -0.002  0.312992  0.399118  -0.000345  0.928049  -0.003
H  H51  1  0.21199005  0.93836399  0.06229025  1  0.439324  0.000966  0.844612  -0.001  0.40733  -8e-06  0.919415  -0.002  0.418735  0.000349  0.904182  -0.002  0.312969  0.399105  -0.000346  0.928097  -0.003
C  C52  1  0.99810370  0.40097535  0.15814719  1  0.685778  -0.010579  3.773709  -0.01  0.628554  -0.018097  4.076107  -0.016  0.664509  -0.013497  4.068797  -0.012  0.237749  0.603  -0.023253  4.080741  -0.02
C  C53  1  0.50187794  0.90096609  0.84185404  1  0.68586  -0.010576  3.773629  -0.01  0.628687  -0.018084  4.075898  -0.016  0.664625  -0.013489  4.068601  -0.012  0.237807  0.603141  -0.023235  4.080525  -0.02
C  C54  1  0.15995066  0.59899859  0.15822686  1  0.685709  -0.010615  3.776186  -0.01  0.628341  -0.018139  4.07869  -0.016  0.664327  -0.013523  4.071367  -0.012  0.237316  0.602761  -0.023309  4.083341  -0.02
C  C55  1  0.34006198  0.09900522  0.84177159  1  0.685488  -0.010601  3.776587  -0.01  0.628056  -0.018124  4.079192  -0.016  0.664029  -0.013515  4.071886  -0.012  0.237153  0.602489  -0.02329  4.083827  -0.02
C  C56  1  0.00189648  0.59902321  0.84185347  1  0.685759  -0.010583  3.773734  -0.01  0.628518  -0.018097  4.076132  -0.016  0.664472  -0.013496  4.068824  -0.012  0.237756  0.60296  -0.023253  4.080765  -0.02
C  C57  1  0.49812226  0.09903062  0.15814507  1  0.686139  -0.010571  3.773133  -0.01  0.628895  -0.018083  4.075503  -0.016  0.66484  -0.013488  4.068196  -0.012  0.237916  0.603343  -0.023234  4.080142  -0.02
C  C58  1  0.84004799  0.40100275  0.84177436  1  0.685767  -0.01061  3.77626  -0.01  0.628396  -0.018142  4.078769  -0.016  0.664384  -0.013524  4.071445  -0.012  0.237339  0.602814  -0.023312  4.083424  -0.02
C  C59  1  0.65993822  0.90099334  0.15822830  1  0.685506  -0.010596  3.776716  -0.01  0.628073  -0.018128  4.07933  -0.016  0.664054  -0.013517  4.072016  -0.012  0.237171  0.602494  -0.023294  4.083982  -0.02
C  C60  1  0.11825411  0.49997290  0.23670578  1  -0.147465  -0.003444  3.566807  -0.003  -0.119565  -0.004526  3.797823  -0.004  -0.129988  -0.003272  3.812166  -0.003  -0.013547  -0.112412  -0.005941  3.788354  -0.005
C  C61  1  0.38174488  0.99997189  0.76329313  1  -0.147391  -0.003447  3.566717  -0.003  -0.119527  -0.004527  3.797772  -0.004  -0.129929  -0.003268  3.812116  -0.003  -0.013566  -0.112377  -0.005941  3.7883  -0.005
C  C62  1  0.88174761  0.50002659  0.76329432  1  -0.147487  -0.003452  3.566882  -0.003  -0.119586  -0.004525  3.797895  -0.004  -0.13001  -0.003273  3.812238  -0.003  -0.01353  -0.112425  -0.005941  3.788429  -0.005
C  C63  1  0.61825228  0.00002574  0.23670477  1  -0.147656  -0.00345  3.567004  -0.003  -0.11971  -0.004525  3.798053  -0.004  -0.130123  -0.003269  3.812396  -0.003  -0.01357  -0.11256  -0.005941  3.788583  -0.005
C  C64  1  0.98230017  0.55248642  0.30492821  1  -0.083677  3.5e-05  3.691656  0.0  -0.126495  -0.000381  3.951079  -0.001  -0.125661  -0.000127  3.964104  0.0  -0.166745  -0.126889  -0.000692  3.942032  -0.001
C  C65  1  0.51770186  0.05248691  0.69507166  1  -0.0837  4e-05  3.691679  0.0  -0.126454  -0.000379  3.951031  -0.001  -0.125629  -0.000128  3.964056  0.0  -0.166715  -0.12685  -0.000691  3.941988  -0.001
C  C66  1  0.32251250  0.44750341  0.30490749  1  -0.083871  2.4e-05  3.694502  0.0  -0.128168  -0.000381  3.955905  -0.001  -0.127424  -0.000124  3.968958  0.0  -0.168084  -0.128503  -0.000691  3.94682  -0.001
C  C67  1  0.17748891  0.94750184  0.69509284  1  -0.083905  2.7e-05  3.694435  0.0  -0.128244  -0.00038  3.955894  -0.001  -0.127505  -0.000124  3.968948  0.0  -0.168111  -0.128585  -0.000691  3.946817  -0.001
C  C68  1  0.01770154  0.44751213  0.69507266  1  -0.083621  3.1e-05  3.691703  0.0  -0.126407  -0.000381  3.951092  -0.001  -0.125572  -0.000126  3.964116  0.0  -0.166712  -0.126811  -0.000692  3.942047  -0.001
C  C69  1  0.48229985  0.94751257  0.30492921  1  -0.083592  2.3e-05  3.691649  0.0  -0.126423  -0.00038  3.951078  -0.001  -0.125592  -0.000127  3.964104  0.0  -0.166714  -0.126811  -0.000691  3.94203  -0.001
C  C70  1  0.67749076  0.55249700  0.69509128  1  -0.083736  2.4e-05  3.694255  0.0  -0.128078  -0.000381  3.955716  -0.001  -0.127329  -0.000125  3.968769  0.0  -0.168062  -0.128421  -0.000692  3.946636  -0.001
C  C71  1  0.82250978  0.05249950  0.30490528  1  -0.083793  3.3e-05  3.694342  0.0  -0.128183  -0.000381  3.95586  -0.001  -0.127441  -0.000125  3.968914  0.0  -0.168115  -0.12852  -0.000691  3.946784  -0.001
C  C72  1  0.08563098  0.65051688  0.38624040  1  -0.2827  -6.4e-05  3.717473  0.0  -0.360646  -0.000212  3.967769  0.0  -0.363232  -0.000134  3.979315  0.0  -0.248387  -0.358573  -0.000298  3.959745  0.0
C  C73  1  0.41437155  0.15051555  0.61376020  1  -0.28279  -6.2e-05  3.717594  0.0  -0.360742  -0.000212  3.967881  0.0  -0.36332  -0.000133  3.979431  0.0  -0.248431  -0.358682  -0.000298  3.959868  0.0
C  C74  1  0.30064527  0.34950500  0.38625276  1  -0.281964  -8e-05  3.715702  0.0  -0.359589  -0.000212  3.966677  0.0  -0.362179  -0.000134  3.978254  0.0  -0.247798  -0.357509  -0.000298  3.95862  0.0
C  C75  1  0.19935803  0.84950420  0.61374994  1  -0.281919  -4.7e-05  3.715616  0.0  -0.359584  -0.000213  3.966613  0.0  -0.362166  -0.000134  3.978177  0.0  -0.247812  -0.357503  -0.000298  3.95855  0.0
C  C76  1  0.91437073  0.34948260  0.61376047  1  -0.28284  -7.9e-05  3.717586  0.0  -0.360817  -0.000212  3.96788  0.0  -0.363394  -0.000133  3.97943  0.0  -0.248428  -0.35875  -0.000298  3.959866  0.0
C  C77  1  0.58563168  0.84948486  0.38624166  1  -0.282765  -4.6e-05  3.717658  0.0  -0.360694  -0.000212  3.967976  0.0  -0.363278  -0.000133  3.979523  0.0  -0.248396  -0.35862  -0.000298  3.959926  0.0
C  C78  1  0.69936102  0.65049726  0.61374877  1  -0.281937  -8.9e-05  3.715545  0.0  -0.359615  -0.000212  3.966553  0.0  -0.362203  -0.000132  3.978114  0.0  -0.247763  -0.35754  -0.000298  3.9585  0.0
C  C79  1  0.80063913  0.15049714  0.38624797  1  -0.281905  -6.5e-05  3.715504  0.0  -0.359516  -0.000212  3.966533  0.0  -0.362098  -0.000134  3.978094  0.0  -0.247742  -0.357443  -0.000298  3.958476  0.0
O  O80  1  0.34814367  0.38243822  0.99999402  1  -0.858284  -0.053444  2.001436  -0.03  -0.792448  -0.071014  2.260095  -0.042  -0.820363  -0.064397  2.220954  -0.037  -0.537471  -0.771217  -0.076929  2.283369  -0.047
O  O81  1  0.15185087  0.88244116  0.00000648  1  -0.858182  -0.053437  2.001404  -0.03  -0.792345  -0.071003  2.260056  -0.042  -0.820257  -0.064386  2.2209  -0.037  -0.53745  -0.771109  -0.076918  2.283326  -0.047
O  O82  1  0.65185500  0.61756219  0.00000565  1  -0.858256  -0.053446  2.001418  -0.03  -0.792415  -0.071012  2.260053  -0.042  -0.82033  -0.064395  2.220924  -0.037  -0.537464  -0.771185  -0.076928  2.283323  -0.047
O  O83  1  0.84814780  0.11755740  0.99999241  1  -0.858325  -0.053439  2.001257  -0.03  -0.79243  -0.071004  2.259964  -0.042  -0.82034  -0.064387  2.220834  -0.037  -0.537511  -0.771192  -0.076918  2.283241  -0.047
O  O84  1  0.80795048  0.42067502  0.11572364  1  -0.661328  -0.032225  2.069096  -0.022  -0.589125  -0.039882  2.324643  -0.027  -0.620012  -0.034896  2.311209  -0.023  -0.300705  -0.566604  -0.044916  2.333092  -0.032
O  O85  1  0.69205579  0.92067293  0.88428096  1  -0.66163  -0.032234  2.06853  -0.022  -0.589387  -0.039886  2.324013  -0.027  -0.620286  -0.034901  2.310608  -0.023  -0.3009  -0.566872  -0.044918  2.332473  -0.032
O  O86  1  0.30769272  0.57926117  0.11583614  1  -0.66047  -0.032201  2.070062  -0.022  -0.588463  -0.039886  2.325376  -0.027  -0.619394  -0.034896  2.311981  -0.023  -0.300709  -0.56591  -0.044918  2.333751  -0.032
O  O87  1  0.19229982  0.07925924  0.88416500  1  -0.660426  -0.032206  2.06963  -0.023  -0.588411  -0.039883  2.324988  -0.027  -0.619336  -0.034895  2.311587  -0.023  -0.300685  -0.565859  -0.044915  2.333369  -0.032
O  O88  1  0.19204970  0.57932447  0.88427779  1  -0.661423  -0.032229  2.069211  -0.022  -0.589132  -0.039883  2.324686  -0.027  -0.620021  -0.034897  2.311253  -0.023  -0.300712  -0.56661  -0.044915  2.333136  -0.032
O  O89  1  0.30793677  0.07932377  0.11571862  1  -0.66179  -0.032236  2.068291  -0.022  -0.589515  -0.039886  2.323779  -0.027  -0.620413  -0.0349  2.310353  -0.023  -0.300953  -0.566995  -0.044919  2.332239  -0.032
O  O90  1  0.69230748  0.42073831  0.88416375  1  -0.660523  -0.032208  2.070238  -0.023  -0.588549  -0.039888  2.325594  -0.027  -0.619475  -0.034899  2.312184  -0.023  -0.300755  -0.565994  -0.044921  2.333971  -0.032
O  O91  1  0.80769580  0.92073654  0.11583501  1  -0.660407  -0.032206  2.069771  -0.023  -0.588432  -0.039881  2.325151  -0.027  -0.61936  -0.034893  2.311747  -0.023  -0.30071  -0.565873  -0.044913  2.333526  -0.032
O  O92  1  0.09296180  0.30829177  0.13581655  1  -0.643988  -0.031509  2.070425  -0.018  -0.578644  -0.040941  2.343341  -0.024  -0.609559  -0.035772  2.329509  -0.019  -0.300795  -0.555704  -0.046095  2.352297  -0.028
O  O93  1  0.40703344  0.80830213  0.86418136  1  -0.643815  -0.031499  2.070924  -0.018  -0.578467  -0.040934  2.343835  -0.024  -0.609375  -0.035766  2.330009  -0.019  -0.300636  -0.555526  -0.046084  2.35278  -0.028
O  O94  1  0.04294335  0.69178146  0.13595121  1  -0.644926  -0.031535  2.070551  -0.018  -0.579296  -0.040942  2.343678  -0.024  -0.610112  -0.035773  2.329552  -0.019  -0.300523  -0.556419  -0.046105  2.352826  -0.028
O  O95  1  0.45704445  0.19177095  0.86404398  1  -0.644614  -0.031517  2.071132  -0.018  -0.579026  -0.040934  2.344391  -0.024  -0.609837  -0.035764  2.330276  -0.019  -0.300304  -0.556107  -0.046091  2.353442  -0.028
O  O96  1  0.90703535  0.69170679  0.86418290  1  -0.643943  -0.031505  2.070375  -0.018  -0.578633  -0.040941  2.34333  -0.024  -0.609549  -0.035772  2.329501  -0.019  -0.300823  -0.555693  -0.046093  2.352287  -0.028
O  O97  1  0.59295915  0.19169550  0.13581590  1  -0.643895  -0.031501  2.070724  -0.018  -0.57855  -0.040934  2.343693  -0.024  -0.609459  -0.035766  2.329866  -0.019  -0.300698  -0.55561  -0.046084  2.352644  -0.028
O  O98  1  0.95705530  0.30821710  0.86405079  1  -0.644939  -0.031534  2.07047  -0.018  -0.579289  -0.040944  2.34359  -0.024  -0.610107  -0.035775  2.329463  -0.019  -0.300515  -0.556413  -0.046107  2.352747  -0.028
O  O99  1  0.54294963  0.80822391  0.13595659  1  -0.644638  -0.031524  2.071124  -0.018  -0.579012  -0.040936  2.344348  -0.024  -0.609827  -0.035766  2.330231  -0.019  -0.300315  -0.556098  -0.046095  2.353423  -0.028
