# generated using pymatgen
data_CoH14C16N2O5
_symmetry_space_group_name_H-M   'P 1'
_cell_length_a   11.37689984
_cell_length_b   13.19766934
_cell_length_c   25.92371966
_cell_angle_alpha   90.00040998
_cell_angle_beta   89.99957345
_cell_angle_gamma   90.00007875
_symmetry_Int_Tables_number   1
_chemical_formula_structural   CoH14C16N2O5
_chemical_formula_sum   'Co8 H112 C128 N16 O40'
_cell_volume   3892.40923064
_cell_formula_units_Z   8
loop_
 _symmetry_equiv_pos_site_id
 _symmetry_equiv_pos_as_xyz
  1  'x, y, z'
loop_
 _atom_site_type_symbol
 _atom_site_label
 _atom_site_symmetry_multiplicity
 _atom_site_fract_x
 _atom_site_fract_y
 _atom_site_fract_z
 _atom_site_occupancy
 _atom_site_pbe_bader_charge
 _atom_site_pbe_bader_spin_density
 _atom_site_pbe_cm5_charge
 _atom_site_pbe_ddec_charge
 _atom_site_pbe_ddec_spin_density
 _atom_site_pbe_ddec_sum_bond_order
 _atom_site_pbe_magmom
Co  Co0  1  0.14968587  0.94448103  0.07725042  1  1.307349  2.610658  0.677478  0.92446  2.824711  2.467355  2.594
Co  Co1  1  0.35031730  0.05552393  0.57725195  1  1.307393  2.610627  0.677489  0.924461  2.824683  2.467402  2.594
Co  Co2  1  0.64967839  0.55552012  0.92274677  1  1.307482  2.610654  0.677418  0.924364  2.824724  2.467188  2.594
Co  Co3  1  0.85031365  0.44447893  0.42275434  1  1.307414  2.610671  0.677475  0.924543  2.824678  2.467018  2.594
Co  Co4  1  0.89262074  0.05132802  0.14233585  1  1.313077  2.627436  0.681563  0.923665  2.846002  2.477772  2.61
Co  Co5  1  0.60738309  0.94867163  0.64233332  1  1.313163  2.627423  0.681569  0.923677  2.846015  2.477986  2.61
Co  Co6  1  0.39261586  0.44866958  0.85765912  1  1.313037  2.627449  0.681607  0.923777  2.846018  2.477589  2.61
Co  Co7  1  0.10738343  0.55133478  0.35766979  1  1.313162  2.627421  0.681523  0.923676  2.846007  2.477861  2.61
H  H8  1  0.05877545  0.13169666  0.09162241  1  0.642219  0.00017  0.289024  0.366377  0.000259  0.995742  0.0
H  H9  1  0.44123275  0.86830926  0.59162313  1  0.642258  0.00017  0.289041  0.36636  0.000259  0.99577  0.0
H  H10  1  0.55876696  0.36829524  0.90837210  1  0.642502  0.00017  0.28902  0.3664  0.000259  0.995703  0.0
H  H11  1  0.94122533  0.63170058  0.40838352  1  0.6423  0.00017  0.289039  0.366531  0.000259  0.995546  0.0
H  H12  1  0.14197342  0.09133007  0.13944019  1  0.654446  0.000648  0.292901  0.381073  0.000593  0.958657  0.001
H  H13  1  0.35803836  0.90867197  0.63944055  1  0.654463  0.000647  0.292954  0.381077  0.000593  0.958736  0.001
H  H14  1  0.64196581  0.40866117  0.86055405  1  0.654391  0.000648  0.292896  0.380948  0.000593  0.958777  0.001
H  H15  1  0.85802905  0.59133473  0.36056599  1  0.65476  0.000646  0.292901  0.381099  0.000593  0.958635  0.001
H  H16  1  0.39923400  0.00577358  0.05013067  1  0.097547  0.00152  0.113372  0.079837  0.000175  1.032663  0.001
H  H17  1  0.10077666  0.99424236  0.55013604  1  0.09739  0.00152  0.113396  0.080042  0.000175  1.032643  0.001
H  H18  1  0.89924083  0.49422100  0.94986659  1  0.097507  0.00152  0.113359  0.079832  0.000175  1.032629  0.001
H  H19  1  0.60076482  0.50577010  0.44987095  1  0.097426  0.001521  0.113373  0.079891  0.000175  1.032639  0.001
H  H20  1  0.75924015  0.76782674  0.08100666  1  0.109964  0.001009  0.111255  0.117667  0.000466  0.995016  0.0
H  H21  1  0.74075769  0.23217507  0.58100920  1  0.110169  0.001009  0.111275  0.117727  0.000466  0.994945  0.0
H  H22  1  0.25922861  0.73217454  0.91899210  1  0.109872  0.001009  0.111294  0.117723  0.000466  0.995151  0.0
H  H23  1  0.24075645  0.26782462  0.41899552  1  0.110056  0.001009  0.111293  0.117729  0.000466  0.995021  0.0
H  H24  1  0.97125878  0.74738873  0.34164905  1  0.113503  0.002091  0.119258  0.088748  0.000617  1.032847  0.001
H  H25  1  0.52873816  0.25261524  0.84164386  1  0.113711  0.002091  0.11924  0.08873  0.000617  1.033014  0.001
H  H26  1  0.47126312  0.75261583  0.65834594  1  0.113355  0.002092  0.119227  0.088698  0.000617  1.032985  0.001
H  H27  1  0.02874658  0.24738118  0.15835538  1  0.113606  0.002091  0.119229  0.088766  0.000617  1.032957  0.001
H  H28  1  0.17209885  0.56338540  0.24607307  1  0.082039  0.002192  0.119789  0.087907  0.000767  0.993225  0.001
H  H29  1  0.32789706  0.43660830  0.74606680  1  0.08209  0.002193  0.119802  0.087994  0.000767  0.993313  0.001
H  H30  1  0.67209221  0.93661729  0.75392405  1  0.082026  0.002192  0.119837  0.087975  0.000767  0.993331  0.001
H  H31  1  0.82789830  0.06338620  0.25393069  1  0.082025  0.002192  0.119814  0.087958  0.000767  0.99336  0.001
H  H32  1  0.66004737  0.63038236  0.02952014  1  0.109955  0.001676  0.118084  0.088254  0.000265  1.008737  0.001
H  H33  1  0.83994519  0.36962025  0.52952169  1  0.109831  0.001677  0.118084  0.08824  0.000265  1.008813  0.001
H  H34  1  0.16004573  0.86962336  0.97047856  1  0.1097  0.001677  0.118045  0.088187  0.000265  1.008884  0.001
H  H35  1  0.33994813  0.13037881  0.47048155  1  0.109852  0.001677  0.118033  0.088142  0.000265  1.0088  0.001
H  H36  1  0.69938080  0.19559979  0.17062018  1  0.103017  0.002025  0.119755  0.088885  0.000657  0.992433  0.001
H  H37  1  0.80061113  0.80440329  0.67061649  1  0.103224  0.002026  0.119701  0.088859  0.000657  0.992444  0.001
H  H38  1  0.19938760  0.30439304  0.82938044  1  0.103221  0.002025  0.119737  0.088824  0.000657  0.992488  0.001
H  H39  1  0.30062272  0.69560183  0.32938290  1  0.102847  0.002025  0.119702  0.088833  0.000657  0.992462  0.001
H  H40  1  0.50307773  0.13839616  0.99797543  1  0.101767  0.000809  0.108393  0.116384  0.000388  1.04256  0.0
H  H41  1  0.99692622  0.86161608  0.49798673  1  0.101567  0.000809  0.108382  0.116359  0.000388  1.042531  0.0
H  H42  1  0.00308371  0.36159719  0.00202120  1  0.101709  0.000809  0.108375  0.116343  0.000388  1.042606  0.0
H  H43  1  0.49691721  0.63839761  0.50202167  1  0.101754  0.000809  0.108368  0.116342  0.000388  1.042577  0.0
H  H44  1  0.93197197  0.86887026  0.27063676  1  0.102989  0.001276  0.112907  0.125002  0.000595  1.006211  0.001
H  H45  1  0.56802265  0.13112589  0.77063448  1  0.102896  0.001276  0.112876  0.12496  0.000595  1.006212  0.001
H  H46  1  0.43197228  0.63113198  0.72935642  1  0.102709  0.001276  0.112881  0.125011  0.000595  1.006197  0.001
H  H47  1  0.06802655  0.36887057  0.22936579  1  0.102979  0.001275  0.112928  0.124991  0.000595  1.00619  0.001
H  H48  1  0.16716256  0.22535557  0.93598387  1  0.091285  0.001202  0.109487  0.118552  0.000541  1.005675  0.0
H  H49  1  0.33283012  0.77464914  0.43598691  1  0.091627  0.001202  0.109415  0.118499  0.000541  1.005877  0.0
H  H50  1  0.66716825  0.27463646  0.06401607  1  0.091443  0.001202  0.109538  0.118603  0.000541  1.005694  0.0
H  H51  1  0.83282900  0.72536133  0.56401855  1  0.091453  0.001202  0.109521  0.118586  0.000541  1.005711  0.0
H  H52  1  0.14562224  0.68285898  0.17121254  1  0.10063  0.001026  0.110665  0.119183  0.000419  1.020198  0.001
H  H53  1  0.35437405  0.31712987  0.67120846  1  0.10055  0.001026  0.110721  0.119286  0.000419  1.020264  0.001
H  H54  1  0.64560887  0.81714292  0.82878312  1  0.100507  0.001026  0.110626  0.119181  0.000419  1.020153  0.001
H  H55  1  0.85437422  0.18286465  0.32879049  1  0.100585  0.001026  0.110723  0.119306  0.000419  1.02023  0.001
H  H56  1  0.81342549  0.72884001  0.89416605  1  0.134589  0.00198  0.120237  0.092683  0.000664  0.994139  0.001
H  H57  1  0.68657319  0.27115485  0.39416889  1  0.13464  0.00198  0.120229  0.092712  0.000664  0.99422  0.001
H  H58  1  0.31342166  0.77116588  0.10583100  1  0.13439  0.001981  0.120232  0.09273  0.000664  0.994119  0.001
H  H59  1  0.18657839  0.22884175  0.60583601  1  0.13447  0.001981  0.120286  0.092654  0.000664  0.994164  0.001
H  H60  1  0.92535904  0.86653896  0.94059155  1  0.086221  0.001248  0.11176  0.120175  0.000557  0.990774  0.0
H  H61  1  0.57464149  0.13345883  0.44059426  1  0.086454  0.001249  0.111829  0.120247  0.000557  0.990766  0.0
H  H62  1  0.42535138  0.63346631  0.05940513  1  0.086461  0.001248  0.111815  0.120244  0.000557  0.990845  0.0
H  H63  1  0.07464242  0.36653688  0.55941139  1  0.086192  0.001249  0.111782  0.120171  0.000557  0.990852  0.0
H  H64  1  0.47872579  0.19789476  0.17082306  1  0.084524  0.000924  0.112958  0.122011  0.000401  1.003371  0.0
H  H65  1  0.02126436  0.80210242  0.67082105  1  0.084568  0.000924  0.112984  0.122013  0.000401  1.003341  0.0
H  H66  1  0.97873084  0.30209764  0.82917626  1  0.084429  0.000924  0.112981  0.122005  0.000401  1.003307  0.0
H  H67  1  0.52127861  0.69789631  0.32918003  1  0.084493  0.000924  0.112944  0.122014  0.000401  1.003417  0.0
H  H68  1  0.07616004  0.08982289  0.99130493  1  0.113852  0.001598  0.114485  0.086766  0.000398  1.042292  0.001
H  H69  1  0.42384225  0.91018033  0.49130739  1  0.113777  0.001599  0.114508  0.086725  0.000398  1.04229  0.001
H  H70  1  0.57616512  0.41017055  0.00869416  1  0.113912  0.001598  0.114488  0.086793  0.000398  1.042293  0.001
H  H71  1  0.92383482  0.58982646  0.50869894  1  0.113894  0.001598  0.1145  0.086686  0.000398  1.042398  0.001
H  H72  1  0.70846748  0.88509033  0.15031954  1  0.124551  0.001771  0.120354  0.090559  0.000432  0.996038  0.001
H  H73  1  0.79153446  0.11490943  0.65031647  1  0.124504  0.001772  0.120354  0.090554  0.000432  0.996025  0.001
H  H74  1  0.20847275  0.61490635  0.84967321  1  0.12437  0.001772  0.120366  0.09064  0.000432  0.996004  0.001
H  H75  1  0.29153546  0.38509260  0.34968268  1  0.124587  0.001771  0.120395  0.090633  0.000432  0.995996  0.001
H  H76  1  0.48753914  0.87560591  0.14506215  1  0.102595  0.001193  0.110727  0.119942  0.000542  1.000877  0.001
H  H77  1  0.01246024  0.12439167  0.64506196  1  0.102614  0.001193  0.110739  0.119951  0.000542  1.000872  0.001
H  H78  1  0.98754171  0.62438731  0.85492815  1  0.103334  0.001192  0.11073  0.11983  0.000542  1.001098  0.001
H  H79  1  0.51246379  0.37560776  0.35493811  1  0.102606  0.001193  0.110723  0.119892  0.000542  1.000881  0.001
H  H80  1  0.76288185  0.24709551  0.84773249  1  0.624417  -6.1e-05  0.290974  0.339982  -9.2e-05  0.993935  0.0
H  H81  1  0.73712025  0.75290628  0.34773923  1  0.624379  -6.1e-05  0.290987  0.339946  -9.2e-05  0.993833  0.0
H  H82  1  0.26288160  0.25289967  0.15226406  1  0.624351  -6.1e-05  0.290989  0.339941  -9.2e-05  0.993842  0.0
H  H83  1  0.23711942  0.74710104  0.65226346  1  0.624349  -6.1e-05  0.290999  0.340039  -9.2e-05  0.993805  0.0
H  H84  1  0.90808116  0.13356044  0.96170681  1  0.042531  3.8e-05  0.086648  0.124354  -1e-05  1.035727  0.0
H  H85  1  0.59191637  0.86644295  0.46170981  1  0.042315  3.8e-05  0.086654  0.124377  -1e-05  1.035705  0.0
H  H86  1  0.40808478  0.36643642  0.03829234  1  0.04248  3.8e-05  0.086665  0.124389  -1e-05  1.035668  0.0
H  H87  1  0.09192256  0.63356041  0.53829142  1  0.042645  3.8e-05  0.086643  0.124399  -1e-05  1.035654  0.0
H  H88  1  0.94177714  0.21477519  0.90917509  1  0.025964  1.5e-05  0.080962  0.112767  7e-06  1.036019  0.0
H  H89  1  0.55822832  0.78522822  0.40917829  1  0.026088  1.5e-05  0.08097  0.112757  6e-06  1.035979  0.0
H  H90  1  0.44177622  0.28522323  0.09082395  1  0.025925  1.5e-05  0.080975  0.112797  6e-06  1.036083  0.0
H  H91  1  0.05822935  0.71477510  0.59082305  1  0.026065  1.5e-05  0.080979  0.1128  7e-06  1.036032  0.0
H  H92  1  0.92550204  0.08140686  0.89866790  1  0.03313  2e-06  0.084562  0.124274  -4e-06  1.001304  0.0
H  H93  1  0.57450184  0.91859489  0.39867114  1  0.032884  2e-06  0.084554  0.124282  -4e-06  1.001284  0.0
H  H94  1  0.42549852  0.41859003  0.10133120  1  0.032845  2e-06  0.08456  0.124239  -4e-06  1.00136  0.0
H  H95  1  0.07450248  0.58140769  0.60133015  1  0.03291  2e-06  0.084555  0.12427  -4e-06  1.00133  0.0
H  H96  1  0.73012880  0.22870116  0.93150559  1  0.065935  2.3e-05  0.097438  0.042508  -2.7e-05  0.985379  0.0
H  H97  1  0.76987453  0.77130408  0.43151268  1  0.065834  2.3e-05  0.0974  0.042475  -2.7e-05  0.98548  0.0
H  H98  1  0.23012999  0.27129397  0.06849067  1  0.065802  2.3e-05  0.097402  0.042433  -2.7e-05  0.985451  0.0
H  H99  1  0.26987772  0.72869949  0.56849029  1  0.065853  2.3e-05  0.097432  0.042532  -2.7e-05  0.985396  0.0
H  H100  1  0.61779201  0.03225527  0.85508429  1  0.088511  8e-06  0.09562  0.100642  1e-06  1.031031  0.0
H  H101  1  0.88220118  0.96775117  0.35508941  1  0.088754  8e-06  0.095524  0.100551  1e-06  1.031252  0.0
H  H102  1  0.11779837  0.46774656  0.14491235  1  0.088662  8e-06  0.095535  0.100554  1e-06  1.031263  0.0
H  H103  1  0.38220013  0.53225026  0.64491551  1  0.088539  8e-06  0.095622  0.100639  1e-06  1.031013  0.0
H  H104  1  0.50295883  0.88506510  0.88880649  1  0.061019  3.3e-05  0.093508  0.089558  7e-06  1.015654  0.0
H  H105  1  0.99703379  0.11494256  0.38880968  1  0.061236  3.3e-05  0.093506  0.089582  7e-06  1.015703  0.0
H  H106  1  0.00297048  0.61493891  0.11119079  1  0.061153  3.3e-05  0.09353  0.089596  7e-06  1.015668  0.0
H  H107  1  0.49703035  0.38505668  0.61119574  1  0.061157  3.3e-05  0.093539  0.089589  7e-06  1.015781  0.0
H  H108  1  0.50924179  0.84239080  0.98206694  1  0.058371  -0.00012  0.089482  0.086084  -0.000181  1.036915  0.0
H  H109  1  0.99076067  0.15761742  0.48207031  1  0.058215  -0.00012  0.089455  0.086023  -0.000181  1.037075  0.0
H  H110  1  0.00924894  0.65760867  0.01792955  1  0.058417  -0.00012  0.089497  0.086116  -0.000181  1.036938  0.0
H  H111  1  0.49076051  0.34238030  0.51793514  1  0.058284  -0.00012  0.089466  0.086008  -0.000181  1.037014  0.0
H  H112  1  0.63162502  0.94809534  0.04169610  1  0.055029  -4.3e-05  0.093034  0.089417  -0.000111  1.030168  0.0
H  H113  1  0.86837964  0.05191425  0.54170180  1  0.054773  -4.3e-05  0.093089  0.0895  -0.000111  1.03003  0.0
H  H114  1  0.13162571  0.55189973  0.95830000  1  0.054889  -4.3e-05  0.093063  0.089426  -0.000111  1.030069  0.0
H  H115  1  0.36838329  0.44808559  0.45830366  1  0.05492  -4.3e-05  0.092999  0.08932  -0.000111  1.03021  0.0
H  H116  1  0.74405771  0.09220466  0.00865435  1  0.060784  1e-06  0.096554  0.102097  -9.4e-05  1.030232  0.0
H  H117  1  0.75594488  0.90780371  0.50866122  1  0.060759  1e-06  0.096544  0.102144  -9.4e-05  1.030204  0.0
H  H118  1  0.24405577  0.40778822  0.99134072  1  0.060688  1e-06  0.096562  0.102175  -9.4e-05  1.030092  0.0
H  H119  1  0.25595268  0.59219757  0.49134334  1  0.060902  1e-06  0.096553  0.102153  -9.4e-05  1.03018  0.0
C  C120  1  0.35076586  0.05702182  0.02503606  1  0.433314  -0.008117  0.040524  0.084477  -0.009315  3.956408  -0.005
C  C121  1  0.14923731  0.94299074  0.52504302  1  0.432916  -0.008116  0.040553  0.084337  -0.009314  3.956568  -0.005
C  C122  1  0.85077043  0.44297422  0.97496135  1  0.432783  -0.008113  0.040495  0.084384  -0.00931  3.956113  -0.005
C  C123  1  0.64923216  0.55701950  0.47496613  1  0.433377  -0.008116  0.040489  0.084393  -0.009313  3.956402  -0.005
C  C124  1  0.77464188  0.76025012  0.03974133  1  -0.094901  0.007048  -0.076529  -0.139384  0.003287  3.955591  0.006
C  C125  1  0.72535666  0.23975035  0.53974394  1  -0.095428  0.007048  -0.076543  -0.1394  0.003287  3.955597  0.006
C  C126  1  0.27462965  0.73975345  0.96025623  1  -0.094929  0.007048  -0.076621  -0.139498  0.003287  3.955808  0.006
C  C127  1  0.22535735  0.26024857  0.46026122  1  -0.094948  0.007048  -0.076625  -0.139542  0.003287  3.955825  0.006
C  C128  1  0.01914328  0.86012203  0.17226462  1  1.59411  -0.007714  0.219132  0.591074  -0.009405  4.154196  -0.003
C  C129  1  0.48086267  0.13987366  0.67226141  1  1.594022  -0.007715  0.219106  0.591015  -0.009407  4.154135  -0.003
C  C130  1  0.51913404  0.63988276  0.82773223  1  1.594662  -0.007712  0.219156  0.591041  -0.009404  4.154302  -0.003
C  C131  1  0.98085874  0.36012329  0.32773944  1  1.59433  -0.007712  0.219082  0.591043  -0.009402  4.154138  -0.003
C  C132  1  0.00832278  0.73452729  0.30346742  1  0.452294  -0.004668  0.047621  0.101699  -0.005678  3.922175  -0.003
C  C133  1  0.49167567  0.26547252  0.80346308  1  0.452339  -0.004668  0.047691  0.101595  -0.00568  3.922119  -0.003
C  C134  1  0.50832299  0.76547673  0.69652753  1  0.452554  -0.004669  0.047596  0.101627  -0.005679  3.922657  -0.003
C  C135  1  0.99168080  0.23452368  0.19653657  1  0.452444  -0.00467  0.047557  0.101482  -0.00568  3.922151  -0.003
C  C136  1  0.12046618  0.63266505  0.24979111  1  0.478463  -0.003493  0.04342  0.081889  -0.004191  3.96581  -0.002
C  C137  1  0.37952966  0.36733097  0.74978520  1  0.478096  -0.003492  0.043461  0.081887  -0.00419  3.965957  -0.002
C  C138  1  0.62046213  0.86734061  0.75020618  1  0.47858  -0.003494  0.04333  0.081662  -0.004191  3.965996  -0.002
C  C139  1  0.87953196  0.13266434  0.25021328  1  0.477991  -0.003491  0.043433  0.081978  -0.00419  3.966151  -0.002
C  C140  1  0.71933701  0.68477748  0.01157634  1  0.502003  -0.009092  0.046908  0.086076  -0.010508  3.958336  -0.005
C  C141  1  0.78065586  0.31522260  0.51157943  1  0.502055  -0.00909  0.046846  0.085984  -0.010506  3.958704  -0.005
C  C142  1  0.21933234  0.81522755  0.98842024  1  0.502023  -0.009091  0.046868  0.086088  -0.010507  3.958526  -0.005
C  C143  1  0.28066034  0.18477714  0.48842477  1  0.501714  -0.009093  0.046986  0.086236  -0.010509  3.958497  -0.005
C  C144  1  0.64888460  0.12593591  0.16627199  1  0.447592  -0.005897  0.04698  0.092321  -0.006792  3.954003  -0.003
C  C145  1  0.85110916  0.87406407  0.66626801  1  0.446487  -0.005896  0.047041  0.092423  -0.006793  3.954059  -0.003
C  C146  1  0.14888704  0.37405610  0.83372531  1  0.44738  -0.005898  0.046944  0.092313  -0.006792  3.953903  -0.003
C  C147  1  0.35111968  0.62593884  0.33373161  1  0.447788  -0.005898  0.047051  0.092434  -0.006792  3.954324  -0.003
C  C148  1  0.40811602  0.13022343  0.99614404  1  0.047424  0.00541  -0.077665  -0.130922  0.002609  3.947669  0.004
C  C149  1  0.09188444  0.86978894  0.49615438  1  0.047254  0.005409  -0.077712  -0.131072  0.002608  3.948223  0.004
C  C150  1  0.90812200  0.36977040  0.00385319  1  0.047827  0.005409  -0.077647  -0.130795  0.002609  3.947588  0.004
C  C151  1  0.59187979  0.63022654  0.50385534  1  0.047417  0.00541  -0.077656  -0.130857  0.002609  3.947693  0.004
C  C152  1  0.46580749  0.03666316  0.15686993  1  -0.02132  -0.007509  0.000838  0.011499  -0.008999  3.95278  -0.004
C  C153  1  0.03418641  0.96333459  0.65686654  1  -0.021179  -0.007509  0.000829  0.011448  -0.008999  3.952651  -0.004
C  C154  1  0.96581345  0.46332923  0.84312287  1  -0.022056  -0.007509  0.000955  0.011456  -0.009  3.952688  -0.004
C  C155  1  0.53419313  0.53666719  0.34313412  1  -0.021317  -0.007509  0.000743  0.011371  -0.009  3.95295  -0.004
C  C156  1  0.98698081  0.80278888  0.26384971  1  -0.008343  0.00238  -0.075178  -0.130545  0.000613  3.92476  0.003
C  C157  1  0.51301657  0.19720869  0.76384554  1  -0.008271  0.00238  -0.075197  -0.130412  0.000613  3.924618  0.003
C  C158  1  0.48697671  0.69721418  0.73614444  1  -0.008658  0.002382  -0.075157  -0.130604  0.000614  3.924978  0.003
C  C159  1  0.01302024  0.30278695  0.23615453  1  -0.008372  0.002381  -0.075233  -0.130491  0.000614  3.924869  0.003
C  C160  1  0.34270133  0.19312897  0.96374999  1  -0.01299  -0.007599  0.000154  0.005125  -0.00912  3.958154  -0.004
C  C161  1  0.15729703  0.80688143  0.46375950  1  -0.01148  -0.007599  0.000237  0.005607  -0.009118  3.957911  -0.004
C  C162  1  0.84270930  0.30686327  0.03624899  1  -0.012568  -0.007595  0.00018  0.00505  -0.009115  3.958431  -0.004
C  C163  1  0.65729282  0.69313337  0.53625039  1  -0.012618  -0.007597  0.000178  0.005098  -0.009117  3.958132  -0.004
C  C164  1  0.03709678  0.78565768  0.21537092  1  0.008754  0.001685  0.002261  0.011823  -0.001266  3.943269  0.003
C  C165  1  0.46290140  0.21433861  0.71536804  1  0.008593  0.001686  0.002186  0.011712  -0.001265  3.943334  0.003
C  C166  1  0.53708663  0.71434940  0.78462355  1  0.00923  0.001685  0.002351  0.012048  -0.001266  3.943296  0.003
C  C167  1  0.96290249  0.28565832  0.28463210  1  0.008509  0.001685  0.002293  0.011883  -0.001266  3.943309  0.003
C  C168  1  0.22124647  0.17816715  0.96097201  1  -0.055105  0.005388  -0.077371  -0.138082  0.002437  3.934261  0.004
C  C169  1  0.27875370  0.82183867  0.46097694  1  -0.055232  0.005388  -0.077375  -0.138319  0.002436  3.934608  0.004
C  C170  1  0.72125529  0.32182495  0.03902660  1  -0.055781  0.005386  -0.077418  -0.138106  0.002436  3.934341  0.004
C  C171  1  0.77874766  0.67817173  0.53903025  1  -0.05586  0.005388  -0.077455  -0.138257  0.002436  3.934221  0.004
C  C172  1  0.40472822  0.27452120  0.93391173  1  1.586015  -0.001699  0.216619  0.56561  -0.002548  4.189021  0.0
C  C173  1  0.09527066  0.72548272  0.43392115  1  1.585821  -0.001699  0.216486  0.565465  -0.00255  4.189153  0.0
C  C174  1  0.90473467  0.22547263  0.06608513  1  1.586497  -0.001699  0.216432  0.565429  -0.002547  4.18952  0.0
C  C175  1  0.59526694  0.77452897  0.56608509  1  1.586439  -0.0017  0.216559  0.565568  -0.002548  4.189362  0.0
C  C176  1  0.10540800  0.69845591  0.20849008  1  -0.033791  0.002038  -0.079401  -0.142975  0.000489  3.948035  0.002
C  C177  1  0.39458679  0.30153877  0.70848504  1  -0.033538  0.002037  -0.079489  -0.143144  0.000488  3.948134  0.002
C  C178  1  0.60539963  0.80155049  0.79150532  1  -0.03372  0.002039  -0.079377  -0.142977  0.00049  3.948037  0.002
C  C179  1  0.89458937  0.19845429  0.29151339  1  -0.033527  0.002038  -0.079514  -0.143262  0.00049  3.948295  0.002
C  C180  1  0.80574116  0.73974374  0.93569908  1  0.4568  -0.009062  0.050431  0.094364  -0.009997  3.938979  -0.005
C  C181  1  0.69425418  0.26025170  0.43570186  1  0.45689  -0.009062  0.05047  0.094251  -0.009996  3.939332  -0.005
C  C182  1  0.30573713  0.76026139  0.06429837  1  0.457316  -0.009065  0.050359  0.094259  -0.01  3.938819  -0.005
C  C183  1  0.19425922  0.23974566  0.56430378  1  0.457178  -0.00906  0.050435  0.094412  -0.009996  3.938877  -0.005
C  C184  1  0.86724369  0.81539217  0.96149866  1  -0.042358  0.008436  -0.075692  -0.143458  0.00394  3.949953  0.007
C  C185  1  0.63275473  0.18460440  0.46150098  1  -0.042688  0.008437  -0.075937  -0.143613  0.00394  3.950426  0.007
C  C186  1  0.36723471  0.68461076  0.03849821  1  -0.042628  0.008437  -0.07584  -0.143733  0.00394  3.950155  0.007
C  C187  1  0.13275857  0.31539062  0.53850564  1  -0.042613  0.008435  -0.075805  -0.143533  0.00394  3.949916  0.007
C  C188  1  0.52663777  0.12712241  0.16575992  1  0.040774  0.003505  -0.080072  -0.150347  0.001358  3.953801  0.004
C  C189  1  0.97335424  0.87287605  0.66575747  1  0.0408  0.003507  -0.080135  -0.150418  0.001358  3.954009  0.004
C  C190  1  0.02664547  0.37287021  0.83423586  1  0.040698  0.003508  -0.080108  -0.150278  0.001359  3.953805  0.004
C  C191  1  0.47336124  0.62712548  0.33424291  1  0.040739  0.003506  -0.080066  -0.150445  0.001358  3.954231  0.004
C  C192  1  0.85037367  0.82746792  0.01457480  1  0.039034  -0.005481  0.007893  0.020567  -0.008174  3.946171  -0.002
C  C193  1  0.64962705  0.17253068  0.51457664  1  0.037644  -0.005475  0.008011  0.020563  -0.008173  3.946274  -0.002
C  C194  1  0.35035915  0.67253423  0.98542289  1  0.038301  -0.005484  0.008061  0.020828  -0.008176  3.946014  -0.002
C  C195  1  0.14962830  0.32746511  0.48542953  1  0.03928  -0.005481  0.008015  0.020761  -0.008176  3.945958  -0.002
C  C196  1  0.17032630  0.10350263  0.99154280  1  0.47776  -0.007923  0.043649  0.09755  -0.008679  3.935663  -0.005
C  C197  1  0.32967687  0.89650210  0.49154668  1  0.477636  -0.007923  0.043687  0.097732  -0.008678  3.935786  -0.005
C  C198  1  0.67033400  0.39649092  0.00845559  1  0.477959  -0.007921  0.043664  0.097519  -0.008677  3.935663  -0.005
C  C199  1  0.82966859  0.60350457  0.50846111  1  0.477821  -0.007921  0.043698  0.097874  -0.008678  3.93557  -0.005
C  C200  1  0.90879977  0.91112157  0.04426619  1  1.592631  0.007238  0.222798  0.588611  0.005258  4.169442  0.006
C  C201  1  0.59120396  0.08887291  0.54426793  1  1.594256  0.007235  0.222728  0.588698  0.005258  4.169391  0.006
C  C202  1  0.40878123  0.58887155  0.95573362  1  1.59332  0.007236  0.222877  0.588816  0.005254  4.169329  0.006
C  C203  1  0.09120760  0.41112510  0.45573960  1  1.592447  0.007235  0.222735  0.588529  0.005256  4.16919  0.006
C  C204  1  0.65371620  0.95233705  0.15439787  1  0.453933  -0.00643  0.050703  0.097199  -0.007758  3.948162  -0.004
C  C205  1  0.84628391  0.04766353  0.65439399  1  0.454254  -0.006432  0.050708  0.097239  -0.007758  3.94806  -0.004
C  C206  1  0.15371880  0.54765729  0.84559506  1  0.454467  -0.00643  0.050549  0.096945  -0.007758  3.948639  -0.004
C  C207  1  0.34628597  0.45234084  0.34560498  1  0.453574  -0.006428  0.05063  0.097024  -0.007759  3.948247  -0.004
C  C208  1  0.53179460  0.94751868  0.15191308  1  -0.048251  0.003437  -0.080073  -0.146657  0.001262  3.951629  0.003
C  C209  1  0.96820379  0.05248186  0.65191036  1  -0.048394  0.003439  -0.080042  -0.146576  0.001263  3.951564  0.003
C  C210  1  0.03179717  0.55247627  0.84807755  1  -0.047973  0.003439  -0.080092  -0.146537  0.001263  3.951879  0.003
C  C211  1  0.46820756  0.44752038  0.34808898  1  -0.048234  0.003438  -0.080021  -0.146478  0.001262  3.951639  0.003
C  C212  1  0.33459255  0.03602958  0.14878372  1  1.565199  -0.001283  0.212499  0.569016  -0.002262  4.200861  0.001
C  C213  1  0.16540940  0.96396654  0.64878222  1  1.565225  -0.00128  0.212532  0.569089  -0.002258  4.200615  0.001
C  C214  1  0.83459661  0.46397023  0.85120873  1  1.564907  -0.001279  0.212509  0.569155  -0.002258  4.200623  0.001
C  C215  1  0.66541071  0.53603236  0.35121993  1  1.565149  -0.001282  0.212555  0.569194  -0.00226  4.200733  0.001
C  C216  1  0.89224856  0.14682385  0.92049171  1  -0.110826  3.8e-05  -0.253017  -0.442461  -2e-06  3.942434  0.0
C  C217  1  0.60775231  0.85317896  0.42049577  1  -0.110185  3.8e-05  -0.253029  -0.442504  -2e-06  3.94223  0.0
C  C218  1  0.39224970  0.35317300  0.07950711  1  -0.110192  3.8e-05  -0.253031  -0.442503  -2e-06  3.942425  0.0
C  C219  1  0.10775606  0.64682441  0.57950619  1  -0.110815  3.8e-05  -0.25305  -0.442607  -2e-06  3.94239  0.0
C  C220  1  0.76087280  0.16161418  0.90987542  1  0.490902  6e-05  -0.003957  0.231928  1.8e-05  3.90578  0.0
C  C221  1  0.73912913  0.83839075  0.40988208  1  0.490409  6e-05  -0.003999  0.231895  1.8e-05  3.905502  0.0
C  C222  1  0.26087374  0.33838326  0.09012074  1  0.490427  6e-05  -0.003997  0.231997  1.8e-05  3.90552  0.0
C  C223  1  0.23913185  0.66161278  0.59012137  1  0.490762  6e-05  -0.003994  0.23196  1.8e-05  3.905669  0.0
C  C224  1  0.68988574  0.07190677  0.92901345  1  -0.084497  -0.000125  -0.010185  0.062987  -0.000109  3.912396  0.0
C  C225  1  0.81011938  0.92809767  0.42901981  1  -0.084662  -0.000125  -0.010315  0.06285  -0.000109  3.91213  0.0
C  C226  1  0.18988451  0.42808908  0.07098218  1  -0.084685  -0.000125  -0.010241  0.062945  -0.000109  3.91213  0.0
C  C227  1  0.31011964  0.57190443  0.57098495  1  -0.084656  -0.000125  -0.010292  0.062851  -0.000109  3.912247  0.0
C  C228  1  0.62078367  0.01289456  0.89592291  1  -0.117074  -6.3e-05  -0.101377  -0.141192  -7.8e-05  3.97925  0.0
C  C229  1  0.87921762  0.98711245  0.39592772  1  -0.116584  -6.3e-05  -0.101199  -0.141102  -7.8e-05  3.979004  0.0
C  C230  1  0.12078724  0.48710651  0.10407372  1  -0.11656  -6.3e-05  -0.101237  -0.1411  -7.8e-05  3.979181  0.0
C  C231  1  0.37921459  0.51288974  0.60407682  1  -0.116681  -6.3e-05  -0.101293  -0.141056  -7.8e-05  3.978975  0.0
C  C232  1  0.55609439  0.93080521  0.91499988  1  0.025857  -0.000201  -0.099459  -0.085869  -0.000264  4.043916  0.0
C  C233  1  0.94390658  0.06920055  0.41500384  1  0.025379  -0.000201  -0.099466  -0.085803  -0.000264  4.043931  0.0
C  C234  1  0.05610201  0.56919659  0.08499685  1  0.025649  -0.000201  -0.099475  -0.085805  -0.000264  4.043837  0.0
C  C235  1  0.44390278  0.43079863  0.58500175  1  0.025614  -0.000201  -0.099541  -0.08599  -0.000264  4.044009  0.0
C  C236  1  0.55932767  0.90664829  0.96737696  1  -0.068124  -9.6e-05  -0.104609  -0.099426  -0.000192  4.034488  0.0
C  C237  1  0.94067416  0.09335897  0.46738102  1  -0.067919  -9.6e-05  -0.104597  -0.099435  -0.000192  4.034781  0.0
C  C238  1  0.05933270  0.59335124  0.03261899  1  -0.067918  -9.6e-05  -0.104576  -0.099498  -0.000192  4.034493  0.0
C  C239  1  0.44067385  0.40664021  0.53262382  1  -0.067619  -9.6e-05  -0.104522  -0.099337  -0.000192  4.03454  0.0
C  C240  1  0.62757507  0.96550040  0.00063991  1  -0.086018  -0.000174  -0.099571  -0.083763  -0.000227  4.042512  0.0
C  C241  1  0.87242941  0.03450635  0.50064554  1  -0.085573  -0.000174  -0.099688  -0.083915  -0.000227  4.042388  0.0
C  C242  1  0.12757679  0.53449467  0.99935619  1  -0.086069  -0.000174  -0.09965  -0.083694  -0.000227  4.042523  0.0
C  C243  1  0.37243151  0.46549350  0.49935952  1  -0.086444  -0.000174  -0.099622  -0.083625  -0.000227  4.042431  0.0
C  C244  1  0.69225235  0.04713231  0.98166402  1  -0.009136  5.9e-05  -0.099148  -0.142595  -1.4e-05  3.967358  0.0
C  C245  1  0.80775100  0.95287439  0.48167049  1  -0.009669  5.9e-05  -0.098977  -0.142428  -1.4e-05  3.96706  0.0
C  C246  1  0.19224942  0.45286202  0.01833160  1  -0.009288  5.8e-05  -0.09913  -0.142745  -1.4e-05  3.967278  0.0
C  C247  1  0.30775563  0.54712771  0.51833429  1  -0.009219  5.8e-05  -0.098997  -0.142569  -1.4e-05  3.967103  0.0
N  N248  1  0.73345495  0.67467860  0.96019981  1  -1.227043  0.06373  -0.32554  -0.246745  0.033956  3.586103  0.054
N  N249  1  0.76653558  0.32531795  0.46020413  1  -1.226757  0.063745  -0.325485  -0.246589  0.033961  3.586125  0.054
N  N250  1  0.23345583  0.82532493  0.03979595  1  -1.226853  0.063743  -0.325427  -0.246586  0.033963  3.585879  0.054
N  N251  1  0.26654005  0.17468329  0.53980050  1  -1.226858  0.063742  -0.325613  -0.24681  0.033961  3.586074  0.054
N  N252  1  0.07389335  0.65039652  0.29682652  1  -1.22429  0.06003  -0.330085  -0.262593  0.032339  3.602214  0.051
N  N253  1  0.42610697  0.34960320  0.79681885  1  -1.224213  0.060042  -0.330093  -0.262525  0.032343  3.602131  0.051
N  N254  1  0.57388919  0.84960530  0.70317092  1  -1.224496  0.060039  -0.330021  -0.262363  0.032343  3.602228  0.051
N  N255  1  0.92611009  0.15039217  0.20317909  1  -1.224216  0.060033  -0.330007  -0.26248  0.03234  3.602039  0.051
N  N256  1  0.23315562  0.04469532  0.02396810  1  -1.22837  0.060546  -0.325081  -0.262914  0.031947  3.572723  0.055
N  N257  1  0.26684845  0.95530889  0.52397125  1  -1.228631  0.060544  -0.325188  -0.263049  0.031948  3.572814  0.055
N  N258  1  0.73316018  0.45530134  0.97602893  1  -1.228281  0.060531  -0.325078  -0.262874  0.03194  3.572567  0.054
N  N259  1  0.76684239  0.54469544  0.47603675  1  -1.22823  0.060542  -0.325042  -0.263001  0.031947  3.572772  0.055
N  N260  1  0.71229026  0.04045112  0.15996284  1  -1.203816  0.058249  -0.322243  -0.243563  0.03098  3.55631  0.049
N  N261  1  0.78770976  0.95954954  0.65995899  1  -1.203306  0.05826  -0.322246  -0.243657  0.030987  3.556396  0.049
N  N262  1  0.21229273  0.45954400  0.84003195  1  -1.204193  0.058259  -0.322162  -0.2434  0.030985  3.556414  0.049
N  N263  1  0.28771213  0.54045557  0.34004083  1  -1.203411  0.058247  -0.322229  -0.243531  0.030982  3.556512  0.049
O  O264  1  0.07419855  0.07089217  0.11623256  1  -1.267714  0.102629  -0.560791  -0.799654  0.055317  2.413991  0.088
O  O265  1  0.42581011  0.92910652  0.61623355  1  -1.267757  0.102625  -0.560829  -0.799556  0.055316  2.414195  0.088
O  O266  1  0.57419409  0.42910127  0.88376113  1  -1.267798  0.102614  -0.560768  -0.799453  0.055309  2.414044  0.088
O  O267  1  0.92580389  0.57090102  0.38377316  1  -1.268193  0.102617  -0.560818  -0.799783  0.055308  2.413845  0.088
O  O268  1  0.27486446  0.11342815  0.16166136  1  -1.1855  0.002377  -0.312089  -0.544044  0.000148  2.177786  0.002
O  O269  1  0.22513376  0.88656436  0.66165745  1  -1.185493  0.002378  -0.312191  -0.544187  0.000149  2.177798  0.002
O  O270  1  0.77486949  0.38656174  0.83833283  1  -1.185506  0.00238  -0.312194  -0.544194  0.000151  2.177517  0.002
O  O271  1  0.72513629  0.61343385  0.33834374  1  -1.185439  0.002377  -0.312138  -0.54415  0.000148  2.177665  0.002
O  O272  1  0.51532245  0.28067011  0.93913226  1  -1.173216  0.003777  -0.29914  -0.516978  0.001366  2.24512  0.003
O  O273  1  0.98467459  0.71933220  0.43914463  1  -1.173209  0.003777  -0.298957  -0.516961  0.001366  2.2451  0.003
O  O274  1  0.01532897  0.21932553  0.06086625  1  -1.173274  0.003778  -0.298924  -0.516764  0.001367  2.24521  0.003
O  O275  1  0.48467272  0.78067844  0.56086536  1  -1.173213  0.003778  -0.299059  -0.516895  0.001367  2.24524  0.003
O  O276  1  0.29361834  0.95692382  0.12695488  1  -1.159541  0.063665  -0.312518  -0.564077  0.033199  2.366105  0.052
O  O277  1  0.20638486  0.04307957  0.62695992  1  -1.159552  0.063658  -0.312491  -0.564074  0.033195  2.365988  0.052
O  O278  1  0.79361784  0.54307145  0.87303490  1  -1.159307  0.063641  -0.312463  -0.564054  0.033184  2.365974  0.052
O  O279  1  0.70638296  0.45692463  0.37304606  1  -1.159528  0.063654  -0.31251  -0.564121  0.033195  2.366067  0.052
O  O280  1  0.94745326  0.93201262  0.18202379  1  -1.143845  0.098572  -0.309511  -0.546482  0.051271  2.400662  0.084
O  O281  1  0.55254902  0.06798153  0.68202210  1  -1.144177  0.09859  -0.309471  -0.546431  0.051276  2.400695  0.084
O  O282  1  0.44744142  0.56799116  0.81797204  1  -1.144028  0.09858  -0.309507  -0.546465  0.051275  2.400493  0.084
O  O283  1  0.05254711  0.43201643  0.31798092  1  -1.144026  0.098568  -0.309465  -0.546455  0.051265  2.40054  0.084
O  O284  1  0.07560979  0.84542069  0.13072301  1  -1.160919  0.052901  -0.307893  -0.551157  0.026785  2.342322  0.046
O  O285  1  0.42440301  0.15458123  0.63071849  1  -1.160762  0.052906  -0.307819  -0.551033  0.026787  2.342314  0.046
O  O286  1  0.57559547  0.65458340  0.86927327  1  -1.161277  0.052887  -0.307934  -0.551203  0.026779  2.342386  0.046
O  O287  1  0.92439484  0.34541641  0.36928100  1  -1.160846  0.052895  -0.307803  -0.551063  0.026781  2.342189  0.046
O  O288  1  0.01033724  0.93901676  0.02822256  1  -1.162739  0.075411  -0.3146  -0.566918  0.038083  2.373398  0.06
O  O289  1  0.48967027  0.06097311  0.52822289  1  -1.162655  0.075401  -0.314517  -0.566921  0.038078  2.373248  0.06
O  O290  1  0.51031752  0.56097286  0.97177585  1  -1.162465  0.075404  -0.314603  -0.566961  0.038078  2.373245  0.06
O  O291  1  0.98966754  0.43901930  0.47178487  1  -1.162757  0.075421  -0.314644  -0.567007  0.038086  2.373104  0.06
O  O292  1  0.34123669  0.33278201  0.90605637  1  -1.152238  0.072524  -0.312682  -0.564353  0.03786  2.375944  0.06
O  O293  1  0.15875914  0.66722455  0.40606305  1  -1.152431  0.072536  -0.312643  -0.564311  0.037861  2.376439  0.06
O  O294  1  0.84124433  0.16721099  0.09394031  1  -1.152675  0.072532  -0.312692  -0.564316  0.037863  2.376316  0.06
O  O295  1  0.65876120  0.83279025  0.59393951  1  -1.152624  0.072544  -0.312714  -0.56434  0.037869  2.376292  0.06
O  O296  1  0.85277279  0.94593780  0.08233882  1  -1.147228  0.063177  -0.290905  -0.542795  0.032176  2.381374  0.056
O  O297  1  0.64723118  0.05406024  0.58234140  1  -1.147455  0.063185  -0.290863  -0.542806  0.032181  2.381495  0.056
O  O298  1  0.35275572  0.55405753  0.91765964  1  -1.147571  0.063171  -0.290944  -0.543035  0.032175  2.381498  0.056
O  O299  1  0.14722761  0.44594465  0.41766826  1  -1.147144  0.063159  -0.290768  -0.542681  0.032168  2.381288  0.056
O  O300  1  0.73979723  0.17705515  0.85598198  1  -1.155445  -3.5e-05  -0.419318  -0.533784  -6.3e-05  2.223177  0.0
O  O301  1  0.76021177  0.82294599  0.35598775  1  -1.15515  -3.5e-05  -0.419256  -0.533663  -6.3e-05  2.222841  0.0
O  O302  1  0.23979107  0.32293999  0.14401502  1  -1.155259  -3.5e-05  -0.41928  -0.533743  -6.3e-05  2.222959  0.0
O  O303  1  0.26021008  0.67706060  0.64401487  1  -1.155281  -3.5e-05  -0.419326  -0.53386  -6.3e-05  2.222876  0.0
