# generated using pymatgen
data_ZnH7C21N3Cl5O4
_symmetry_space_group_name_H-M   'P 1'
_cell_length_a   15.31580386
_cell_length_b   15.89097499
_cell_length_c   17.22115449
_cell_angle_alpha   86.42947983
_cell_angle_beta   90.07189484
_cell_angle_gamma   87.04985006
_symmetry_Int_Tables_number   1
_chemical_formula_structural   ZnH7C21N3Cl5O4
_chemical_formula_sum   'Zn2 H14 C42 N6 Cl10 O8'
_cell_volume   4177.61556511
_cell_formula_units_Z   2
loop_
 _symmetry_equiv_pos_site_id
 _symmetry_equiv_pos_as_xyz
  1  'x, y, z'
loop_
 _atom_site_type_symbol
 _atom_site_label
 _atom_site_symmetry_multiplicity
 _atom_site_fract_x
 _atom_site_fract_y
 _atom_site_fract_z
 _atom_site_occupancy
 _atom_site_pbe_bader_charge
 _atom_site_pbe_bader_spin_density
 _atom_site_pbe_cm5_charge
 _atom_site_pbe_ddec_charge
 _atom_site_pbe_ddec_spin_density
 _atom_site_pbe_ddec_sum_bond_order
 _atom_site_pbe_magmom
Zn  Zn0  1  0.49455246  0.58857044  0.50169461  1  1.279502  0  0.6705  0.825416  0  2.416867  0
Zn  Zn1  1  0.50545091  0.41143264  0.49830576  1  1.277393  0  0.670442  0.825294  0  2.417086  0
H  H2  1  0.58029960  0.88955341  0.42585525  1  0.146102  0  0.123267  0.13338  0  0.99401  0
H  H3  1  0.41970118  0.11044905  0.57414458  1  0.146145  0  0.123277  0.133385  0  0.994032  0
H  H4  1  0.60395709  0.28807046  0.40440154  1  0.134562  0  0.136283  0.128174  0  0.956233  0
H  H5  1  0.39604438  0.71193137  0.59559890  1  0.13461  0  0.136277  0.128191  0  0.956236  0
H  H6  1  0.07637956  0.60283389  0.32108865  1  0.088264  0  0.097533  0.102827  0  1.022776  0
H  H7  1  0.92362388  0.39716732  0.67890659  1  0.088422  0  0.097512  0.102781  0  1.022693  0
H  H8  1  0.91577471  0.60431772  0.32039838  1  0.085208  0  0.096471  0.101296  0  1.023905  0
H  H9  1  0.08423014  0.39568096  0.67959468  1  0.085379  0  0.09647  0.101316  0  1.023898  0
H  H10  1  0.58460787  0.57426256  0.89685958  1  0.134986  0  0.112917  0.13026  0  1.008698  0
H  H11  1  0.41533158  0.42575348  0.10315006  1  0.134958  0  0.11312  0.130508  0  1.008291  0
H  H12  1  0.56896594  0.62936901  0.25442387  1  0.117168  0  0.107358  0.128913  0  0.994677  0
H  H13  1  0.43100523  0.37063806  0.74557285  1  0.116938  0  0.107317  0.128827  0  0.994654  0
H  H14  1  0.58354010  0.73010352  0.42270027  1  0.125269  0  0.131033  0.108731  0  0.971252  0
H  H15  1  0.41645934  0.26989959  0.57729894  1  0.125237  0  0.131019  0.10869  0  0.971257  0
C  C16  1  0.49361223  0.51661929  0.34834698  1  1.548423  0  0.212131  0.597118  0  4.183081  0
C  C17  1  0.50637840  0.48339080  0.65165535  1  1.548292  0  0.212014  0.59705  0  4.183469  0
C  C18  1  0.95257558  0.57511707  0.36999372  1  -0.038365  0  -0.094157  -0.117142  0  4.015069  0
C  C19  1  0.04742796  0.42488162  0.62999818  1  -0.038354  0  -0.094142  -0.117195  0  4.01491  0
C  C20  1  0.48862644  0.52255997  0.26103173  1  0.103081  0  -0.007772  -0.049349  0  3.908283  0
C  C21  1  0.51134739  0.47744642  0.73897257  1  0.104964  0  -0.008058  -0.049854  0  3.908805  0
C  C22  1  0.44303428  0.46610210  0.21761053  1  0.020053  0  0.019162  0.140415  0  4.02208  0
C  C23  1  0.55692853  0.53390307  0.78240025  1  0.019248  0  0.019308  0.140578  0  4.022349  0
C  C24  1  0.44962420  0.46929758  0.13721631  1  0.110482  0  -0.085373  -0.198249  0  3.932399  0
C  C25  1  0.55032727  0.53071272  0.86279304  1  0.109643  0  -0.085178  -0.197921  0  3.933121  0
C  C26  1  0.50119245  0.52850508  0.09732389  1  0.313015  0  0.087194  0.127651  0  4.031723  0
C  C27  1  0.49875842  0.47150397  0.90268204  1  0.312818  0  0.087289  0.127733  0  4.032115  0
C  C28  1  0.54242446  0.58828194  0.14021148  1  0.109487  0  0.020323  0.095996  0  4.010112  0
C  C29  1  0.45753857  0.41171821  0.85979086  1  0.1094  0  0.020309  0.095913  0  4.010065  0
C  C30  1  0.53583444  0.58447739  0.22098790  1  -0.036446  0  -0.089556  -0.155002  0  3.964354  0
C  C31  1  0.46413891  0.41552522  0.77901428  1  -0.036719  0  -0.089395  -0.154604  0  3.964126  0
C  C32  1  0.45912849  0.23553703  0.53824017  1  0.538629  0  0.061973  0.104326  0  3.901886  0
C  C33  1  0.54087160  0.76446607  0.46175962  1  0.538656  0  0.061953  0.104303  0  3.901762  0
C  C34  1  0.46086569  0.14867051  0.53615240  1  -0.070021  0  -0.062606  -0.160668  0  3.912307  0
C  C35  1  0.53913503  0.85133321  0.46384852  1  -0.070042  0  -0.062507  -0.160595  0  3.912206  0
C  C36  1  0.51722343  0.10852545  0.48392377  1  0.438865  0  0.104785  0.139877  0  4.007767  0
C  C37  1  0.48277803  0.89147638  0.51607726  1  0.43862  0  0.104734  0.13988  0  4.007739  0
C  C38  1  0.67007548  0.50077438  0.49801689  1  1.635608  0  0.20906  0.611511  0  4.20327  0
C  C39  1  0.32992639  0.49923251  0.50198154  1  1.635746  0  0.209174  0.611547  0  4.203222  0
C  C40  1  0.56982272  0.15913582  0.43501239  1  0.057325  0  0.036583  0.057643  0  3.996611  0
C  C41  1  0.43017936  0.84086663  0.56498802  1  0.057283  0  0.036555  0.057607  0  3.996428  0
C  C42  1  0.56429642  0.24667435  0.44097571  1  0.619502  0  0.06609  0.050637  0  3.868042  0
C  C43  1  0.43570498  0.75332874  0.55902467  1  0.619522  0  0.066101  0.05067  0  3.867879  0
C  C44  1  0.18650458  0.46276442  0.56455290  1  0.07619  0  0.019492  0.086506  0  3.988514  0
C  C45  1  0.81349705  0.53723302  0.43543849  1  0.07697  0  0.019405  0.086444  0  3.988371  0
C  C46  1  0.23148876  0.49875013  0.50123909  1  0.10508  0  -0.02195  -0.135242  0  3.982694  0
C  C47  1  0.76851399  0.50125171  0.49875612  1  0.104467  0  -0.021983  -0.135264  0  3.98274  0
C  C48  1  0.18380173  0.53485040  0.43709369  1  0.004891  0  0.020368  0.087758  0  3.990353  0
C  C49  1  0.81619957  0.46515460  0.56290368  1  0.00532  0  0.020371  0.087675  0  3.990404  0
C  C50  1  0.09161193  0.53670035  0.43478005  1  0.042755  0  -0.013839  0.013033  0  4.031321  0
C  C51  1  0.90839011  0.46330276  0.56521452  1  0.042778  0  -0.013794  0.013144  0  4.031135  0
C  C52  1  0.04671700  0.49962050  0.50018577  1  0.062395  0  0.006927  0.02409  0  3.899772  0
C  C53  1  0.95328704  0.50038134  0.49980653  1  -0.041576  0  0.006989  0.024084  0  3.89963  0
C  C54  1  0.09446466  0.46175810  0.56604786  1  -0.017549  0  -0.015197  0.010986  0  4.035894  0
C  C55  1  0.90553891  0.53823996  0.43394350  1  -0.017559  0  -0.015202  0.011084  0  4.035819  0
C  C56  1  0.04173025  0.57431129  0.37036407  1  0.004892  0  -0.094067  -0.116297  0  4.012597  0
C  C57  1  0.95827249  0.42569056  0.62962998  1  0.00495  0  -0.094064  -0.116189  0  4.012299  0
N  N58  1  0.51293828  0.53187372  0.01635474  1  -0.475512  0  -0.146795  -0.111385  0  3.279603  0
N  N59  1  0.48699874  0.46813794  0.98364817  1  -0.430644  0  -0.146795  -0.111447  0  3.279719  0
N  N60  1  0.51048216  0.28307993  0.49151296  1  -1.21975  0  -0.307619  -0.162256  0  3.508991  0
N  N61  1  0.48951793  0.71692317  0.50848683  1  -1.219825  0  -0.307657  -0.162413  0  3.508865  0
N  N62  1  0.52498774  0.02049611  0.47743613  1  -0.450305  0  -0.129919  -0.097762  0  3.248169  0
N  N63  1  0.47501432  0.97950697  0.52256482  1  -0.494451  0  -0.129933  -0.097779  0  3.248123  0
Cl  Cl64  1  0.24656670  0.42009422  0.64441673  1  -0.20564  0  -0.000857  -0.065887  0  1.515782  0
Cl  Cl65  1  0.75343434  0.57990196  0.35557589  1  -0.205682  0  -0.000836  -0.0659  0  1.515787  0
Cl  Cl66  1  0.64016573  0.11729248  0.36874909  1  -0.154609  0  0.019582  -0.045852  0  1.453744  0
Cl  Cl67  1  0.35983765  0.88271059  0.63125476  1  -0.154608  0  0.019566  -0.045868  0  1.453642  0
Cl  Cl68  1  0.24051485  0.57697232  0.35830885  1  -0.191076  0  0.006839  -0.052951  0  1.539082  0
Cl  Cl69  1  0.75949019  0.42303643  0.64168888  1  -0.191361  0  0.006872  -0.052893  0  1.539147  0
Cl  Cl70  1  0.62468617  0.60630670  0.73831615  1  -0.190391  0  -0.020322  -0.08065  0  1.47883  0
Cl  Cl71  1  0.37528772  0.39369964  0.26170267  1  -0.190878  0  -0.020267  -0.080572  0  1.478854  0
Cl  Cl72  1  0.60340864  0.66482135  0.09438871  1  -0.189761  0  -0.022617  -0.091771  0  1.441019  0
Cl  Cl73  1  0.39654507  0.33518204  0.90560533  1  -0.189432  0  -0.022639  -0.091837  0  1.441154  0
O  O74  1  0.49182522  0.58568159  0.38219884  1  -1.157565  0  -0.316585  -0.545264  0  2.307032  0
O  O75  1  0.50816963  0.41432216  0.61780325  1  -1.157594  0  -0.316595  -0.545277  0  2.307071  0
O  O76  1  0.50240407  0.44271873  0.38044927  1  -1.139489  0  -0.310752  -0.538299  0  2.37193  0
O  O77  1  0.49759533  0.55728562  0.61955336  1  -1.139636  0  -0.310588  -0.538123  0  2.372177  0
O  O78  1  0.62907389  0.57155625  0.50285574  1  -1.156532  0  -0.313093  -0.543917  0  2.332352  0
O  O79  1  0.37092885  0.42844559  0.49713947  1  -1.156383  0  -0.313165  -0.543975  0  2.332159  0
O  O80  1  0.63784749  0.42945593  0.49291143  1  -1.155779  0  -0.313029  -0.538834  0  2.322301  0
O  O81  1  0.36215475  0.57054336  0.50709031  1  -1.155952  0  -0.313044  -0.538768  0  2.322518  0
