# generated using pymatgen
data_Ni2H21C22N15O2
_symmetry_space_group_name_H-M   'P 1'
_cell_length_a   8.23358128
_cell_length_b   11.19408358
_cell_length_c   15.23580211
_cell_angle_alpha   94.14388928
_cell_angle_beta   98.13296401
_cell_angle_gamma   103.18562405
_symmetry_Int_Tables_number   1
_chemical_formula_structural   Ni2H21C22N15O2
_chemical_formula_sum   'Ni4 H42 C44 N30 O4'
_cell_volume   1345.48864756
_cell_formula_units_Z   2
loop_
 _symmetry_equiv_pos_site_id
 _symmetry_equiv_pos_as_xyz
  1  'x, y, z'
loop_
 _atom_site_type_symbol
 _atom_site_label
 _atom_site_symmetry_multiplicity
 _atom_site_fract_x
 _atom_site_fract_y
 _atom_site_fract_z
 _atom_site_occupancy
 _atom_site_pbe_bader_charge
 _atom_site_pbe_bader_spin_density
 _atom_site_pbe_cm5_charge
 _atom_site_pbe_ddec_charge
 _atom_site_pbe_ddec_spin_density
 _atom_site_pbe_ddec_sum_bond_order
 _atom_site_pbe_magmom
Ni  Ni0  1  0.41150033  0.15845739  0.71798460  1  1.075787  0.116926  0.666351  0.658965  0.05199  2.790643  0.116
Ni  Ni1  1  0.59077132  0.84202544  0.28235961  1  1.139142  1.462611  0.688293  0.711698  1.737018  2.739858  1.449
Ni  Ni2  1  0.13719591  0.24562216  0.82362432  1  1.104095  1.383091  0.669235  0.681588  1.641269  2.698124  1.37
Ni  Ni3  1  0.85628167  0.75084900  0.17539617  1  1.116748  1.453721  0.675105  0.698473  1.724672  2.684721  1.441
H  H4  1  0.77825290  0.19750262  0.99375731  1  0.512221  0.001782  0.306411  0.265702  0.001489  1.011417  0.0
H  H5  1  0.21898847  0.80075533  0.00653704  1  0.495206  0.001616  0.307096  0.266409  0.00138  1.009103  0.0
H  H6  1  0.69002943  0.98939918  0.98393258  1  0.069754  0.001381  0.106905  0.117726  0.0006  1.030878  0.001
H  H7  1  0.30910038  0.00840939  0.01752623  1  0.091809  0.001447  0.10725  0.118611  0.000672  1.030496  0.001
H  H8  1  0.11890437  0.89085728  0.51272574  1  0.507784  0.000462  0.301041  0.258575  0.000399  1.031139  0.0
H  H9  1  0.88203233  0.11346100  0.48775038  1  0.506689  0.00015  0.300093  0.257585  -3.1e-05  1.033192  0.0
H  H10  1  0.34783254  0.76354746  0.85537950  1  0.108832  0.000385  0.102171  0.110145  0.000317  1.055569  0.0
H  H11  1  0.66056176  0.24355270  0.14498061  1  0.089576  0.001318  0.102207  0.10935  0.000752  1.054569  0.0
H  H12  1  0.47624810  0.98151476  0.83617273  1  0.121869  -0.000133  0.117119  0.086389  -0.000106  1.037886  0.0
H  H13  1  0.53069161  0.02553114  0.16300221  1  0.117302  0.00254  0.11452  0.082364  0.001063  1.033576  0.001
H  H14  1  0.07861659  0.98167650  0.76923896  1  0.101237  0.00213  0.113429  0.080359  0.000803  1.070665  0.001
H  H15  1  0.91775686  0.01633476  0.23073484  1  0.122289  0.001916  0.112651  0.077991  0.000506  1.071933  0.001
H  H16  1  0.05621525  0.73369371  0.59095774  1  0.101472  -1e-05  0.11474  0.137108  -5.1e-05  1.008875  0.0
H  H17  1  0.94884366  0.27100073  0.41009850  1  0.123824  0.001267  0.113353  0.137261  0.000496  1.010126  0.001
H  H18  1  0.88692590  0.78237969  0.79161027  1  0.076298  0.001022  0.100242  0.104053  0.000471  1.028736  0.0
H  H19  1  0.11103210  0.21532952  0.20931128  1  0.096319  0.001025  0.10092  0.105127  0.000464  1.028991  0.0
H  H20  1  0.68442414  0.78766058  0.90252292  1  0.085263  0.000757  0.10337  0.09714  0.000557  1.018529  0.0
H  H21  1  0.31471472  0.20998838  0.09895851  1  0.100155  0.00085  0.104307  0.098939  0.000622  1.016483  0.0
H  H22  1  0.38309238  0.58299974  0.08298901  1  0.089527  0.000875  0.105095  0.111061  0.00033  1.037812  0.0
H  H23  1  0.61603804  0.41500132  0.91495466  1  0.098792  0.000881  0.105523  0.11225  0.000381  1.035417  0.0
H  H24  1  0.89512625  0.35429807  0.10319574  1  0.087164  0.001203  0.109968  0.12342  0.000544  1.018077  0.001
H  H25  1  0.10449814  0.64529453  0.89712237  1  0.09002  0.001203  0.109889  0.123284  0.000539  1.013243  0.001
H  H26  1  0.60325414  0.30163211  0.59656508  1  0.133042  0.002577  0.122243  0.099876  0.00111  0.994821  0.002
H  H27  1  0.40275543  0.69958505  0.40360895  1  0.133635  0.002469  0.122347  0.100794  0.001048  0.995817  0.002
H  H28  1  0.37405240  0.45066440  0.94147137  1  0.114757  0.002056  0.113627  0.079527  0.000792  1.047552  0.001
H  H29  1  0.62185486  0.54707529  0.05607851  1  0.124685  0.002102  0.113693  0.079981  0.000806  1.048698  0.002
H  H30  1  0.12340110  0.63622532  0.73043291  1  0.097392  1.6e-05  0.116183  0.118555  -7.6e-05  0.969276  0.0
H  H31  1  0.88424311  0.36940996  0.27070755  1  0.098951  8.4e-05  0.115976  0.118154  1.3e-05  0.969161  0.0
H  H32  1  0.37390426  0.14920128  0.32681865  1  0.0773  0.000218  0.105954  0.104661  0.000105  1.002932  0.0
H  H33  1  0.62781132  0.85509417  0.67335595  1  0.074966  0.000174  0.105146  0.103517  6.6e-05  1.005442  0.0
H  H34  1  0.58912041  0.31491725  0.43272385  1  0.088002  0.001144  0.104814  0.110642  0.000528  1.018521  0.001
H  H35  1  0.41483251  0.68759265  0.56759573  1  0.045281  0.001047  0.10378  0.109617  0.000481  1.019541  0.0
H  H36  1  0.13225997  0.53681756  0.16352974  1  0.15406  0.000391  0.107802  0.113006  0.000341  1.0316  0.0
H  H37  1  0.86844260  0.46241486  0.83559635  1  0.141753  -0.00047  0.1079  0.113821  -0.000917  1.033882  0.0
H  H38  1  0.60908177  0.55485740  0.70318088  1  0.043481  0.001842  0.095702  0.151313  0.00079  0.989831  0.001
H  H39  1  0.38973847  0.43675963  0.29397321  1  0.036667  0.001971  0.093831  0.149077  0.000836  0.9911  0.001
H  H40  1  0.52712520  0.61164024  0.79659616  1  0.078111  -0.000406  0.093522  0.14417  -0.00034  1.020303  0.0
H  H41  1  0.47381575  0.38152768  0.20068598  1  0.050487  0.000602  0.091696  0.141233  0.000222  1.02534  0.0
H  H42  1  0.40402159  0.58714384  0.68930444  1  0.055388  -0.000127  0.095384  0.146516  -0.000138  1.020685  0.0
H  H43  1  0.59564754  0.40611940  0.30822767  1  0.034892  0.000265  0.093413  0.14361  -4.4e-05  1.025764  0.0
H  H44  1  0.19420213  0.97841838  0.39016480  1  0.113522  0.001632  0.111344  0.13146  0.000697  1.00738  0.001
H  H45  1  0.80571008  0.02632638  0.60992946  1  0.089284  0.001381  0.111564  0.131327  0.00052  1.009419  0.001
C  C46  1  0.01488781  0.30426698  0.99347938  1  0.972858  -0.001631  0.2312  0.379076  -0.002174  4.037217  -0.002
C  C47  1  0.98234293  0.69425042  0.00613264  1  0.941578  -0.001137  0.231513  0.379917  -0.001745  4.043147  -0.001
C  C48  1  0.77365016  0.98300744  0.93541887  1  -0.006162  0.00463  -0.093931  -0.22012  0.002998  3.937612  0.003
C  C49  1  0.22501320  0.01471398  0.06585348  1  -0.006691  0.004628  -0.093851  -0.220731  0.003051  3.935949  0.003
C  C50  1  0.41262967  0.42131419  0.74938667  1  1.551713  -0.00092  0.21587  0.675637  -0.001401  4.094919  -0.001
C  C51  1  0.58471019  0.57247328  0.24910937  1  1.555756  -0.001883  0.212035  0.681236  -0.002093  4.109368  -0.003
C  C52  1  0.88744214  0.09068300  0.91923809  1  0.961262  -0.00132  0.23011  0.382246  -0.001854  4.028495  -0.002
C  C53  1  0.11026293  0.90722816  0.08151517  1  0.937737  -0.001015  0.230496  0.383709  -0.001505  4.030379  -0.001
C  C54  1  0.23188595  0.90800952  0.64107859  1  0.918222  -0.001645  0.233541  0.378458  -0.002069  4.020084  -0.001
C  C55  1  0.77081779  0.09756396  0.35921821  1  0.97251  -0.000408  0.232532  0.379453  -0.001043  4.025383  -0.001
C  C56  1  0.30859694  0.80128269  0.79434619  1  0.004369  0.000249  -0.102575  -0.172847  3.1e-05  4.01614  0.0
C  C57  1  0.69849117  0.20521841  0.20597294  1  0.008904  0.004393  -0.102976  -0.173415  0.002656  4.019178  0.004
C  C58  1  0.38121586  0.92270368  0.78447467  1  0.369817  0.000524  0.042656  0.097471  0.000448  3.957032  0.001
C  C59  1  0.62434390  0.08395816  0.21558623  1  0.398076  -0.00324  0.041676  0.100149  -0.003612  3.972073  -0.003
C  C60  1  0.99115787  0.97787033  0.81658454  1  0.457197  -0.002942  0.039071  0.103758  -0.003258  3.945526  -0.002
C  C61  1  0.00593307  0.01999144  0.18378051  1  0.414227  -0.00271  0.040269  0.107276  -0.003109  3.94586  -0.002
C  C62  1  0.14672338  0.78492207  0.64788040  1  0.039674  0.000256  -0.090016  -0.228903  1.1e-05  3.92792  0.0
C  C63  1  0.85815312  0.22034653  0.35304761  1  -0.021846  0.00434  -0.090255  -0.229936  0.00274  3.925307  0.003
C  C64  1  0.88284081  0.86812286  0.82868870  1  -0.03944  0.004237  -0.104495  -0.165428  0.002486  4.014526  0.003
C  C65  1  0.11509589  0.12965791  0.17214955  1  0.004667  0.004119  -0.103824  -0.164634  0.002455  4.013269  0.003
C  C66  1  0.77133677  0.87127298  0.88971782  1  0.010215  -0.003394  -0.074401  -0.012225  -0.003465  3.993516  -0.002
C  C67  1  0.22725320  0.12648184  0.11151428  1  -0.039212  -0.002965  -0.074954  -0.013706  -0.003036  3.993081  -0.002
C  C68  1  0.27706891  0.50449617  0.05913714  1  -0.036893  0.004295  -0.101394  -0.161397  0.002527  4.003642  0.004
C  C69  1  0.72132323  0.49391390  0.93908302  1  -0.022249  0.004271  -0.102053  -0.162716  0.002602  4.00237  0.004
C  C70  1  0.00579616  0.37822750  0.07065479  1  -0.03519  0.004346  -0.089882  -0.22299  0.002627  3.948825  0.003
C  C71  1  0.99295054  0.62088592  0.92897893  1  -0.051742  0.004481  -0.090417  -0.224523  0.002731  3.952337  0.004
C  C72  1  0.51478316  0.23243159  0.54800856  1  0.472775  -0.000112  0.045848  0.105046  -0.000675  3.945063  -0.001
C  C73  1  0.48935822  0.76980026  0.45222837  1  0.395866  -0.002769  0.045615  0.108505  -0.003292  3.94467  -0.003
C  C74  1  0.27410178  0.43074057  0.98170592  1  0.417845  -0.002874  0.037684  0.09323  -0.00309  3.967285  -0.002
C  C75  1  0.72246287  0.56743723  0.01630069  1  0.381123  -0.002613  0.037854  0.094214  -0.002932  3.968238  -0.002
C  C76  1  0.18542014  0.73193213  0.72494015  1  -0.04246  -0.0008  -0.070121  -0.021461  -0.000839  4.00729  -0.001
C  C77  1  0.82116561  0.27381818  0.27593707  1  -0.035156  -0.004243  -0.070327  -0.02076  -0.004302  4.005812  -0.003
C  C78  1  0.38570802  0.14800022  0.39888612  1  -0.042002  -0.001833  -0.07122  -0.006726  -0.00194  3.983866  -0.001
C  C79  1  0.61620575  0.85583407  0.60125598  1  0.001044  -0.004294  -0.073238  -0.009529  -0.004367  3.988802  -0.003
C  C80  1  0.50485430  0.23952166  0.45709647  1  -0.058856  0.005114  -0.100851  -0.161615  0.003042  4.011178  0.004
C  C81  1  0.49843270  0.76331753  0.54316745  1  0.033617  0.004951  -0.101329  -0.163412  0.003048  4.013521  0.004
C  C82  1  0.13806430  0.47833561  0.10415458  1  -0.033225  -0.004532  -0.072221  -0.007375  -0.004695  3.966486  -0.003
C  C83  1  0.86129854  0.52071621  0.89480671  1  0.009261  -0.005513  -0.073126  -0.009959  -0.005532  3.968169  -0.004
C  C84  1  0.30252216  0.05167053  0.52713351  1  0.948679  0.001221  0.229777  0.376903  0.000519  4.017547  0.001
C  C85  1  0.69913849  0.95230485  0.47281959  1  0.950215  -0.000585  0.228592  0.375668  -0.001026  4.016695  -0.001
C  C86  1  0.49535787  0.55177763  0.73330884  1  -0.093837  0.004143  -0.245666  -0.515561  0.002557  3.893641  0.003
C  C87  1  0.50403710  0.44106125  0.26409335  1  -0.051124  0.01449  -0.248084  -0.51588  0.009279  3.896137  0.011
C  C88  1  0.28416714  0.05299163  0.43377762  1  0.002441  0.00519  -0.090501  -0.215706  0.003217  3.914106  0.004
C  C89  1  0.71676285  0.95127564  0.56625846  1  -0.003613  0.005281  -0.091022  -0.213859  0.003306  3.911691  0.004
N  N90  1  0.45187670  0.18943797  0.92250845  1  -0.330422  0.023594  0.086083  0.422461  0.009723  4.453618  0.012
N  N91  1  0.54466305  0.80939539  0.07791429  1  -0.33219  0.021287  0.089762  0.427516  0.008239  4.453338  0.009
N  N92  1  0.99416455  0.08798769  0.86013537  1  -1.208354  0.072369  -0.332743  -0.312336  0.044085  3.557028  0.064
N  N93  1  0.00248138  0.90990986  0.14004890  1  -1.227402  0.07363  -0.332419  -0.318412  0.044843  3.554174  0.066
N  N94  1  0.14366798  0.16383420  0.69643040  1  -0.263234  -0.002368  -0.287149  -0.498777  -0.010024  3.208485  0.001
N  N95  1  0.84666220  0.83281235  0.30308010  1  -0.262895  0.057639  -0.292069  -0.500524  0.040441  3.241199  0.057
N  N96  1  0.08757194  0.20250813  0.63031039  1  -0.319836  0.001978  0.085516  0.421557  -0.002224  4.465868  0.001
N  N97  1  0.90796891  0.79777645  0.36966907  1  -0.344348  0.021438  0.090467  0.42678  0.007074  4.449144  0.007
N  N98  1  0.14542644  0.33234174  0.94812618  1  -1.20703  0.068174  -0.334545  -0.314816  0.041635  3.54151  0.061
N  N99  1  0.85042661  0.66600675  0.05046890  1  -1.206365  0.071726  -0.333882  -0.316075  0.043819  3.542805  0.064
N  N100  1  0.34098867  0.97696008  0.71067532  1  -1.193064  -0.007982  -0.338056  -0.296317  -0.008219  3.600991  -0.006
N  N101  1  0.66180699  0.02944260  0.28953690  1  -1.257144  0.072482  -0.339373  -0.322486  0.044186  3.585909  0.064
N  N102  1  0.35991878  0.18267991  0.85324403  1  -0.24291  0.051591  -0.278725  -0.490349  0.0366  3.232087  0.048
N  N103  1  0.63624878  0.81649825  0.14735597  1  -0.261712  0.051194  -0.282674  -0.497761  0.036348  3.245547  0.05
N  N104  1  0.65703674  0.14665587  0.75870915  1  -0.141882  0.03743  -0.25034  -0.440402  0.012667  2.968978  0.024
N  N105  1  0.34327073  0.84753978  0.24995368  1  -0.165089  0.096168  -0.258426  -0.452614  0.059577  2.991639  0.076
N  N106  1  0.41404723  0.14173352  0.58298542  1  -1.206077  0.09268  -0.328279  -0.300585  0.055443  3.54376  0.078
N  N107  1  0.58924785  0.86091739  0.41714837  1  -1.202847  0.085561  -0.331113  -0.310853  0.051939  3.554097  0.076
N  N108  1  0.88553393  0.20054520  0.96581233  1  -1.331908  0.003341  -0.398177  -0.392886  0.001479  3.603522  0.004
N  N109  1  0.11205820  0.79743638  0.03477392  1  -1.282451  0.003227  -0.399332  -0.395004  0.001383  3.601998  0.004
N  N110  1  0.54122920  0.19417797  0.99097280  1  -0.130544  0.117062  -0.211018  -0.428548  0.066148  2.676403  0.083
N  N111  1  0.45634910  0.80411394  0.00916170  1  -0.107384  0.114663  -0.206209  -0.42239  0.064678  2.680879  0.081
N  N112  1  0.03262395  0.23793281  0.56453119  1  -0.087486  0.007142  -0.21145  -0.41096  -0.006761  2.645734  0.005
N  N113  1  0.96924329  0.76551040  0.43513636  1  -0.045444  0.141055  -0.199841  -0.394857  0.080541  2.635915  0.098
N  N114  1  0.20217710  0.95458671  0.56077269  1  -1.288562  0.0014  -0.393563  -0.384872  0.000538  3.578907  0.001
N  N115  1  0.79898562  0.04991971  0.43941653  1  -1.291495  0.000803  -0.394598  -0.385723  -0.000174  3.572694  0.001
N  N116  1  0.78445547  0.22367058  0.76283159  1  -0.350136  -0.004957  0.079601  0.416194  -0.008341  4.430748  -0.006
N  N117  1  0.21247098  0.77341717  0.24031297  1  -0.350858  0.023527  0.086546  0.431327  0.009512  4.457668  0.012
N  N118  1  0.91682066  0.29683313  0.76935036  1  -0.158904  -0.033195  -0.249714  -0.443975  -0.032478  2.913437  -0.015
N  N119  1  0.07794413  0.70272547  0.23015346  1  -0.150672  0.070204  -0.256256  -0.456024  0.044623  2.935178  0.058
O  O120  1  0.28365729  0.40765888  0.78775095  1  -1.154433  0.05693  -0.307532  -0.530962  0.03394  2.30378  0.053
O  O121  1  0.71249249  0.58739206  0.20903769  1  -1.153896  0.064222  -0.315218  -0.543773  0.03769  2.299694  0.06
O  O122  1  0.48315108  0.33779631  0.72203236  1  -1.117632  -0.01236  -0.306863  -0.522019  -0.012727  2.392157  -0.011
O  O123  1  0.51660392  0.65544495  0.27835812  1  -1.152172  0.069179  -0.315227  -0.550509  0.040541  2.360057  0.065
