# generated using pymatgen
data_ZnH20C24(N9O2)2
_symmetry_space_group_name_H-M   'P 1'
_cell_length_a   7.57312147
_cell_length_b   7.35582519
_cell_length_c   14.44532746
_cell_angle_alpha   75.96036988
_cell_angle_beta   78.66804884
_cell_angle_gamma   62.96186546
_symmetry_Int_Tables_number   1
_chemical_formula_structural   ZnH20C24(N9O2)2
_chemical_formula_sum   'Zn1 H20 C24 N18 O4'
_cell_volume   691.86891615
_cell_formula_units_Z   1
loop_
 _symmetry_equiv_pos_site_id
 _symmetry_equiv_pos_as_xyz
  1  'x, y, z'
loop_
 _atom_site_type_symbol
 _atom_site_label
 _atom_site_symmetry_multiplicity
 _atom_site_fract_x
 _atom_site_fract_y
 _atom_site_fract_z
 _atom_site_occupancy
 _atom_site_hle17_bader_spin_density
 _atom_site_hle17_ddec_charge
 _atom_site_hle17_ddec_spin_density
 _atom_site_hle17_ddec_sum_bond_order
 _atom_site_hle17_magmom
 _atom_site_hse06_10hf_bader_spin_density
 _atom_site_hse06_10hf_ddec_charge
 _atom_site_hse06_10hf_ddec_spin_density
 _atom_site_hse06_10hf_ddec_sum_bond_order
 _atom_site_hse06_10hf_magmom
 _atom_site_hse06_bader_spin_density
 _atom_site_hse06_ddec_charge
 _atom_site_hse06_ddec_spin_density
 _atom_site_hse06_ddec_sum_bond_order
 _atom_site_hse06_magmom
 _atom_site_pbe_bader_spin_density
 _atom_site_pbe_cm5_charge
 _atom_site_pbe_ddec_charge
 _atom_site_pbe_ddec_spin_density
 _atom_site_pbe_ddec_sum_bond_order
 _atom_site_pbe_magmom
Zn  Zn0  1  0.99999919  0.99999848  0.00000128  1  0  1.052183  0  2.010884  0  0  0.881008  0  2.486586  0  0  0.92203  0  2.436773  0  0  0.74214  0.852956  0  2.520362  0
H  H1  1  0.87165410  0.39686668  0.46381679  1  0  0.338432  0  0.924579  0  0  0.31829  0  0.987442  0  0  0.327855  0  0.979631  0  0  0.295209  0.311506  0  0.992969  0
H  H2  1  0.12834179  0.60312910  0.53618382  1  0  0.338365  0  0.924673  0  0  0.318227  0  0.987522  0  0  0.327793  0  0.979709  0  0  0.295185  0.311441  0  0.993038  0
H  H3  1  0.08773648  0.16514053  0.49355564  1  0  0.32123  0  0.929517  0  0  0.288608  0  1.022461  0  0  0.29817  0  1.013163  0  0  0.29583  0.281764  0  1.029153  0
H  H4  1  0.91226816  0.83486322  0.50644584  1  0  0.321195  0  0.929568  0  0  0.288562  0  1.022515  0  0  0.298124  0  1.013217  0  0  0.295812  0.281717  0  1.029204  0
H  H5  1  0.30158917  0.68394992  0.87090652  1  0  0.098335  0  0.981884  0  0  0.100832  0  1.050581  0  0  0.103588  0  1.049174  0  0  0.121201  0.098777  0  1.05169  0
H  H6  1  0.69841276  0.31604434  0.12909159  1  0  0.098317  0  0.981917  0  0  0.100781  0  1.050651  0  0  0.103533  0  1.04924  0  0  0.121212  0.09873  0  1.051754  0
H  H7  1  0.40020540  0.66095244  0.69528843  1  0  0.105594  0  0.935005  0  0  0.112356  0  0.996181  0  0  0.115855  0  0.994153  0  0  0.123426  0.109794  0  0.997834  0
H  H8  1  0.59979857  0.33904656  0.30471025  1  0  0.105566  0  0.935017  0  0  0.112327  0  0.996203  0  0  0.115826  0  0.994174  0  0  0.123427  0.109765  0  0.99786  0
H  H9  1  0.84466574  0.26766411  0.80067259  1  0  0.105173  0  0.938477  0  0  0.110307  0  1.004023  0  0  0.113789  0  1.001246  0  0  0.124782  0.107735  0  1.006122  0
H  H10  1  0.15533555  0.73233801  0.19932804  1  0  0.105154  0  0.938506  0  0  0.110319  0  1.004035  0  0  0.113774  0  1.001292  0  0  0.124778  0.107758  0  1.006119  0
H  H11  1  0.58795722  0.62940387  0.54891859  1  0  0.341166  0  0.922548  0  0  0.321118  0  0.985149  0  0  0.330755  0  0.977164  0  0  0.29585  0.31427  0  0.990853  0
H  H12  1  0.41203271  0.37059649  0.45108066  1  0  0.341114  0  0.922578  0  0  0.321066  0  0.985188  0  0  0.330705  0  0.977202  0  0  0.29582  0.314222  0  0.990892  0
H  H13  1  0.37186714  0.86040149  0.51849382  1  0  0.318153  0  0.9338  0  0  0.286139  0  1.026761  0  0  0.295475  0  1.017851  0  0  0.295501  0.279487  0  1.03311  0
H  H14  1  0.62813025  0.13960991  0.48150534  1  0  0.318129  0  0.933776  0  0  0.286107  0  1.026759  0  0  0.295443  0  1.017851  0  0  0.295497  0.279457  0  1.033112  0
H  H15  1  0.63448271  0.78317408  0.21240601  1  0  0.090377  0  0.956291  0  0  0.093832  0  1.026026  0  0  0.097205  0  1.023734  0  0  0.115848  0.09137  0  1.027785  0
H  H16  1  0.36551184  0.21682168  0.78759474  1  0  0.090365  0  0.95627  0  0  0.093845  0  1.025971  0  0  0.097218  0  1.02368  0  0  0.115847  0.091381  0  1.02773  0
H  H17  1  0.15776042  0.35642510  0.14531943  1  0  0.092812  0  0.933589  0  0  0.100816  0  0.994672  0  0  0.10318  0  0.993837  0  0  0.118652  0.099062  0  0.995375  0
H  H18  1  0.84224700  0.64358487  0.85467821  1  0  0.092776  0  0.933529  0  0  0.100751  0  0.994653  0  0  0.103117  0  0.993817  0  0  0.118593  0.098994  0  0.995356  0
H  H19  1  0.04892046  0.36102475  0.32065304  1  0  0.096841  0  0.949156  0  0  0.104569  0  1.011511  0  0  0.107888  0  1.009326  0  0  0.119446  0.102177  0  1.013156  0
H  H20  1  0.95109230  0.63898532  0.67934542  1  0  0.096838  0  0.949064  0  0  0.104565  0  1.011475  0  0  0.107884  0  1.009288  0  0  0.119473  0.10218  0  1.013089  0
C  C21  1  0.77473508  0.71227813  0.03947521  1  0  0.529754  0  3.977047  0  0  0.482231  0  4.27425  0  0  0.509336  0  4.2834  0  0  0.315008  0.463807  0  4.267675  0
C  C22  1  0.22526946  0.28771627  0.96052815  1  0  0.529681  0  3.976984  0  0  0.482163  0  4.274209  0  0  0.509263  0  4.283361  0  0  0.315061  0.463744  0  4.267634  0
C  C23  1  0.46005871  0.73102803  0.03788867  1  0  0.533194  0  3.974264  0  0  0.483066  0  4.270771  0  0  0.510842  0  4.278993  0  0  0.316794  0.464156  0  4.264859  0
C  C24  1  0.53993045  0.26897405  0.96211944  1  0  0.532961  0  3.974409  0  0  0.482838  0  4.270921  0  0  0.510611  0  4.279149  0  0  0.3167  0.463929  0  4.265002  0
C  C25  1  0.22304839  0.81017866  0.81528041  1  0  0.092714  0  3.642534  0  0  0.06091  0  3.896698  0  0  0.064814  0  3.913776  0  0  0.061973  0.058439  0  3.885136  0
C  C26  1  0.77694958  0.18982180  0.18471801  1  0  0.092721  0  3.642463  0  0  0.060926  0  3.896671  0  0  0.064839  0  3.913742  0  0  0.061942  0.058458  0  3.885109  0
C  C27  1  0.27545303  0.79834895  0.71789479  1  0  0.075018  0  3.660408  0  0  0.050589  0  3.921027  0  0  0.051119  0  3.937157  0  0  0.05585  0.050023  0  3.910257  0
C  C28  1  0.72454825  0.20165003  0.28210487  1  0  0.0751  0  3.660296  0  0  0.050674  0  3.920913  0  0  0.051204  0  3.937045  0  0  0.055871  0.050112  0  3.910145  0
C  C29  1  0.02112927  0.11829161  0.67970539  1  0  0.052462  0  3.74627  0  0  0.061158  0  3.994691  0  0  0.057467  0  4.014791  0  0  0.12106  0.063115  0  3.98149  0
C  C30  1  0.97887199  0.88170739  0.32029564  1  0  0.052519  0  3.746212  0  0  0.061184  0  3.994715  0  0  0.057491  0  4.014808  0  0  0.121131  0.063144  0  3.981514  0
C  C31  1  0.96949425  0.13223741  0.77699304  1  0  0.084722  0  3.636168  0  0  0.04504  0  3.885698  0  0  0.049018  0  3.903286  0  0  0.066252  0.042321  0  3.874349  0
C  C32  1  0.03050365  0.86775998  0.22300854  1  0  0.084764  0  3.635997  0  0  0.045059  0  3.885544  0  0  0.049056  0  3.903144  0  0  0.066243  0.042338  0  3.874208  0
C  C33  1  0.89516542  0.29044852  0.60743358  1  0  0.581791  0  3.870545  0  0  0.53115  0  4.16026  0  0  0.560639  0  4.160111  0  0  0.23908  0.511405  0  4.159637  0
C  C34  1  0.10484314  0.70954276  0.39256631  1  0  0.581814  0  3.870336  0  0  0.531151  0  4.160099  0  0  0.560651  0  4.159932  0  0  0.239093  0.511404  0  4.15948  0
C  C35  1  0.44439829  0.91703924  0.33339423  1  0  0.044931  0  3.755486  0  0  0.056453  0  3.995995  0  0  0.053321  0  4.016036  0  0  0.115347  0.058187  0  3.982653  0
C  C36  1  0.55560368  0.08296130  0.66660515  1  0  0.044961  0  3.755449  0  0  0.056487  0  3.995961  0  0  0.053366  0  4.015988  0  0  0.115394  0.058215  0  3.982618  0
C  C37  1  0.50270006  0.91428430  0.23540960  1  0  0.062604  0  3.687514  0  0  0.02977  0  3.944422  0  0  0.032546  0  3.961937  0  0  0.054368  0.027771  0  3.933112  0
C  C38  1  0.49729661  0.08571925  0.76458787  1  0  0.062577  0  3.687371  0  0  0.029735  0  3.94428  0  0  0.032514  0  3.961775  0  0  0.054316  0.027735  0  3.932968  0
C  C39  1  0.24135336  0.22779387  0.19929752  1  0  0.069361  0  3.678515  0  0  0.04694  0  3.935322  0  0  0.04923  0  3.952812  0  0  0.053261  0.045522  0  3.923455  0
C  C40  1  0.75865467  0.77221144  0.80070133  1  0  0.069558  0  3.678354  0  0  0.047197  0  3.935155  0  0  0.049488  0  3.952642  0  0  0.053397  0.045777  0  3.923285  0
C  C41  1  0.18115808  0.23062939  0.29707768  1  0  0.075277  0  3.685014  0  0  0.049696  0  3.943216  0  0  0.051492  0  3.959542  0  0  0.049621  0.048336  0  3.932252  0
C  C42  1  0.81885262  0.76937598  0.70292159  1  0  0.075284  0  3.684776  0  0  0.049643  0  3.943037  0  0  0.05144  0  3.95936  0  0  0.049568  0.048287  0  3.932077  0
C  C43  1  0.56879100  0.74072708  0.40498691  1  0  0.585719  0  3.865627  0  0  0.534954  0  4.154243  0  0  0.56473  0  4.153308  0  0  0.238502  0.514975  0  4.154155  0
C  C44  1  0.43120494  0.25927180  0.59501191  1  0  0.585755  0  3.865768  0  0  0.534962  0  4.154434  0  0  0.564733  0  4.1535  0  0  0.238503  0.514987  0  4.154343  0
N  N45  1  0.07174115  0.97850145  0.84433646  1  0  -0.256965  0  3.239772  0  0  -0.184349  0  3.500004  0  0  -0.199257  0  3.518335  0  0  -0.287423  -0.17423  0  3.487465  0
N  N46  1  0.92825678  0.02149591  0.15566305  1  0  -0.257068  0  3.239601  0  0  -0.184436  0  3.49983  0  0  -0.199343  0  3.518149  0  0  -0.287441  -0.174313  0  3.487295  0
N  N47  1  0.17649786  0.95286363  0.64978073  1  0  -0.270818  0  3.079915  0  0  -0.234954  0  3.339  0  0  -0.240961  0  3.354561  0  0  -0.287609  -0.230506  0  3.328615  0
N  N48  1  0.82350342  0.04713534  0.35021893  1  0  -0.270848  0  3.0799  0  0  -0.234964  0  3.338987  0  0  -0.240973  0  3.354553  0  0  -0.287602  -0.230509  0  3.328596  0
N  N49  1  0.64110545  0.64286556  0.05889576  1  0  -0.465511  0  3.354937  0  0  -0.402459  0  3.617666  0  0  -0.42744  0  3.621507  0  0  -0.303274  -0.385096  0  3.614367  0
N  N50  1  0.35888917  0.35713961  0.94110656  1  0  -0.465346  0  3.354885  0  0  -0.402312  0  3.617614  0  0  -0.427285  0  3.621456  0  0  -0.303247  -0.384953  0  3.614315  0
N  N51  1  0.29261793  0.78786815  0.02529854  1  0  -0.607587  0  2.900941  0  0  -0.559832  0  3.205901  0  0  -0.581807  0  3.207526  0  0  -0.380411  -0.544838  0  3.204697  0
N  N52  1  0.70737925  0.21212456  0.97470371  1  0  -0.607431  0  2.90095  0  0  -0.559666  0  3.205874  0  0  -0.581643  0  3.207508  0  0  -0.380369  -0.544674  0  3.204663  0
N  N53  1  0.95681815  0.28062470  0.51518449  1  0  -0.650498  0  3.131233  0  0  -0.61076  0  3.3776  0  0  -0.63476  0  3.371467  0  0  -0.559927  -0.594175  0  3.381589  0
N  N54  1  0.04318448  0.71937745  0.48481670  1  0  -0.650387  0  3.131096  0  0  -0.610643  0  3.377552  0  0  -0.634646  0  3.371419  0  0  -0.559887  -0.594045  0  3.381522  0
N  N55  1  0.91152600  0.75412108  0.02793712  1  0  -0.606394  0  2.82805  0  0  -0.564192  0  3.125476  0  0  -0.585531  0  3.128234  0  0  -0.384435  -0.549625  0  3.123496  0
N  N56  1  0.08847454  0.24587323  0.97206459  1  0  -0.606405  0  2.828053  0  0  -0.564206  0  3.125478  0  0  -0.585545  0  3.128238  0  0  -0.384487  -0.549633  0  3.123479  0
N  N57  1  0.50334375  0.74531281  0.49734464  1  0  -0.653143  0  3.130821  0  0  -0.613234  0  3.375951  0  0  -0.636968  0  3.369636  0  0  -0.561766  -0.596846  0  3.380064  0
N  N58  1  0.49665286  0.25469082  0.50265697  1  0  -0.653042  0  3.1309  0  0  -0.613111  0  3.376018  0  0  -0.636845  0  3.369708  0  0  -0.561736  -0.596736  0  3.380142  0
N  N59  1  0.28149015  0.07485774  0.36455269  1  0  -0.28099  0  3.090677  0  0  -0.241589  0  3.346318  0  0  -0.248462  0  3.361789  0  0  -0.292523  -0.236535  0  3.335888  0
N  N60  1  0.71851652  0.92514443  0.63544601  1  0  -0.281073  0  3.090572  0  0  -0.24166  0  3.346238  0  0  -0.248536  0  3.361704  0  0  -0.292579  -0.236614  0  3.335815  0
N  N61  1  0.40153451  0.06862717  0.16790718  1  0  -0.247226  0  3.060223  0  0  -0.211764  0  3.328513  0  0  -0.221769  0  3.347716  0  0  -0.293814  -0.20484  0  3.315434  0
N  N62  1  0.59846616  0.93137646  0.83209125  1  0  -0.247292  0  3.06009  0  0  -0.211844  0  3.328374  0  0  -0.221851  0  3.347579  0  0  -0.293803  -0.204926  0  3.315293  0
O  O63  1  0.73711190  0.43187681  0.63715493  1  0  -0.590061  0  1.93832  0  0  -0.542014  0  2.159794  0  0  -0.56531  0  2.154647  0  0  -0.304294  -0.525642  0  2.162651  0
O  O64  1  0.26288528  0.56811589  0.36284732  1  0  -0.590066  0  1.938388  0  0  -0.542018  0  2.159891  0  0  -0.565315  0  2.154733  0  0  -0.304327  -0.525649  0  2.162754  0
O  O65  1  0.72797348  0.60043987  0.37525302  1  0  -0.592581  0  1.936192  0  0  -0.544181  0  2.158005  0  0  -0.567064  0  2.151968  0  0  -0.308445  -0.528158  0  2.161554  0
O  O66  1  0.27201973  0.39955588  0.62474787  1  0  -0.592626  0  1.936197  0  0  -0.54421  0  2.158004  0  0  -0.567107  0  2.152008  0  0  -0.308462  -0.528189  0  2.161546  0
