# generated using pymatgen
data_NiH4C2(NO2)2
_symmetry_space_group_name_H-M   'P 1'
_cell_length_a   10.54237215
_cell_length_b   11.65295066
_cell_length_c   11.65301683
_cell_angle_alpha   78.18348448
_cell_angle_beta   63.10152374
_cell_angle_gamma   63.10157551
_symmetry_Int_Tables_number   1
_chemical_formula_structural   NiH4C2(NO2)2
_chemical_formula_sum   'Ni8 H32 C16 N16 O32'
_cell_volume   1138.56300478
_cell_formula_units_Z   8
loop_
 _symmetry_equiv_pos_site_id
 _symmetry_equiv_pos_as_xyz
  1  'x, y, z'
loop_
 _atom_site_type_symbol
 _atom_site_label
 _atom_site_symmetry_multiplicity
 _atom_site_fract_x
 _atom_site_fract_y
 _atom_site_fract_z
 _atom_site_occupancy
 _atom_site_pbe_bader_charge
 _atom_site_pbe_bader_spin_density
 _atom_site_pbe_cm5_charge
 _atom_site_pbe_ddec_charge
 _atom_site_pbe_ddec_spin_density
 _atom_site_pbe_ddec_sum_bond_order
 _atom_site_pbe_magmom
Ni  Ni0  1  0.46791272  0.75000551  0.06429069  1  1.137223  1.558269  0.62814  0.740717  1.755693  2.510649  1.545
Ni  Ni1  1  0.28213386  0.74996614  0.43577932  1  1.139934  1.55831  0.627785  0.739574  1.756022  2.509587  1.546
Ni  Ni2  1  0.21786712  0.06421821  0.75003296  1  1.139949  1.558309  0.627763  0.739528  1.756029  2.509797  1.546
Ni  Ni3  1  0.03208081  0.43571544  0.75000086  1  1.137389  1.558264  0.628137  0.740706  1.755707  2.510681  1.545
Ni  Ni4  1  0.53208293  0.24999642  0.93571420  1  1.137214  1.558274  0.628142  0.740691  1.75571  2.510617  1.545
Ni  Ni5  1  0.71786482  0.25003193  0.56421603  1  1.140069  1.558311  0.627796  0.739568  1.756031  2.509747  1.546
Ni  Ni6  1  0.78213820  0.93577698  0.24996465  1  1.139811  1.558298  0.627796  0.739602  1.75601  2.509532  1.546
Ni  Ni7  1  0.96791327  0.56428841  0.25000358  1  1.137258  1.55827  0.628137  0.740711  1.755698  2.510625  1.545
H  H8  1  0.49391406  0.52040681  0.15041328  1  0.451861  0.002385  0.30789  0.281325  0.001841  0.928289  0.002
H  H9  1  0.31519621  0.61699729  0.23371832  1  0.468726  0.001559  0.306281  0.281522  0.001124  0.960729  0.001
H  H10  1  0.16467618  0.97960297  0.34962316  1  0.425192  0.002624  0.307594  0.28135  0.001838  0.929414  0.002
H  H11  1  0.16588585  0.88302118  0.26632254  1  0.465213  0.001527  0.30536  0.279775  0.001125  0.962528  0.001
H  H12  1  0.01427234  0.15035711  0.97963474  1  0.442531  0.002526  0.308039  0.281981  0.001839  0.927709  0.002
H  H13  1  0.93215569  0.23367272  0.88304042  1  0.462725  0.001566  0.306135  0.280501  0.001126  0.96128  0.001
H  H14  1  0.14428288  0.34960793  0.52039258  1  0.449261  0.002454  0.307588  0.281321  0.001838  0.929611  0.002
H  H15  1  0.04887711  0.26628986  0.61695909  1  0.4637  0.00154  0.305708  0.279683  0.001123  0.961798  0.001
H  H16  1  0.00608254  0.34958733  0.97959659  1  0.451804  0.002385  0.307897  0.281311  0.001841  0.928337  0.002
H  H17  1  0.18480062  0.26628554  0.88300576  1  0.468741  0.001559  0.306304  0.281614  0.001123  0.960557  0.001
H  H18  1  0.33532028  0.15037652  0.52039843  1  0.425184  0.002624  0.307611  0.281381  0.001838  0.929384  0.002
H  H19  1  0.33411567  0.23367540  0.61697890  1  0.465207  0.001527  0.30533  0.279726  0.001125  0.962539  0.001
H  H20  1  0.48572929  0.52036738  0.34964392  1  0.442605  0.002526  0.30805  0.282003  0.001839  0.927679  0.002
H  H21  1  0.56784400  0.61696184  0.26632748  1  0.462753  0.001566  0.306154  0.280549  0.001126  0.961278  0.001
H  H22  1  0.35571783  0.97961234  0.15039485  1  0.449231  0.002454  0.307575  0.281312  0.001838  0.929573  0.002
H  H23  1  0.45112230  0.88304190  0.23371471  1  0.463669  0.001541  0.305726  0.279712  0.001123  0.961714  0.001
H  H24  1  0.50608185  0.47959608  0.84958771  1  0.451808  0.002385  0.307895  0.281321  0.001841  0.928327  0.002
H  H25  1  0.68480118  0.38300464  0.76628486  1  0.468746  0.001559  0.306279  0.281585  0.001123  0.960601  0.001
H  H26  1  0.83532252  0.02039607  0.65037698  1  0.425213  0.002624  0.307594  0.281365  0.001837  0.929364  0.002
H  H27  1  0.83411597  0.11697979  0.73367463  1  0.465213  0.001527  0.305343  0.279744  0.001125  0.962528  0.001
H  H28  1  0.98573046  0.84964289  0.02036721  1  0.442551  0.002526  0.308038  0.281955  0.001839  0.927715  0.002
H  H29  1  0.06784746  0.76632536  0.11696109  1  0.462729  0.001565  0.306136  0.280497  0.001126  0.961303  0.001
H  H30  1  0.85571772  0.65039399  0.47960848  1  0.44925  0.002454  0.307612  0.28134  0.001838  0.929591  0.002
H  H31  1  0.95112236  0.73371111  0.38303934  1  0.463674  0.00154  0.305737  0.279719  0.001123  0.961755  0.001
H  H32  1  0.99391557  0.65041363  0.02040529  1  0.451844  0.002385  0.307899  0.281321  0.001841  0.928295  0.002
H  H33  1  0.81519839  0.73371735  0.11699745  1  0.468743  0.001559  0.306295  0.281539  0.001124  0.960696  0.001
H  H34  1  0.66467867  0.84962252  0.47960041  1  0.425225  0.002624  0.30762  0.281386  0.001837  0.929396  0.002
H  H35  1  0.66588563  0.76632364  0.38301868  1  0.465198  0.001527  0.305352  0.279748  0.001125  0.962546  0.001
H  H36  1  0.51427169  0.47963551  0.65035629  1  0.442511  0.002526  0.308068  0.281987  0.001838  0.927649  0.002
H  H37  1  0.43215330  0.38304297  0.73367225  1  0.46262  0.001566  0.306146  0.280555  0.001125  0.961191  0.001
H  H38  1  0.64428377  0.02039055  0.84960580  1  0.449263  0.002454  0.307584  0.281335  0.001838  0.929606  0.002
H  H39  1  0.54887853  0.11695810  0.76629024  1  0.463704  0.00154  0.305734  0.2797  0.001123  0.961786  0.001
C  C40  1  0.71402727  0.55581443  0.88977554  1  1.567691  -0.002202  0.205639  0.462802  -0.003251  4.19467  -0.002
C  C41  1  0.15958430  0.94409492  0.61037132  1  1.558202  -0.002385  0.20617  0.463232  -0.003257  4.196943  -0.002
C  C42  1  0.26993063  0.88970106  0.94423552  1  1.558541  -0.002305  0.206268  0.464351  -0.003246  4.195452  -0.002
C  C43  1  0.10374511  0.61023986  0.55576392  1  1.578393  -0.002251  0.205098  0.461478  -0.003225  4.194286  -0.002
C  C44  1  0.78596803  0.61023818  0.94419497  1  1.593226  -0.002193  0.205469  0.462377  -0.003249  4.194782  -0.002
C  C45  1  0.34041674  0.88962786  0.55589652  1  1.60188  -0.002371  0.206343  0.463533  -0.003256  4.196656  -0.002
C  C46  1  0.23007273  0.55576481  0.61029743  1  1.558245  -0.002301  0.206283  0.464404  -0.003244  4.195413  -0.002
C  C47  1  0.39624980  0.94423961  0.88975348  1  1.57809  -0.002255  0.205104  0.46129  -0.00323  4.194033  -0.002
C  C48  1  0.28597014  0.44418942  0.11022982  1  1.567613  -0.002202  0.205498  0.462479  -0.00325  4.194637  -0.002
C  C49  1  0.84041512  0.05589354  0.38962700  1  1.601865  -0.002374  0.206302  0.463384  -0.003258  4.196677  -0.002
C  C50  1  0.73007636  0.11029799  0.05576172  1  1.558662  -0.002304  0.206197  0.464276  -0.003246  4.195346  -0.002
C  C51  1  0.89624935  0.38975629  0.44423655  1  1.579067  -0.002252  0.205134  0.461458  -0.003228  4.193993  -0.002
C  C52  1  0.21402679  0.38976567  0.05581295  1  1.593777  -0.002194  0.205486  0.462554  -0.003251  4.194842  -0.002
C  C53  1  0.65958986  0.11037022  0.44409419  1  1.558246  -0.002386  0.206277  0.463399  -0.00326  4.196842  -0.002
C  C54  1  0.76992675  0.44423712  0.38969841  1  1.558621  -0.002304  0.206218  0.464293  -0.003245  4.19545  -0.002
C  C55  1  0.60376042  0.05575174  0.11024332  1  1.57816  -0.002252  0.205212  0.461415  -0.003227  4.193975  -0.002
N  N56  1  0.42837083  0.60787305  0.19697323  1  -0.78804  0.078379  -0.535441  -0.420341  0.044048  3.419033  0.064
N  N57  1  0.23317639  0.89212892  0.30308339  1  -0.760446  0.078074  -0.53412  -0.418214  0.044  3.418042  0.064
N  N58  1  0.03620824  0.19691003  0.89215644  1  -0.776275  0.078141  -0.533772  -0.417211  0.044045  3.416015  0.064
N  N59  1  0.12528504  0.30304143  0.60786509  1  -0.780334  0.078256  -0.533119  -0.416125  0.044032  3.416291  0.064
N  N60  1  0.07162715  0.30303127  0.89212857  1  -0.788092  0.078383  -0.535414  -0.420341  0.04405  3.418839  0.064
N  N61  1  0.26682207  0.19691442  0.60787475  1  -0.760452  0.078064  -0.534146  -0.418218  0.043996  3.417939  0.064
N  N62  1  0.46379483  0.60784359  0.30308858  1  -0.776478  0.078147  -0.533751  -0.417223  0.044048  3.416026  0.064
N  N63  1  0.37471370  0.89213817  0.19696326  1  -0.780242  0.078253  -0.533151  -0.416133  0.04403  3.416246  0.064
N  N64  1  0.57162494  0.39212792  0.80302991  1  -0.788027  0.078375  -0.535408  -0.420354  0.044046  3.418919  0.064
N  N65  1  0.76681992  0.10787590  0.69691415  1  -0.760455  0.078065  -0.53413  -0.418221  0.043996  3.417922  0.064
N  N66  1  0.96379846  0.80308612  0.10784251  1  -0.776225  0.078145  -0.533733  -0.417131  0.044045  3.416079  0.064
N  N67  1  0.87471383  0.69696050  0.39213768  1  -0.780275  0.078254  -0.533178  -0.416162  0.04403  3.416253  0.064
N  N68  1  0.92837335  0.69697258  0.10787163  1  -0.788054  0.07838  -0.535455  -0.420356  0.044049  3.419063  0.064
N  N69  1  0.73317797  0.80308270  0.39212713  1  -0.760455  0.078071  -0.53419  -0.418268  0.043999  3.417988  0.064
N  N70  1  0.53620502  0.39215834  0.69690900  1  -0.776213  0.078138  -0.533786  -0.417241  0.044044  3.415904  0.064
N  N71  1  0.62528479  0.10786280  0.80304036  1  -0.780307  0.078257  -0.53315  -0.416137  0.044032  3.416297  0.064
O  O72  1  0.56815971  0.61111911  0.92266308  1  -1.144917  0.070349  -0.297544  -0.488461  0.039244  2.315411  0.063
O  O73  1  0.80655534  0.45672156  0.81798604  1  -1.135742  0.070402  -0.301533  -0.488339  0.039171  2.343127  0.064
O  O74  1  0.10190894  0.88885285  0.57743132  1  -1.134883  0.070444  -0.29831  -0.489847  0.039131  2.316635  0.063
O  O75  1  0.08123737  0.04312427  0.68221630  1  -1.146916  0.070586  -0.301359  -0.487106  0.039161  2.341822  0.064
O  O76  1  0.17939779  0.92253403  0.88890960  1  -1.125586  0.070432  -0.297897  -0.489614  0.039176  2.316678  0.063
O  O77  1  0.26339422  0.81792323  0.04332555  1  -1.135537  0.070508  -0.301875  -0.488255  0.039181  2.343917  0.064
O  O78  1  0.99076284  0.57736789  0.61104417  1  -1.140592  0.070357  -0.297014  -0.488132  0.039066  2.314917  0.063
O  O79  1  0.12457890  0.68202374  0.45666726  1  -1.134537  0.070432  -0.301761  -0.488  0.039143  2.342658  0.064
O  O80  1  0.93183467  0.57735173  0.88888848  1  -1.144897  0.070351  -0.297477  -0.488283  0.039243  2.315347  0.063
O  O81  1  0.69344082  0.68202506  0.04329021  1  -1.135577  0.070411  -0.301378  -0.488093  0.039174  2.343026  0.064
O  O82  1  0.39809134  0.92256719  0.61114530  1  -1.134407  0.070458  -0.298343  -0.489994  0.039138  2.31646  0.063
O  O83  1  0.41876255  0.81779326  0.45686471  1  -1.147149  0.070578  -0.301468  -0.487242  0.039156  2.341921  0.064
O  O84  1  0.32060615  0.61108137  0.57746395  1  -1.125616  0.070417  -0.297899  -0.489638  0.039167  2.316888  0.063
O  O85  1  0.23660038  0.45667380  0.68208265  1  -1.135452  0.070528  -0.30191  -0.488334  0.039188  2.343725  0.064
O  O86  1  0.50924042  0.88895955  0.92263342  1  -1.140488  0.070374  -0.297023  -0.488096  0.039075  2.314562  0.063
O  O87  1  0.37542619  0.04333073  0.81796460  1  -1.13448  0.070424  -0.301757  -0.487846  0.039138  2.342725  0.064
O  O88  1  0.43183292  0.38888763  0.07734136  1  -1.144843  0.070346  -0.297491  -0.488328  0.03924  2.31539  0.063
O  O89  1  0.19344078  0.54328710  0.18201717  1  -1.135816  0.070414  -0.301389  -0.488105  0.039176  2.342974  0.064
O  O90  1  0.89809414  0.11114042  0.42256841  1  -1.134377  0.070463  -0.298338  -0.48994  0.039142  2.31632  0.063
O  O91  1  0.91876721  0.95686130  0.31779207  1  -1.14728  0.070581  -0.301446  -0.48718  0.039158  2.341936  0.064
O  O92  1  0.82061635  0.07746405  0.11108211  1  -1.125787  0.070433  -0.297887  -0.489638  0.039176  2.31663  0.063
O  O93  1  0.73660565  0.18207966  0.95667681  1  -1.135564  0.070508  -0.301838  -0.4882  0.039181  2.343826  0.064
O  O94  1  0.00923676  0.42263308  0.38895730  1  -1.141244  0.070365  -0.297074  -0.488176  0.039072  2.314601  0.063
O  O95  1  0.87542095  0.31796953  0.54332720  1  -1.134686  0.070426  -0.301711  -0.487901  0.039141  2.342732  0.064
O  O96  1  0.06815904  0.42265212  0.11112160  1  -1.144968  0.070352  -0.297474  -0.488319  0.039244  2.315414  0.063
O  O97  1  0.30655230  0.31797206  0.95672587  1  -1.135934  0.070408  -0.301435  -0.488217  0.039173  2.34313  0.064
O  O98  1  0.60190918  0.07742993  0.38884661  1  -1.13491  0.070464  -0.298338  -0.489938  0.039141  2.31635  0.063
O  O99  1  0.58123909  0.18221348  0.54311818  1  -1.146996  0.070575  -0.301433  -0.487168  0.039155  2.342014  0.064
O  O100  1  0.67939115  0.38891478  0.42253267  1  -1.1257  0.070431  -0.297862  -0.489582  0.039174  2.316784  0.063
O  O101  1  0.76338762  0.54332908  0.31792298  1  -1.135634  0.070509  -0.301881  -0.488277  0.039181  2.343863  0.064
O  O102  1  0.49076939  0.11103756  0.07736515  1  -1.140621  0.070378  -0.297104  -0.488173  0.039077  2.314437  0.063
O  O103  1  0.62458530  0.95666350  0.18202530  1  -1.134314  0.070415  -0.301775  -0.487883  0.039136  2.342807  0.064
