# generated using pymatgen
data_CdH10C8(BrN2)2
_symmetry_space_group_name_H-M   'P 1'
_cell_length_a   7.08966830
_cell_length_b   7.07895943
_cell_length_c   14.12050608
_cell_angle_alpha   91.72751873
_cell_angle_beta   103.53943738
_cell_angle_gamma   118.16827903
_symmetry_Int_Tables_number   1
_chemical_formula_structural   CdH10C8(BrN2)2
_chemical_formula_sum   'Cd2 H20 C16 Br4 N8'
_cell_volume   599.14268591
_cell_formula_units_Z   2
loop_
 _symmetry_equiv_pos_site_id
 _symmetry_equiv_pos_as_xyz
  1  'x, y, z'
loop_
 _atom_site_type_symbol
 _atom_site_label
 _atom_site_symmetry_multiplicity
 _atom_site_fract_x
 _atom_site_fract_y
 _atom_site_fract_z
 _atom_site_occupancy
 _atom_site_hle17_bader_spin_density
 _atom_site_hle17_ddec_charge
 _atom_site_hle17_ddec_spin_density
 _atom_site_hle17_ddec_sum_bond_order
 _atom_site_hle17_magmom
 _atom_site_hse06_10hf_bader_spin_density
 _atom_site_hse06_10hf_ddec_charge
 _atom_site_hse06_10hf_ddec_spin_density
 _atom_site_hse06_10hf_ddec_sum_bond_order
 _atom_site_hse06_10hf_magmom
 _atom_site_hse06_bader_spin_density
 _atom_site_hse06_ddec_charge
 _atom_site_hse06_ddec_spin_density
 _atom_site_hse06_ddec_sum_bond_order
 _atom_site_hse06_magmom
 _atom_site_pbe_bader_spin_density
 _atom_site_pbe_cm5_charge
 _atom_site_pbe_ddec_charge
 _atom_site_pbe_ddec_spin_density
 _atom_site_pbe_ddec_sum_bond_order
 _atom_site_pbe_magmom
Cd  Cd0  1  0.37768963  0.12757984  0.25006586  1  0  0.883511  0  2.012873  0  0  0.699858  0  2.500488  0  0  0.747676  0  2.45726  0  0  0.590274  0.666873  0  2.529551  0
Cd  Cd1  1  0.62230264  0.87241922  0.74994646  1  0  0.883773  0  2.012636  0  0  0.700132  0  2.500278  0  0  0.747949  0  2.457044  0  0  0.590351  0.667138  0  2.529344  0
H  H2  1  0.85883807  0.48448316  0.18825673  1  0  0.09237  0  0.963639  0  0  0.096859  0  1.03939  0  0  0.0997  0  1.035486  0  0  0.12206  0.094697  0  1.042219  0
H  H3  1  0.79641128  0.67060410  0.31192969  1  0  0.09223  0  0.964233  0  0  0.096744  0  1.039951  0  0  0.099652  0  1.035952  0  0  0.121642  0.09455  0  1.04283  0
H  H4  1  0.14115124  0.51550804  0.81174797  1  0  0.09256  0  0.9637  0  0  0.09703  0  1.039394  0  0  0.09991  0  1.03545  0  0  0.122087  0.094851  0  1.042269  0
H  H5  1  0.20360480  0.32938422  0.68806425  1  0  0.092234  0  0.964117  0  0  0.096806  0  1.039773  0  0  0.099716  0  1.035777  0  0  0.121691  0.094606  0  1.042653  0
H  H6  1  0.21196773  0.05839558  0.99970975  1  0  0.093926  0  0.972776  0  0  0.103629  0  1.037975  0  0  0.105957  0  1.036719  0  0  0.10536  0.101928  0  1.038993  0
H  H7  1  0.55815997  0.21134492  0.50052644  1  0  0.093738  0  0.973773  0  0  0.103096  0  1.039247  0  0  0.105443  0  1.037946  0  0  0.105119  0.101406  0  1.040268  0
H  H8  1  0.78801006  0.94158525  0.00031117  1  0  0.093839  0  0.972409  0  0  0.103584  0  1.037628  0  0  0.105892  0  1.036396  0  0  0.105364  0.101896  0  1.038645  0
H  H9  1  0.44185804  0.78869648  0.49948624  1  0  0.093696  0  0.97383  0  0  0.103046  0  1.039352  0  0  0.10539  0  1.038056  0  0  0.105106  0.101362  0  1.040364  0
H  H10  1  0.49704383  0.26764745  0.88595418  1  0  0.117603  0  0.984751  0  0  0.123216  0  1.055239  0  0  0.12635  0  1.053138  0  0  0.104268  0.120919  0  1.056863  0
H  H11  1  0.88139319  0.61025354  0.61423011  1  0  0.118128  0  0.984906  0  0  0.123732  0  1.055183  0  0  0.12694  0  1.052949  0  0  0.10439  0.121377  0  1.056916  0
H  H12  1  0.50289269  0.73230800  0.11404825  1  0  0.117381  0  0.985003  0  0  0.123093  0  1.055425  0  0  0.126242  0  1.053284  0  0  0.104197  0.120798  0  1.057043  0
H  H13  1  0.11863613  0.38978012  0.38577148  1  0  0.118054  0  0.984901  0  0  0.123644  0  1.055167  0  0  0.126854  0  1.052936  0  0  0.104333  0.121293  0  1.056897  0
H  H14  1  0.03583436  0.70409023  0.06074986  1  0  0.077481  0  0.936543  0  0  0.089701  0  1.007153  0  0  0.090599  0  1.006425  0  0  0.106768  0.08896  0  1.007793  0
H  H15  1  0.14312762  0.97489074  0.43929515  1  0  0.076163  0  0.935873  0  0  0.088209  0  1.007418  0  0  0.089052  0  1.006702  0  0  0.106181  0.08748  0  1.008095  0
H  H16  1  0.96411685  0.29589016  0.93923852  1  0  0.077544  0  0.936366  0  0  0.08979  0  1.006956  0  0  0.090702  0  1.006191  0  0  0.106795  0.089022  0  1.007643  0
H  H17  1  0.85688191  0.02510626  0.56068418  1  0  0.076075  0  0.935732  0  0  0.088108  0  1.007275  0  0  0.08897  0  1.00657  0  0  0.10616  0.087364  0  1.007942  0
H  H18  1  0.88848269  0.60828172  0.93264711  1  0  0.089263  0  0.931222  0  0  0.099024  0  1.002659  0  0  0.100581  0  1.001534  0  0  0.106403  0.097813  0  1.003591  0
H  H19  1  0.17511716  0.95553554  0.56744207  1  0  0.088625  0  0.930861  0  0  0.099007  0  1.002142  0  0  0.100489  0  1.001096  0  0  0.106408  0.097838  0  1.003034  0
H  H20  1  0.11143925  0.39166940  0.06734022  1  0  0.089232  0  0.931283  0  0  0.098954  0  1.002743  0  0  0.1005  0  1.001618  0  0  0.106413  0.09776  0  1.003672  0
H  H21  1  0.82491326  0.04447910  0.43254490  1  0  0.088629  0  0.930926  0  0  0.098959  0  1.002212  0  0  0.10046  0  1.001174  0  0  0.106407  0.097778  0  1.003091  0
C  C22  1  0.71699465  0.39619648  0.12355998  1  0  0.167219  0  3.65385  0  0  0.106495  0  3.916247  0  0  0.120622  0  3.929817  0  0  0.137185  0.097446  0  3.906842  0
C  C23  1  0.77267331  0.59313568  0.37662830  1  0  0.167904  0  3.653369  0  0  0.107277  0  3.915262  0  0  0.121376  0  3.928787  0  0  0.13749  0.098235  0  3.905861  0
C  C24  1  0.28296936  0.60378166  0.87644526  1  0  0.167011  0  3.653604  0  0  0.10635  0  3.915986  0  0  0.120445  0  3.929532  0  0  0.13712  0.097297  0  3.906568  0
C  C25  1  0.22733638  0.40687708  0.62336568  1  0  0.16817  0  3.653751  0  0  0.107469  0  3.915694  0  0  0.121569  0  3.929211  0  0  0.137529  0.098431  0  3.906293  0
C  C26  1  0.38751977  0.17836922  0.02301962  1  0  -0.004252  0  3.763732  0  0  -0.040294  0  4.033196  0  0  -0.038551  0  4.054013  0  0  -0.014173  -0.041502  0  4.019299  0
C  C27  1  0.65494878  0.36378219  0.47720463  1  0  -0.002451  0  3.764189  0  0  -0.038122  0  4.033397  0  0  -0.036385  0  4.054233  0  0  -0.013566  -0.039339  0  4.019476  0
C  C28  1  0.61242815  0.82160225  0.97699013  1  0  -0.004375  0  3.763873  0  0  -0.040496  0  4.033416  0  0  -0.038725  0  4.054217  0  0  -0.014379  -0.041732  0  4.019547  0
C  C29  1  0.34508218  0.63623989  0.52280175  1  0  -0.002422  0  3.764304  0  0  -0.038105  0  4.033508  0  0  -0.036375  0  4.054358  0  0  -0.013544  -0.039322  0  4.019584  0
C  C30  1  0.52507068  0.28094790  0.96533020  1  0  -0.044277  0  3.652181  0  0  -0.085994  0  3.910866  0  0  -0.08419  0  3.929831  0  0  -0.000764  -0.087163  0  3.898343  0
C  C31  1  0.81530611  0.55906090  0.53486287  1  0  -0.046677  0  3.654157  0  0  -0.088418  0  3.912672  0  0  -0.086645  0  3.931722  0  0  -0.001798  -0.089562  0  3.90009  0
C  C32  1  0.47489866  0.71903170  0.03467988  1  0  -0.043716  0  3.651898  0  0  -0.085536  0  3.910527  0  0  -0.083735  0  3.929492  0  0  -0.000521  -0.086699  0  3.898  0
C  C33  1  0.18474345  0.44097271  0.46514010  1  0  -0.046563  0  3.654244  0  0  -0.088254  0  3.912772  0  0  -0.086481  0  3.931816  0  0  -0.001777  -0.089401  0  3.900191  0
C  C34  1  0.93436598  0.55900095  0.00359143  1  0  -0.019945  0  3.624945  0  0  -0.081581  0  3.87594  0  0  -0.078117  0  3.887131  0  0  -0.049787  -0.083765  0  3.868372  0
C  C35  1  0.05523952  0.93055527  0.49645660  1  0  -0.017032  0  3.621426  0  0  -0.07977  0  3.874905  0  0  -0.076159  0  3.885995  0  0  -0.048821  -0.082071  0  3.867412  0
C  C36  1  0.06558373  0.44096465  0.99640062  1  0  -0.020065  0  3.624567  0  0  -0.081667  0  3.875565  0  0  -0.078151  0  3.886678  0  0  -0.049946  -0.083908  0  3.868085  0
C  C37  1  0.94478194  0.06945621  0.50352794  1  0  -0.016926  0  3.621369  0  0  -0.079497  0  3.874775  0  0  -0.076  0  3.885951  0  0  -0.04883  -0.081702  0  3.867201  0
Br  Br38  1  0.97976941  0.07363143  0.22248997  1  0  -0.569203  0  0.908872  0  0  -0.502639  0  1.20646  0  0  -0.521197  0  1.183744  0  0  -0.29863  -0.489452  0  1.221981  0
Br  Br39  1  0.35274377  0.75701399  0.27748934  1  0  -0.569393  0  0.909398  0  0  -0.502923  0  1.207174  0  0  -0.521392  0  1.184334  0  0  -0.298831  -0.489802  0  1.222766  0
Br  Br40  1  0.02024978  0.92639088  0.77751024  1  0  -0.569319  0  0.908741  0  0  -0.502759  0  1.206303  0  0  -0.521308  0  1.183585  0  0  -0.298692  -0.489571  0  1.221812  0
Br  Br41  1  0.64745611  0.24304094  0.72250862  1  0  -0.569465  0  0.909493  0  0  -0.50299  0  1.207288  0  0  -0.521459  0  1.184457  0  0  -0.298799  -0.489821  0  1.222798  0
N  N42  1  0.50875559  0.25164614  0.12140683  1  0  -0.380118  0  3.297427  0  0  -0.295925  0  3.581365  0  0  -0.317657  0  3.599088  0  0  -0.370554  -0.281145  0  3.568951  0
N  N43  1  0.63010628  0.38689453  0.37880470  1  0  -0.382151  0  3.297479  0  0  -0.297885  0  3.581295  0  0  -0.319618  0  3.599012  0  0  -0.371316  -0.28309  0  3.568855  0
N  N44  1  0.49124295  0.74835935  0.87860775  1  0  -0.380275  0  3.297195  0  0  -0.296102  0  3.581183  0  0  -0.317836  0  3.598902  0  0  -0.370578  -0.281318  0  3.568777  0
N  N45  1  0.36989967  0.61310972  0.62119928  1  0  -0.382402  0  3.297704  0  0  -0.298173  0  3.58159  0  0  -0.319906  0  3.599293  0  0  -0.371409  -0.283383  0  3.569163  0
N  N46  1  0.73214704  0.41868449  0.03018286  1  0  -0.061478  0  3.582651  0  0  0.037921  0  3.790875  0  0  0.022309  0  3.818963  0  0  -0.242784  0.048246  0  3.771812  0
N  N47  1  0.88843933  0.70154932  0.46998354  1  0  -0.061155  0  3.583562  0  0  0.038794  0  3.791563  0  0  0.023169  0  3.819635  0  0  -0.24248  0.049122  0  3.772507  0
N  N48  1  0.26782106  0.58129387  0.96981643  1  0  -0.061375  0  3.582371  0  0  0.038025  0  3.790581  0  0  0.022396  0  3.818671  0  0  -0.242719  0.048371  0  3.771519  0
N  N49  1  0.11158357  0.29847460  0.53001710  1  0  -0.061323  0  3.583959  0  0  0.038579  0  3.791917  0  0  0.022978  0  3.820015  0  0  -0.242407  0.048889  0  3.77284  0
