# generated using pymatgen
data_CdH18C32(NO)4
_symmetry_space_group_name_H-M   'P 1'
_cell_length_a   10.84129007
_cell_length_b   11.81713193
_cell_length_c   12.13752844
_cell_angle_alpha   64.06929952
_cell_angle_beta   81.66902724
_cell_angle_gamma   66.74767672
_symmetry_Int_Tables_number   1
_chemical_formula_structural   CdH18C32(NO)4
_chemical_formula_sum   'Cd2 H36 C64 N8 O8'
_cell_volume   1284.11428046
_cell_formula_units_Z   2
loop_
 _symmetry_equiv_pos_site_id
 _symmetry_equiv_pos_as_xyz
  1  'x, y, z'
loop_
 _atom_site_type_symbol
 _atom_site_label
 _atom_site_symmetry_multiplicity
 _atom_site_fract_x
 _atom_site_fract_y
 _atom_site_fract_z
 _atom_site_occupancy
 _atom_site_hle17_bader_spin_density
 _atom_site_hle17_ddec_charge
 _atom_site_hle17_ddec_spin_density
 _atom_site_hle17_ddec_sum_bond_order
 _atom_site_hle17_magmom
 _atom_site_hse06_10hf_bader_spin_density
 _atom_site_hse06_10hf_ddec_charge
 _atom_site_hse06_10hf_ddec_spin_density
 _atom_site_hse06_10hf_ddec_sum_bond_order
 _atom_site_hse06_10hf_magmom
 _atom_site_hse06_bader_spin_density
 _atom_site_hse06_ddec_charge
 _atom_site_hse06_ddec_spin_density
 _atom_site_hse06_ddec_sum_bond_order
 _atom_site_hse06_magmom
 _atom_site_pbe_bader_spin_density
 _atom_site_pbe_cm5_charge
 _atom_site_pbe_ddec_charge
 _atom_site_pbe_ddec_spin_density
 _atom_site_pbe_ddec_sum_bond_order
 _atom_site_pbe_magmom
Cd  Cd0  1  0.07808686  0.11427022  0.87492139  1  0  1.111098  0  1.682001  0  0  0.918564  0  2.124264  0  0  0.97872  0  2.072215  0  0  0.774293  0.87659  0  2.158958  0
Cd  Cd1  1  0.92191538  0.88572831  0.12507820  1  0  1.111074  0  1.681987  0  0  0.918543  0  2.124243  0  0  0.978699  0  2.072199  0  0  0.774295  0.876571  0  2.158941  0
H  H2  1  0.70980010  0.32808999  0.57602316  1  0  0.124401  0  0.958088  0  0  0.125747  0  1.033568  0  0  0.130851  0  1.029151  0  0  0.108007  0.122027  0  1.036858  0
H  H3  1  0.29019875  0.67191258  0.42397762  1  0  0.124392  0  0.958054  0  0  0.125755  0  1.033508  0  0  0.13086  0  1.029091  0  0  0.108005  0.122031  0  1.036794  0
H  H4  1  0.74371018  0.44525772  0.90489298  1  0  0.104252  0  0.967454  0  0  0.113038  0  1.030463  0  0  0.11631  0  1.028795  0  0  0.101043  0.110652  0  1.031704  0
H  H5  1  0.25628759  0.55474280  0.09510965  1  0  0.104249  0  0.967493  0  0  0.113045  0  1.03049  0  0  0.116317  0  1.028823  0  0  0.101051  0.110659  0  1.031732  0
H  H6  1  0.58204631  0.60739339  0.98303935  1  0  0.083393  0  0.966132  0  0  0.094898  0  1.026168  0  0  0.096659  0  1.027635  0  0  0.096066  0.093633  0  1.025171  0
H  H7  1  0.41794752  0.39261013  0.01696169  1  0  0.083422  0  0.966214  0  0  0.094918  0  1.026253  0  0  0.09668  0  1.027721  0  0  0.096078  0.093653  0  1.025259  0
H  H8  1  0.35828879  0.76430320  0.87612951  1  0  0.0953  0  0.956011  0  0  0.104438  0  1.018008  0  0  0.107164  0  1.017299  0  0  0.098509  0.102456  0  1.018556  0
H  H9  1  0.64170618  0.23569726  0.12386857  1  0  0.095315  0  0.955985  0  0  0.104471  0  1.017975  0  0  0.107201  0  1.017253  0  0  0.098501  0.102486  0  1.018527  0
H  H10  1  0.29829693  0.75640424  0.68971014  1  0  0.103146  0  0.968161  0  0  0.111768  0  1.032248  0  0  0.114132  0  1.032309  0  0  0.101787  0.110067  0  1.032295  0
H  H11  1  0.70169975  0.24359421  0.31028858  1  0  0.103188  0  0.968161  0  0  0.11179  0  1.032255  0  0  0.114154  0  1.032317  0  0  0.101797  0.110088  0  1.032303  0
H  H12  1  0.04366706  0.93901824  0.33461441  1  0  0.128116  0  0.980648  0  0  0.128809  0  1.057882  0  0  0.13395  0  1.053897  0  0  0.104616  0.12517  0  1.060694  0
H  H13  1  0.95633179  0.06098432  0.66538309  1  0  0.128112  0  0.980624  0  0  0.128811  0  1.057842  0  0  0.133953  0  1.053855  0  0  0.104605  0.125178  0  1.060648  0
H  H14  1  0.92396535  0.39885167  0.01972134  1  0  0.102049  0  0.960624  0  0  0.113084  0  1.021051  0  0  0.11607  0  1.01989  0  0  0.105552  0.110893  0  1.021948  0
H  H15  1  0.07603573  0.60114990  0.98027628  1  0  0.102041  0  0.960604  0  0  0.113064  0  1.02105  0  0  0.116049  0  1.019889  0  0  0.105531  0.110872  0  1.021948  0
H  H16  1  0.84709820  0.62078297  0.02876256  1  0  0.089508  0  0.977915  0  0  0.098973  0  1.040905  0  0  0.102048  0  1.039298  0  0  0.09942  0.096693  0  1.042161  0
H  H17  1  0.15290235  0.37921757  0.97123557  1  0  0.089547  0  0.977963  0  0  0.099015  0  1.040937  0  0  0.102089  0  1.039332  0  0  0.099444  0.096736  0  1.04219  0
H  H18  1  0.81154849  0.63668674  0.22983838  1  0  0.085135  0  0.954082  0  0  0.095985  0  1.014361  0  0  0.098802  0  1.012931  0  0  0.097783  0.093939  0  1.015517  0
H  H19  1  0.18845058  0.36331276  0.77015875  1  0  0.085076  0  0.954105  0  0  0.095953  0  1.014359  0  0  0.098762  0  1.012938  0  0  0.097768  0.093909  0  1.015514  0
H  H20  1  0.85346272  0.42754443  0.42393501  1  0  0.098301  0  0.951688  0  0  0.109256  0  1.014027  0  0  0.111966  0  1.013136  0  0  0.103155  0.107316  0  1.014815  0
H  H21  1  0.14653597  0.57245610  0.57606420  1  0  0.098237  0  0.951786  0  0  0.109221  0  1.014091  0  0  0.111934  0  1.013198  0  0  0.103138  0.107281  0  1.014872  0
H  H22  1  0.02867963  0.30061139  0.57604616  1  0  0.080778  0  0.940146  0  0  0.08778  0  1.00763  0  0  0.090101  0  1.004912  0  0  0.119157  0.086019  0  1.009655  0
H  H23  1  0.97132125  0.69939327  0.42395923  1  0  0.080773  0  0.940102  0  0  0.087753  0  1.007628  0  0  0.090067  0  1.00491  0  0  0.119187  0.085991  0  1.009652  0
H  H24  1  0.16067870  0.35010790  0.38418113  1  0  0.120404  0  0.938534  0  0  0.129994  0  0.995606  0  0  0.133312  0  0.995223  0  0  0.113321  0.127602  0  0.996023  0
H  H25  1  0.83932055  0.64989366  0.61582251  1  0  0.120442  0  0.938578  0  0  0.13005  0  0.995635  0  0  0.133369  0  0.995252  0  0  0.113344  0.127654  0  0.996053  0
H  H26  1  0.41140524  0.22983525  0.40224000  1  0  0.096217  0  0.968534  0  0  0.106284  0  1.031405  0  0  0.108175  0  1.031577  0  0  0.10702  0.104901  0  1.031307  0
H  H27  1  0.58859445  0.77016019  0.59776126  1  0  0.096207  0  0.968506  0  0  0.106284  0  1.031374  0  0  0.108178  0  1.031542  0  0  0.107016  0.104897  0  1.031275  0
H  H28  1  0.61935641  0.08108324  0.53789171  1  0  0.107613  0  0.933146  0  0  0.119556  0  0.989718  0  0  0.122427  0  0.988923  0  0  0.109592  0.117508  0  0.990353  0
H  H29  1  0.38064343  0.91891423  0.46210700  1  0  0.107626  0  0.933095  0  0  0.119561  0  0.989678  0  0  0.122432  0  0.988883  0  0  0.109593  0.117511  0  0.990312  0
H  H30  1  0.72355507  0.92568960  0.74638408  1  0  0.10921  0  0.945574  0  0  0.119786  0  1.003778  0  0  0.121985  0  1.004244  0  0  0.108374  0.11821  0  1.003452  0
H  H31  1  0.27644848  0.07430792  0.25361330  1  0  0.10917  0  0.945594  0  0  0.119748  0  1.003794  0  0  0.12195  0  1.004261  0  0  0.108347  0.118171  0  1.003467  0
H  H32  1  0.69695810  0.80853239  0.96992012  1  0  0.113002  0  0.969534  0  0  0.122682  0  1.03174  0  0  0.1261  0  1.028488  0  0  0.110912  0.120365  0  1.033765  0
H  H33  1  0.30304546  0.19146515  0.03008138  1  0  0.113056  0  0.969498  0  0  0.122723  0  1.031719  0  0  0.126142  0  1.028467  0  0  0.110932  0.120404  0  1.033743  0
H  H34  1  0.54310414  0.75642082  0.14659109  1  0  0.107727  0  0.934745  0  0  0.119916  0  0.989084  0  0  0.122534  0  0.989639  0  0  0.110768  0.117959  0  0.988851  0
H  H35  1  0.45690051  0.24357878  0.85341185  1  0  0.107694  0  0.934727  0  0  0.119878  0  0.989081  0  0  0.122497  0  0.989634  0  0  0.110778  0.117919  0  0.988851  0
H  H36  1  0.29370141  0.87803436  0.10585413  1  0  0.095252  0  0.951837  0  0  0.100929  0  1.01736  0  0  0.103912  0  1.014837  0  0  0.117371  0.098482  0  1.019493  0
H  H37  1  0.70630177  0.12196419  0.89414862  1  0  0.095346  0  0.951829  0  0  0.100951  0  1.017421  0  0  0.103938  0  1.014888  0  0  0.117382  0.098542  0  1.01952  0
C  C38  1  0.52345193  0.49946391  0.55458061  1  0  0.183101  0  3.788863  0  0  0.185207  0  4.032544  0  0  0.191538  0  4.050137  0  0  0.118873  0.180946  0  4.020508  0
C  C39  1  0.47654621  0.50053558  0.44541747  1  0  0.183238  0  3.788916  0  0  0.185323  0  4.032623  0  0  0.191656  0  4.050216  0  0  0.118865  0.18106  0  4.020588  0
C  C40  1  0.65006058  0.40264272  0.61173838  1  0  -0.160193  0  3.695382  0  0  -0.191496  0  3.945905  0  0  -0.195249  0  3.963157  0  0  -0.084444  -0.18896  0  3.934446  0
C  C41  1  0.34994051  0.59735886  0.38826089  1  0  -0.160255  0  3.695343  0  0  -0.191591  0  3.945889  0  0  -0.195348  0  3.963141  0  0  -0.084449  -0.18904  0  3.934431  0
C  C42  1  0.69641042  0.40651327  0.70948171  1  0  -0.040368  0  3.720641  0  0  -0.024635  0  3.955628  0  0  -0.027537  0  3.974614  0  0  -0.000128  -0.022834  0  3.942931  0
C  C43  1  0.30358974  0.59348828  0.29051522  1  0  -0.040365  0  3.720708  0  0  -0.024577  0  3.955643  0  0  -0.027476  0  3.974627  0  0  -0.000111  -0.022815  0  3.942994  0
C  C44  1  0.61205401  0.50299215  0.75577223  1  0  -0.002247  0  3.763622  0  0  0.008786  0  3.987335  0  0  0.007324  0  4.011453  0  0  -0.006201  0.009641  0  3.971338  0
C  C45  1  0.38794376  0.49700837  0.24422958  1  0  -0.002164  0  3.763724  0  0  0.008858  0  3.987424  0  0  0.007396  0  4.011541  0  0  -0.006167  0.009711  0  3.971439  0
C  C46  1  0.64601721  0.51251161  0.85885267  1  0  -0.106781  0  3.735671  0  0  -0.125295  0  3.980933  0  0  -0.127941  0  4.001476  0  0  -0.091509  -0.123454  0  3.966924  0
C  C47  1  0.35397979  0.48749094  0.14114755  1  0  -0.106767  0  3.735503  0  0  -0.125287  0  3.980776  0  0  -0.127932  0  4.001316  0  0  -0.091529  -0.123447  0  3.966772  0
C  C48  1  0.55571528  0.60408863  0.90153402  1  0  -0.063896  0  3.788063  0  0  -0.076954  0  4.036325  0  0  -0.079315  0  4.059595  0  0  -0.090958  -0.075285  0  4.020366  0
C  C49  1  0.44428302  0.39591290  0.09846398  1  0  -0.063983  0  3.788101  0  0  -0.077043  0  4.036382  0  0  -0.079406  0  4.059652  0  0  -0.090991  -0.075374  0  4.02043  0
C  C50  1  0.42933656  0.69329590  0.84087866  1  0  -0.059095  0  3.770448  0  0  -0.075357  0  4.025883  0  0  -0.07619  0  4.047145  0  0  -0.091838  -0.074582  0  4.011385  0
C  C51  1  0.57065765  0.30670660  0.15912111  1  0  -0.05914  0  3.770463  0  0  -0.075421  0  4.025885  0  0  -0.076253  0  4.047149  0  0  -0.091859  -0.074643  0  4.011392  0
C  C52  1  0.39451856  0.68873988  0.73858686  1  0  -0.148697  0  3.727679  0  0  -0.168868  0  3.979496  0  0  -0.172739  0  3.999624  0  0  -0.091912  -0.166371  0  3.965995  0
C  C53  1  0.60547982  0.31125656  0.26141497  1  0  -0.14871  0  3.7277  0  0  -0.168856  0  3.979511  0  0  -0.172725  0  3.999638  0  0  -0.091906  -0.166363  0  3.966007  0
C  C54  1  0.48322974  0.59262448  0.69455410  1  0  0.186096  0  3.819662  0  0  0.189152  0  4.06403  0  0  0.193747  0  4.084866  0  0  0.104032  0.185918  0  4.050244  0
C  C55  1  0.51676508  0.40737394  0.30544405  1  0  0.186099  0  3.819607  0  0  0.189142  0  4.063976  0  0  0.193737  0  4.084811  0  0  0.104027  0.185928  0  4.050172  0
C  C56  1  0.83510572  0.31049968  0.76253653  1  0  0.629677  0  3.930037  0  0  0.581376  0  4.22176  0  0  0.61549  0  4.214931  0  0  0.193478  0.558272  0  4.225415  0
C  C57  1  0.16489498  0.68950291  0.23746235  1  0  0.629659  0  3.930068  0  0  0.581337  0  4.221793  0  0  0.615451  0  4.214967  0  0  0.193481  0.558256  0  4.225437  0
C  C58  1  0.98629758  0.06001098  0.43996026  1  0  0.187948  0  3.779556  0  0  0.189717  0  4.024422  0  0  0.196762  0  4.041225  0  0  0.120572  0.185087  0  4.012828  0
C  C59  1  0.01370034  0.93999157  0.56003736  1  0  0.187922  0  3.779445  0  0  0.189597  0  4.024396  0  0  0.196644  0  4.041198  0  0  0.120509  0.184966  0  4.012807  0
C  C60  1  0.00694448  0.04119511  0.32975404  1  0  -0.17003  0  3.686582  0  0  -0.200911  0  3.937215  0  0  -0.205292  0  3.95347  0  0  -0.08951  -0.19797  0  3.926203  0
C  C61  1  0.99305235  0.95880539  0.67024461  1  0  -0.170057  0  3.686558  0  0  -0.200876  0  3.937199  0  0  -0.205256  0  3.953452  0  0  -0.089473  -0.197941  0  3.926188  0
C  C62  1  0.98371073  0.15294371  0.21894005  1  0  -0.036342  0  3.719204  0  0  -0.021215  0  3.956878  0  0  -0.022359  0  3.97323  0  0  0.002553  -0.020492  0  3.945815  0
C  C63  1  0.01628494  0.84705982  0.78105662  1  0  -0.036226  0  3.719078  0  0  -0.021181  0  3.956846  0  0  -0.022327  0  3.973194  0  0  0.002578  -0.020461  0  3.945794  0
C  C64  1  0.93732097  0.28453377  0.21724373  1  0  -0.008065  0  3.780011  0  0  0.002377  0  4.00469  0  0  -1e-06  0  4.029278  0  0  -0.006871  0.003889  0  3.987954  0
C  C65  1  0.06267919  0.71546779  0.78275402  1  0  -0.008129  0  3.779972  0  0  0.002327  0  4.004649  0  0  -5.4e-05  0  4.029244  0  0  -0.006887  0.003831  0  3.987927  0
C  C66  1  0.90834231  0.40505252  0.10802391  1  0  -0.107032  0  3.741992  0  0  -0.126699  0  3.989711  0  0  -0.129341  0  4.01177  0  0  -0.089334  -0.124516  0  3.974179  0
C  C67  1  0.09165932  0.59495008  0.89197320  1  0  -0.107033  0  3.741942  0  0  -0.126696  0  3.989676  0  0  -0.129336  0  4.011734  0  0  -0.089339  -0.124511  0  3.974146  0
C  C68  1  0.86398237  0.52916005  0.11317563  1  0  -0.062035  0  3.756679  0  0  -0.076071  0  4.006914  0  0  -0.07827  0  4.02797  0  0  -0.088444  -0.074466  0  3.99229  0
C  C69  1  0.13601948  0.47083949  0.88682358  1  0  -0.062051  0  3.756685  0  0  -0.076086  0  4.006925  0  0  -0.078281  0  4.027974  0  0  -0.088433  -0.074475  0  3.992299  0
C  C70  1  0.84461379  0.53797220  0.22733979  1  0  -0.039181  0  3.755726  0  0  -0.053282  0  4.005931  0  0  -0.052984  0  4.025312  0  0  -0.086834  -0.053285  0  3.992721  0
C  C71  1  0.15538289  0.46202625  0.77265975  1  0  -0.039134  0  3.755594  0  0  -0.053259  0  4.005821  0  0  -0.052954  0  4.025206  0  0  -0.086835  -0.053276  0  3.992617  0
C  C72  1  0.86998714  0.42249981  0.33518961  1  0  -0.131889  0  3.716151  0  0  -0.154382  0  3.969399  0  0  -0.158134  0  3.988963  0  0  -0.083939  -0.151991  0  3.956504  0
C  C73  1  0.13000745  0.57750167  0.66480808  1  0  -0.131812  0  3.716037  0  0  -0.154346  0  3.969296  0  0  -0.158098  0  3.988857  0  0  -0.083927  -0.151948  0  3.956389  0
C  C74  1  0.91786919  0.29285325  0.33340817  1  0  0.194647  0  3.812478  0  0  0.196162  0  4.059904  0  0  0.201221  0  4.08084  0  0  0.10784  0.192739  0  4.045821  0
C  C75  1  0.08213004  0.70714830  0.66659053  1  0  0.194643  0  3.812375  0  0  0.196192  0  4.059761  0  0  0.201251  0  4.080697  0  0  0.107837  0.192774  0  4.04567  0
C  C76  1  0.00986999  0.13757317  0.10032868  1  0  0.675312  0  3.877103  0  0  0.62294  0  4.169062  0  0  0.658529  0  4.159475  0  0  0.211552  0.598692  0  4.174935  0
C  C77  1  0.99012832  0.86242837  0.89967015  1  0  0.675357  0  3.87713  0  0  0.622986  0  4.169112  0  0  0.658582  0  4.159511  0  0  0.211559  0.598746  0  4.174978  0
C  C78  1  0.13773764  0.25193113  0.57973816  1  0  0.162649  0  3.690474  0  0  0.128395  0  3.947589  0  0  0.137477  0  3.964613  0  0  0.063149  0.122534  0  3.935995  0
C  C79  1  0.86226384  0.74806944  0.42026396  1  0  0.162788  0  3.690426  0  0  0.128534  0  3.947575  0  0  0.137628  0  3.964587  0  0  0.063153  0.122672  0  3.935979  0
C  C80  1  0.21219688  0.27837146  0.47269277  1  0  -0.113402  0  3.704239  0  0  -0.125974  0  3.95544  0  0  -0.133659  0  3.976567  0  0  -0.078582  -0.121086  0  3.941332  0
C  C81  1  0.78780260  0.72162705  0.52731215  1  0  -0.113512  0  3.704269  0  0  -0.126096  0  3.955466  0  0  -0.133784  0  3.976594  0  0  -0.07861  -0.121203  0  3.941354  0
C  C82  1  0.35030493  0.21300638  0.48306470  1  0  -0.0347  0  3.678914  0  0  -0.060367  0  3.926762  0  0  -0.057426  0  3.945778  0  0  -0.058194  -0.061963  0  3.913756  0
C  C83  1  0.64969507  0.78699314  0.51693641  1  0  -0.034719  0  3.678928  0  0  -0.060381  0  3.926771  0  0  -0.057444  0  3.945796  0  0  -0.058229  -0.061974  0  3.913761  0
C  C84  1  0.41416629  0.12406119  0.59979896  1  0  0.026852  0  3.784451  0  0  0.042937  0  4.015173  0  0  0.040232  0  4.039457  0  0  -0.000268  0.044572  0  3.998778  0
C  C85  1  0.58583410  0.87593732  0.40020253  1  0  0.026818  0  3.784468  0  0  0.042879  0  4.015213  0  0  0.040175  0  4.039496  0  0  -0.000288  0.04451  0  3.998821  0
C  C86  1  0.55722467  0.05887397  0.61773466  1  0  -0.091435  0  3.729522  0  0  -0.113288  0  3.981834  0  0  -0.116436  0  4.004404  0  0  -0.079113  -0.11109  0  3.966601  0
C  C87  1  0.44277811  0.94112559  0.38226360  1  0  -0.09139  0  3.72958  0  0  -0.113219  0  3.981883  0  0  -0.116366  0  4.004452  0  0  -0.079092  -0.111015  0  3.966643  0
C  C88  1  0.61464778  0.97346791  0.73236895  1  0  -0.090108  0  3.717919  0  0  -0.109984  0  3.964566  0  0  -0.113058  0  3.987613  0  0  -0.078758  -0.107973  0  3.949066  0
C  C89  1  0.38535594  0.02653167  0.26763247  1  0  -0.090089  0  3.717931  0  0  -0.109969  0  3.964579  0  0  -0.113039  0  3.987636  0  0  -0.07875  -0.10796  0  3.94908  0
C  C90  1  0.53309822  0.94479729  0.83726498  1  0  0.026235  0  3.799471  0  0  0.043142  0  4.03099  0  0  0.040523  0  4.055508  0  0  0.000383  0.044692  0  4.014511  0
C  C91  1  0.46690402  0.05520124  0.16273379  1  0  0.026215  0  3.799377  0  0  0.04313  0  4.03092  0  0  0.040487  0  4.055473  0  0  0.00036  0.04467  0  4.014451  0
C  C92  1  0.58812564  0.85419839  0.95687606  1  0  -0.044901  0  3.674045  0  0  -0.07266  0  3.926931  0  0  -0.069821  0  3.94358  0  0  -0.059795  -0.074187  0  3.915165  0
C  C93  1  0.41188240  0.14579717  0.04312651  1  0  -0.045032  0  3.674244  0  0  -0.072782  0  3.927142  0  0  -0.069937  0  3.943801  0  0  -0.059843  -0.074305  0  3.915372  0
C  C94  1  0.50367292  0.82767705  0.05368349  1  0  -0.117885  0  3.726227  0  0  -0.132252  0  3.985717  0  0  -0.139218  0  4.006987  0  0  -0.081293  -0.12775  0  3.971428  0
C  C95  1  0.49632856  0.17232352  0.94631863  1  0  -0.117746  0  3.726128  0  0  -0.132114  0  3.985593  0  0  -0.13908  0  4.006863  0  0  -0.081247  -0.127609  0  3.971311  0
C  C96  1  0.36391947  0.89524144  0.03163853  1  0  0.155058  0  3.662176  0  0  0.121845  0  3.921234  0  0  0.130685  0  3.937205  0  0  0.060399  0.116141  0  3.910482  0
C  C97  1  0.63608965  0.10475617  0.96836302  1  0  0.154931  0  3.662076  0  0  0.121784  0  3.921113  0  0  0.130626  0  3.937085  0  0  0.060359  0.116048  0  3.910364  0
C  C98  1  0.33044199  0.10181785  0.70253543  1  0  0.129414  0  3.760325  0  0  0.124964  0  3.992598  0  0  0.129303  0  4.015346  0  0  0.116365  0.122001  0  3.977288  0
C  C99  1  0.66956195  0.89817867  0.29746563  1  0  0.129373  0  3.760251  0  0  0.124944  0  3.992558  0  0  0.129283  0  4.015306  0  0  0.116347  0.121978  0  3.977253  0
C  C100  1  0.39096060  0.00831211  0.82338117  1  0  0.119046  0  3.779046  0  0  0.110719  0  4.019695  0  0  0.114994  0  4.0424  0  0  0.114981  0.10787  0  4.004365  0
C  C101  1  0.60904466  0.99168341  0.17662097  1  0  0.119032  0  3.779007  0  0  0.110671  0  4.019716  0  0  0.114953  0  4.042428  0  0  0.114961  0.107829  0  4.004383  0
N  N102  1  0.44272119  0.59177682  0.59421588  1  0  -0.366746  0  3.053151  0  0  -0.341647  0  3.31833  0  0  -0.351814  0  3.333018  0  0  -0.310397  -0.334655  0  3.308408  0
N  N103  1  0.55727565  0.40822369  0.40578770  1  0  -0.366788  0  3.052957  0  0  -0.341675  0  3.318138  0  0  -0.351842  0  3.332825  0  0  -0.310368  -0.334689  0  3.308216  0
N  N104  1  0.94322234  0.18124087  0.44212125  1  0  -0.376817  0  3.047095  0  0  -0.350439  0  3.314482  0  0  -0.360699  0  3.327432  0  0  -0.311094  -0.343305  0  3.305502  0
N  N105  1  0.05677782  0.81876069  0.55787650  1  0  -0.37686  0  3.046928  0  0  -0.350474  0  3.314353  0  0  -0.360734  0  3.327301  0  0  -0.311121  -0.343338  0  3.305366  0
N  N106  1  0.19493476  0.16600449  0.69041464  1  0  -0.365629  0  3.264291  0  0  -0.295239  0  3.52783  0  0  -0.315718  0  3.546634  0  0  -0.32454  -0.281345  0  3.514706  0
N  N107  1  0.80506897  0.83399510  0.30959007  1  0  -0.365638  0  3.264261  0  0  -0.295262  0  3.527804  0  0  -0.315742  0  3.546607  0  0  -0.324519  -0.281373  0  3.514687  0
N  N108  1  0.31012973  0.98352274  0.92011421  1  0  -0.353484  0  3.258502  0  0  -0.285262  0  3.523753  0  0  -0.305271  0  3.542304  0  0  -0.324352  -0.271759  0  3.510644  0
N  N109  1  0.68987329  0.01647377  0.07988863  1  0  -0.353401  0  3.258401  0  0  -0.285166  0  3.523632  0  0  -0.305176  0  3.542184  0  0  -0.324317  -0.271665  0  3.510541  0
O  O110  1  0.86863275  0.18665695  0.78081529  1  0  -0.635919  0  1.970707  0  0  -0.567726  0  2.206596  0  0  -0.598089  0  2.198141  0  0  -0.326525  -0.546373  0  2.211452  0
O  O111  1  0.13136849  0.81334665  0.21918062  1  0  -0.635843  0  1.970676  0  0  -0.567692  0  2.206624  0  0  -0.598054  0  2.198167  0  0  -0.326535  -0.546335  0  2.211462  0
O  O112  1  0.91306282  0.35504896  0.78476953  1  0  -0.627748  0  1.914852  0  0  -0.575827  0  2.147559  0  0  -0.602937  0  2.139882  0  0  -0.327922  -0.556747  0  2.152044  0
O  O113  1  0.08693418  0.64495358  0.21523151  1  0  -0.627751  0  1.914808  0  0  -0.575828  0  2.147534  0  0  -0.602938  0  2.139859  0  0  -0.327916  -0.556758  0  2.152021  0
O  O114  1  0.93231761  0.10130843  0.06478078  1  0  -0.659051  0  2.023677  0  0  -0.587456  0  2.27875  0  0  -0.618615  0  2.266866  0  0  -0.331068  -0.565494  0  2.285797  0
O  O115  1  0.06768200  0.89869210  0.93521748  1  0  -0.659057  0  2.023688  0  0  -0.587481  0  2.278789  0  0  -0.618644  0  2.266901  0  0  -0.331074  -0.565512  0  2.285814  0
O  O116  1  0.10737741  0.16456057  0.03868223  1  0  -0.617302  0  1.964117  0  0  -0.555894  0  2.204376  0  0  -0.584916  0  2.195117  0  0  -0.307062  -0.535515  0  2.209742  0
O  O117  1  0.89262259  0.83543894  0.96131642  1  0  -0.617353  0  1.964206  0  0  -0.555905  0  2.204423  0  0  -0.584927  0  2.195162  0  0  -0.307054  -0.535529  0  2.209793  0
