# generated using pymatgen
data_CdH10C8N5ClO4
_symmetry_space_group_name_H-M   'P 1'
_cell_length_a   7.52447009
_cell_length_b   8.77494495
_cell_length_c   10.74742055
_cell_angle_alpha   70.27793260
_cell_angle_beta   84.36006401
_cell_angle_gamma   65.05983606
_symmetry_Int_Tables_number   1
_chemical_formula_structural   CdH10C8N5ClO4
_chemical_formula_sum   'Cd2 H20 C16 N10 Cl2 O8'
_cell_volume   604.89497981
_cell_formula_units_Z   2
loop_
 _symmetry_equiv_pos_site_id
 _symmetry_equiv_pos_as_xyz
  1  'x, y, z'
loop_
 _atom_site_type_symbol
 _atom_site_label
 _atom_site_symmetry_multiplicity
 _atom_site_fract_x
 _atom_site_fract_y
 _atom_site_fract_z
 _atom_site_occupancy
 _atom_site_hle17_bader_spin_density
 _atom_site_hle17_ddec_charge
 _atom_site_hle17_ddec_spin_density
 _atom_site_hle17_ddec_sum_bond_order
 _atom_site_hle17_magmom
 _atom_site_hse06_10hf_bader_spin_density
 _atom_site_hse06_10hf_ddec_charge
 _atom_site_hse06_10hf_ddec_spin_density
 _atom_site_hse06_10hf_ddec_sum_bond_order
 _atom_site_hse06_10hf_magmom
 _atom_site_hse06_bader_spin_density
 _atom_site_hse06_ddec_charge
 _atom_site_hse06_ddec_spin_density
 _atom_site_hse06_ddec_sum_bond_order
 _atom_site_hse06_magmom
 _atom_site_pbe_bader_spin_density
 _atom_site_pbe_cm5_charge
 _atom_site_pbe_ddec_charge
 _atom_site_pbe_ddec_spin_density
 _atom_site_pbe_ddec_sum_bond_order
 _atom_site_pbe_magmom
Cd  Cd0  1  0.17313587  0.26553783  0.09492690  1  0  1.122586  0  1.765318  0  0  0.959136  0  2.220294  0  0  1.008305  0  2.168834  0  0  0.69196  0.923968  0  2.255903  0
Cd  Cd1  1  0.82686316  0.73446398  0.90507108  1  0  1.122567  0  1.765276  0  0  0.959111  0  2.220252  0  0  1.008279  0  2.168799  0  0  0.691959  0.923947  0  2.255863  0
H  H2  1  0.23366346  0.34452157  0.83027988  1  0  0.376856  0  0.950518  0  0  0.334198  0  1.035332  0  0  0.345197  0  1.019714  0  0  0.272449  0.32654  0  1.046131  0
H  H3  1  0.76633158  0.65548559  0.16971962  1  0  0.376832  0  0.950559  0  0  0.334165  0  1.035382  0  0  0.345163  0  1.019766  0  0  0.272424  0.326506  0  1.04618  0
H  H4  1  0.29022429  0.13593809  0.88610450  1  0  0.410447  0  0.900823  0  0  0.377375  0  0.968188  0  0  0.388926  0  0.951534  0  0  0.28196  0.369285  0  0.979825  0
H  H5  1  0.70977992  0.86406112  0.11389489  1  0  0.410429  0  0.900852  0  0  0.377412  0  0.968137  0  0  0.388965  0  0.95148  0  0  0.281984  0.369319  0  0.979777  0
H  H6  1  0.20822756  0.94411699  0.06424848  1  0  0.426318  0  0.845627  0  0  0.400105  0  0.911467  0  0  0.409667  0  0.897562  0  0  0.300752  0.393282  0  0.921387  0
H  H7  1  0.79177202  0.05588081  0.93575057  1  0  0.4263  0  0.845689  0  0  0.400084  0  0.911499  0  0  0.409649  0  0.897589  0  0  0.300729  0.393255  0  0.921426  0
H  H8  1  0.01186925  0.99912603  0.13883716  1  0  0.418148  0  0.885301  0  0  0.383605  0  0.955198  0  0  0.395039  0  0.938737  0  0  0.282514  0.375479  0  0.966886  0
H  H9  1  0.98813384  0.00087311  0.86115858  1  0  0.41818  0  0.885253  0  0  0.383556  0  0.955259  0  0  0.394987  0  0.938801  0  0  0.282514  0.375433  0  0.966942  0
H  H10  1  0.19672403  0.67259157  0.30122624  1  0  0.136924  0  0.93663  0  0  0.142331  0  1.000914  0  0  0.147108  0  0.997543  0  0  0.118627  0.138865  0  1.003475  0
H  H11  1  0.80326911  0.32739684  0.69877938  1  0  0.136999  0  0.93653  0  0  0.142426  0  1.000842  0  0  0.147181  0  0.997497  0  0  0.118682  0.138973  0  1.00339  0
H  H12  1  0.46243561  0.48161269  0.19165920  1  0  0.119677  0  0.931827  0  0  0.128167  0  0.99187  0  0  0.131196  0  0.988766  0  0  0.125325  0.125789  0  0.994403  0
H  H13  1  0.53755764  0.51838379  0.80834608  1  0  0.119694  0  0.931726  0  0  0.128187  0  0.991802  0  0  0.131216  0  0.988705  0  0  0.125324  0.125809  0  0.99434  0
H  H14  1  0.66164100  0.06238154  0.54754280  1  0  0.104378  0  0.99624  0  0  0.098684  0  1.079733  0  0  0.103527  0  1.07461  0  0  0.126326  0.095079  0  1.08341  0
H  H15  1  0.33837238  0.93760318  0.45246664  1  0  0.10442  0  0.996164  0  0  0.098697  0  1.079692  0  0  0.103536  0  1.074573  0  0  0.126357  0.09512  0  1.083349  0
H  H16  1  0.40911629  0.23787201  0.67214677  1  0  0.134483  0  0.947755  0  0  0.14424  0  1.004151  0  0  0.148038  0  1.002615  0  0  0.120299  0.141397  0  1.005594  0
H  H17  1  0.59088722  0.76212471  0.32786450  1  0  0.134444  0  0.947821  0  0  0.144263  0  1.004164  0  0  0.148062  0  1.002623  0  0  0.120301  0.141417  0  1.005603  0
H  H18  1  0.83545124  0.05095938  0.36688803  1  0  0.132597  0  0.945923  0  0  0.13765  0  1.017316  0  0  0.141292  0  1.014419  0  0  0.125633  0.135027  0  1.019494  0
H  H19  1  0.16455669  0.94903456  0.63311449  1  0  0.132604  0  0.94598  0  0  0.13762  0  1.0174  0  0  0.141258  0  1.014511  0  0  0.125617  0.135009  0  1.019581  0
H  H20  1  0.78450436  0.25109368  0.22893848  1  0  0.113802  0  0.983007  0  0  0.118954  0  1.058301  0  0  0.121103  0  1.057761  0  0  0.109631  0.117337  0  1.058972  0
H  H21  1  0.21549771  0.74890960  0.77106455  1  0  0.113821  0  0.982989  0  0  0.118986  0  1.058251  0  0  0.121171  0  1.057678  0  0  0.109654  0.117374  0  1.058933  0
C  C22  1  0.12879848  0.58253397  0.56195874  1  0  0.222384  0  3.81815  0  0  0.201963  0  4.095028  0  0  0.206927  0  4.112324  0  0  0.202784  0.198695  0  4.083203  0
C  C23  1  0.87119272  0.41747040  0.43803796  1  0  0.222293  0  3.81799  0  0  0.20192  0  4.094802  0  0  0.206884  0  4.112098  0  0  0.202736  0.19865  0  4.08298  0
C  C24  1  0.27861671  0.47069037  0.49625339  1  0  0.082052  0  3.75683  0  0  0.08715  0  3.99911  0  0  0.094644  0  4.01739  0  0  0.026732  0.082117  0  3.986915  0
C  C25  1  0.72138389  0.52930329  0.50373837  1  0  0.08209  0  3.756893  0  0  0.087207  0  3.999198  0  0  0.094706  0  4.017462  0  0  0.026777  0.08218  0  3.987009  0
C  C26  1  0.29531705  0.53827485  0.35910769  1  0  -0.118601  0  3.660842  0  0  -0.141321  0  3.917351  0  0  -0.149275  0  3.935567  0  0  -0.064398  -0.136318  0  3.905651  0
C  C27  1  0.70468571  0.46171629  0.64089210  1  0  -0.118751  0  3.660524  0  0  -0.141539  0  3.917133  0  0  -0.149475  0  3.935356  0  0  -0.06449  -0.136509  0  3.905361  0
C  C28  1  0.44164330  0.43498636  0.29716423  1  0  0.105932  0  3.571419  0  0  0.061668  0  3.828158  0  0  0.070929  0  3.84181  0  0  0.066319  0.05536  0  3.819481  0
C  C29  1  0.55834919  0.56502073  0.70283354  1  0  0.106058  0  3.571277  0  0  0.06173  0  3.828168  0  0  0.070989  0  3.841816  0  0  0.06639  0.055424  0  3.8195  0
C  C30  1  0.55408130  0.19799137  0.49890519  1  0  0.102923  0  3.560228  0  0  0.063155  0  3.813606  0  0  0.071652  0  3.827249  0  0  0.064333  0.057791  0  3.804671  0
C  C31  1  0.44592673  0.80200795  0.50109679  1  0  0.102934  0  3.560085  0  0  0.06318  0  3.813518  0  0  0.071672  0  3.827175  0  0  0.06425  0.057794  0  3.804556  0
C  C32  1  0.41181028  0.29727513  0.56568648  1  0  -0.121459  0  3.657711  0  0  -0.143722  0  3.909312  0  0  -0.151744  0  3.928235  0  0  -0.067081  -0.138893  0  3.897162  0
C  C33  1  0.58819604  0.70271618  0.43432056  1  0  -0.121448  0  3.657767  0  0  -0.143777  0  3.909384  0  0  -0.151801  0  3.928305  0  0  -0.067097  -0.138945  0  3.897229  0
C  C34  1  0.72098709  0.16373404  0.29592007  1  0  -0.204181  0  3.579262  0  0  -0.262971  0  3.82324  0  0  -0.265042  0  3.829773  0  0  -0.064594  -0.261673  0  3.819356  0
C  C35  1  0.27901560  0.83626791  0.70408329  1  0  -0.2042  0  3.579397  0  0  -0.262929  0  3.823319  0  0  -0.26502  0  3.829834  0  0  -0.064651  -0.261683  0  3.819493  0
C  C36  1  0.64384685  0.09278543  0.21089841  1  0  0.717027  0  3.839409  0  0  0.662028  0  4.149429  0  0  0.69576  0  4.141403  0  0  0.220807  0.639119  0  4.154084  0
C  C37  1  0.35615295  0.90722580  0.78909977  1  0  0.716844  0  3.839866  0  0  0.661877  0  4.149794  0  0  0.695587  0  4.14181  0  0  0.220815  0.638992  0  4.15443  0
N  N38  1  0.10342364  0.53898572  0.69344270  1  0  -0.280634  0  3.034497  0  0  -0.242953  0  3.296186  0  0  -0.25232  0  3.312821  0  0  -0.199905  -0.236786  0  3.284986  0
N  N39  1  0.89657495  0.46101467  0.30655104  1  0  -0.28059  0  3.034008  0  0  -0.242923  0  3.295698  0  0  -0.252293  0  3.312333  0  0  -0.199846  -0.236752  0  3.28449  0
N  N40  1  0.95266046  0.68235403  0.70738530  1  0  -0.140985  0  3.209322  0  0  -0.092578  0  3.50815  0  0  -0.104042  0  3.526759  0  0  -0.114263  -0.08442  0  3.495314  0
N  N41  1  0.04733714  0.31764239  0.29261328  1  0  -0.14096  0  3.20925  0  0  -0.092563  0  3.508093  0  0  -0.104023  0  3.526698  0  0  -0.114288  -0.084403  0  3.495251  0
N  N42  1  0.88883814  0.80798431  0.59000242  1  0  -0.070977  0  3.009064  0  0  -0.057329  0  3.305806  0  0  -0.057738  0  3.319977  0  0  -0.087164  -0.056651  0  3.295701  0
N  N43  1  0.11115678  0.19201478  0.40999742  1  0  -0.070994  0  3.009053  0  0  -0.057334  0  3.305771  0  0  -0.057742  0  3.319943  0  0  -0.087169  -0.056661  0  3.29568  0
N  N44  1  0.99689298  0.74907391  0.49692379  1  0  -0.284949  0  2.939467  0  0  -0.267183  0  3.228834  0  0  -0.275653  0  3.242371  0  0  -0.212114  -0.260694  0  3.219081  0
N  N45  1  0.00310264  0.25092653  0.50307565  1  0  -0.284907  0  2.939419  0  0  -0.267163  0  3.228788  0  0  -0.275632  0  3.242322  0  0  -0.212082  -0.260681  0  3.219042  0
N  N46  1  0.56840078  0.26802314  0.36696491  1  0  0.025123  0  3.560723  0  0  0.117034  0  3.768308  0  0  0.104221  0  3.794394  0  0  -0.208635  0.125192  0  3.751048  0
N  N47  1  0.43159999  0.73197741  0.63303706  1  0  0.025052  0  3.560767  0  0  0.117  0  3.768361  0  0  0.104183  0  3.794448  0  0  -0.208627  0.125167  0  3.751119  0
Cl  Cl48  1  0.19048079  0.57943314  0.01154024  1  0  -0.605521  0  0.944194  0  0  -0.547676  0  1.220159  0  0  -0.566777  0  1.197363  0  0  -0.303396  -0.533252  0  1.235531  0
Cl  Cl49  1  0.80951949  0.42056601  0.98845841  1  0  -0.605528  0  0.944209  0  0  -0.547665  0  1.220172  0  0  -0.566763  0  1.197367  0  0  -0.303391  -0.533245  0  1.235544  0
O  O50  1  0.46864806  0.11118690  0.21973624  1  0  -0.639894  0  2.033041  0  0  -0.578868  0  2.295143  0  0  -0.605813  0  2.284057  0  0  -0.328579  -0.559829  0  2.302046  0
O  O51  1  0.53134669  0.88882419  0.78025755  1  0  -0.639711  0  2.033202  0  0  -0.578733  0  2.295308  0  0  -0.605667  0  2.284224  0  0  -0.32849  -0.559694  0  2.302192  0
O  O52  1  0.77186608  0.01525405  0.13979546  1  0  -0.658358  0  2.002052  0  0  -0.586251  0  2.215369  0  0  -0.61412  0  2.20442  0  0  -0.308188  -0.566867  0  2.222528  0
O  O53  1  0.22813261  0.98476521  0.86020058  1  0  -0.658367  0  2.002184  0  0  -0.586148  0  2.215416  0  0  -0.614002  0  2.204467  0  0  -0.308209  -0.566771  0  2.22257  0
O  O54  1  0.31464766  0.23216647  0.90129123  1  0  -0.818147  0  1.920967  0  0  -0.751164  0  2.117682  0  0  -0.774312  0  2.083634  0  0  -0.59679  -0.734606  0  2.141054  0
O  O55  1  0.68534869  0.76783801  0.09870800  1  0  -0.818116  0  1.920988  0  0  -0.751155  0  2.117654  0  0  -0.774301  0  2.083608  0  0  -0.596802  -0.734601  0  2.14104  0
O  O56  1  0.15104576  0.98487093  0.13943831  1  0  -0.807965  0  1.820902  0  0  -0.745493  0  2.004336  0  0  -0.766765  0  1.971438  0  0  -0.581376  -0.730409  0  2.02729  0
O  O57  1  0.84895780  0.01512693  0.86056055  1  0  -0.807973  0  1.820894  0  0  -0.745424  0  2.004422  0  0  -0.766696  0  1.971522  0  0  -0.581346  -0.730348  0  2.027409  0
