# generated using pymatgen
data_CuH6C6(NO3)2
_symmetry_space_group_name_H-M   'P 1'
_cell_length_a   6.97941083
_cell_length_b   6.95727619
_cell_length_c   10.64253045
_cell_angle_alpha   86.98310565
_cell_angle_beta   83.98821055
_cell_angle_gamma   59.90052585
_symmetry_Int_Tables_number   1
_chemical_formula_structural   CuH6C6(NO3)2
_chemical_formula_sum   'Cu2 H12 C12 N4 O12'
_cell_volume   444.63361010
_cell_formula_units_Z   2
loop_
 _symmetry_equiv_pos_site_id
 _symmetry_equiv_pos_as_xyz
  1  'x, y, z'
loop_
 _atom_site_type_symbol
 _atom_site_label
 _atom_site_symmetry_multiplicity
 _atom_site_fract_x
 _atom_site_fract_y
 _atom_site_fract_z
 _atom_site_occupancy
 _atom_site_hle17_ddec_charge
 _atom_site_hle17_ddec_spin_density
 _atom_site_hle17_ddec_sum_bond_order
 _atom_site_hle17_magmom
 _atom_site_hse06_10hf_ddec_charge
 _atom_site_hse06_10hf_ddec_spin_density
 _atom_site_hse06_10hf_ddec_sum_bond_order
 _atom_site_hse06_10hf_magmom
 _atom_site_hse06_ddec_charge
 _atom_site_hse06_ddec_spin_density
 _atom_site_hse06_ddec_sum_bond_order
 _atom_site_hse06_magmom
 _atom_site_pbe_cm5_charge
 _atom_site_pbe_ddec_charge
 _atom_site_pbe_ddec_spin_density
 _atom_site_pbe_ddec_sum_bond_order
 _atom_site_pbe_magmom
Cu  Cu0  1  0.50000153  0.00000584  0.49999905  1  0.875392  0.73334  1.877772  0.54  0.864756  0.828892  2.258777  0.668  0.943644  0.897459  2.201755  0.753  0.757256  0.814537  0.759694  2.299392  0.596
Cu  Cu1  1  0.00000090  0.99999874  0.99999705  1  0.875378  -0.733259  1.877193  -0.54  0.864685  -0.82887  2.258154  -0.668  0.943685  -0.897463  2.201031  -0.753  0.756957  0.814461  -0.759654  2.298738  -0.596
H  H2  1  0.07622574  0.34760967  0.25000648  1  0.157756  5e-06  0.915161  0.0  0.16678  1e-06  0.970453  0.0  0.170458  0.0  0.969025  0.0  0.134556  0.163562  1e-06  0.972172  0.0
H  H3  1  0.92377749  0.65239189  0.74999611  1  0.157728  -2e-06  0.915212  0.0  0.166748  1e-06  0.970513  0.0  0.170427  1e-06  0.969082  0.0  0.134554  0.163534  1e-06  0.972234  0.0
H  H4  1  0.66920399  0.16151273  0.25004225  1  0.109471  -1e-06  0.886744  0.0  0.114208  -0.0  0.946975  0.0  0.117399  0.0  0.94243  0.0  0.152152  0.111298  0.0  0.950949  0.0
H  H5  1  0.33080527  0.83848551  0.74995631  1  0.109438  -1.1e-05  0.886748  0.0  0.114181  0.0  0.946977  0.0  0.117373  0.0  0.942431  0.0  0.152142  0.111281  0.0  0.950943  0.0
H  H6  1  0.09853505  0.09182764  0.41059934  1  0.405889  0.000102  0.903857  0.0  0.378453  7.6e-05  0.964869  0.0  0.38883  3.2e-05  0.949702  0.0  0.280555  0.37136  0.000135  0.97518  0.0
H  H7  1  0.30963594  0.09179777  0.08947227  1  0.405651  -0.000101  0.904051  0.0  0.378334  -7.5e-05  0.964961  0.0  0.388698  -3.1e-05  0.949803  0.0  0.280467  0.371239  -0.000135  0.975274  0.0
H  H8  1  0.90145500  0.90817724  0.58940398  1  0.405944  0.000101  0.903783  0.0  0.378526  7.6e-05  0.964781  0.0  0.388905  3.2e-05  0.94961  0.0  0.280581  0.371433  0.000135  0.975092  0.0
H  H9  1  0.69036318  0.90820047  0.91053162  1  0.405784  -0.000101  0.903892  0.0  0.378432  -7.5e-05  0.96484  0.0  0.388812  -3.1e-05  0.949672  0.0  0.280507  0.371336  -0.000134  0.975154  0.0
H  H10  1  0.22280070  0.83537049  0.43774913  1  0.414252  -0.000102  0.88896  0.0  0.387804  -7e-05  0.94642  0.0  0.399555  -4.8e-05  0.929121  0.0  0.279675  0.379618  -8.2e-05  0.958439  0.0
H  H11  1  0.44181882  0.83527678  0.06221807  1  0.41418  0.000104  0.889064  0.0  0.387719  7e-05  0.946554  0.0  0.399463  4.9e-05  0.929275  0.0  0.279529  0.37953  8.2e-05  0.958578  0.0
H  H12  1  0.77718980  0.16463938  0.56224930  1  0.414264  -0.000104  0.888943  0.0  0.387812  -7e-05  0.946411  0.0  0.399564  -4.8e-05  0.929115  0.0  0.27966  0.37963  -8.2e-05  0.958428  0.0
H  H13  1  0.55818737  0.16471315  0.93778283  1  0.414241  0.000104  0.889008  0.0  0.387766  7e-05  0.946512  0.0  0.399514  4.9e-05  0.929226  0.0  0.279565  0.37958  8.2e-05  0.958535  0.0
C  C14  1  0.82462346  0.64954908  0.34666663  1  0.165459  0.00103  3.651886  0.001  0.163367  0.001028  3.899688  0.0  0.17298  0.000529  3.912388  0.0  0.143114  0.155481  0.001421  3.893275  0.001
C  C15  1  0.02580797  0.64953946  0.15339575  1  0.165439  -0.00104  3.651469  -0.001  0.163234  -0.001029  3.899682  0.0  0.172851  -0.00053  3.91239  0.0  0.14299  0.155344  -0.00142  3.893271  -0.001
C  C16  1  0.17538002  0.35044915  0.65333417  1  0.165486  0.001055  3.651883  0.001  0.163395  0.001029  3.899654  0.0  0.173007  0.000528  3.912356  0.0  0.143114  0.155515  0.001422  3.893253  0.001
C  C17  1  0.97418992  0.35046708  0.84660514  1  0.165451  -0.001046  3.65152  -0.001  0.163257  -0.001027  3.899706  0.0  0.17288  -0.000526  3.912414  0.0  0.143037  0.155375  -0.001419  3.893311  -0.001
C  C18  1  0.98579805  0.52826485  0.25004014  1  -0.112716  -1e-05  3.590887  0.0  -0.143097  1e-06  3.835631  0.0  -0.148603  3e-06  3.849209  0.0  -0.042774  -0.139963  0.0  3.829002  0.0
C  C19  1  0.01419372  0.47173671  0.74995848  1  -0.112678  -1e-06  3.591001  0.0  -0.143072  -0.0  3.835738  0.0  -0.148577  -1e-06  3.849314  0.0  -0.042771  -0.139938  -0.0  3.829123  0.0
C  C20  1  0.75974855  0.98043157  0.25001337  1  0.346935  -8e-06  3.570957  0.0  0.299914  -4e-06  3.843031  0.0  0.320455  -4e-06  3.849418  0.0  0.215089  0.28545  -3e-06  3.841186  0.0
C  C21  1  0.24025203  0.01956666  0.74998855  1  0.347038  4.1e-05  3.57104  0.0  0.300005  -2e-06  3.843112  0.0  0.320549  -1e-06  3.849501  0.0  0.215117  0.285548  -1e-06  3.841279  0.0
C  C22  1  0.76285009  0.54505229  0.46044671  1  0.614326  -0.003479  3.899392  -0.006  0.566941  0.00054  4.204544  -0.001  0.601899  0.000432  4.198161  -0.001  0.219012  0.542953  0.000695  4.208486  -0.001
C  C23  1  0.19212350  0.54502929  0.03962265  1  0.614827  0.003516  3.897457  0.006  0.567104  -0.000534  4.203278  0.001  0.602071  -0.000427  4.196897  0.001  0.219165  0.543111  -0.000688  4.20722  0.001
C  C24  1  0.23715112  0.45494761  0.53955324  1  0.614209  -0.003497  3.899492  -0.006  0.566872  0.000539  4.204558  -0.001  0.601832  0.000431  4.198174  -0.001  0.218985  0.54288  0.000695  4.208509  -0.001
C  C25  1  0.80787791  0.45496729  0.96037928  1  0.614888  0.003515  3.897425  0.006  0.567191  -0.000534  4.203197  0.001  0.602157  -0.000426  4.196813  0.001  0.219181  0.543193  -0.000687  4.207147  0.001
N  N26  1  0.71479686  0.87361156  0.34621354  1  -0.311794  0.053439  3.26121  0.067  -0.272198  0.040995  3.546844  0.055  -0.301045  0.033533  3.561473  0.047  -0.320428  -0.254725  0.043753  3.539623  0.056
N  N27  1  0.91154536  0.87361770  0.15383602  1  -0.312237  -0.053403  3.260702  -0.067  -0.272478  -0.040985  3.546281  -0.055  -0.301354  -0.033522  3.560934  -0.047  -0.320393  -0.255008  -0.043741  3.539062  -0.056
N  N28  1  0.28519161  0.12638501  0.65378733  1  -0.311774  0.053406  3.261257  0.067  -0.272188  0.040992  3.546915  0.055  -0.301037  0.033528  3.561548  0.047  -0.320393  -0.254716  0.043746  3.539707  0.056
N  N29  1  0.08845724  0.12638220  0.84616854  1  -0.312352  -0.053426  3.260748  -0.067  -0.27259  -0.040988  3.546322  -0.055  -0.301479  -0.033525  3.560987  -0.047  -0.320446  -0.25512  -0.04374  3.539116  -0.056
O  O30  1  0.62750263  0.67957892  0.54698751  1  -0.549194  0.08405  2.014941  0.114  -0.532523  0.052213  2.285936  0.077  -0.572729  0.038974  2.28001  0.06  -0.310681  -0.504914  0.060709  2.28969  0.086
O  O31  1  0.19293908  0.67955542  0.95301772  1  -0.549317  -0.084108  2.013572  -0.114  -0.532551  -0.052231  2.284801  -0.077  -0.572776  -0.038983  2.278883  -0.06  -0.310699  -0.504922  -0.060738  2.288522  -0.086
O  O32  1  0.37249841  0.32042430  0.45300859  1  -0.549188  0.084054  2.014924  0.114  -0.532554  0.052215  2.285926  0.077  -0.572759  0.038975  2.279995  0.06  -0.310719  -0.504938  0.06071  2.289674  0.086
O  O33  1  0.80706340  0.32043617  0.04698336  1  -0.54936  -0.08411  2.013684  -0.114  -0.532588  -0.052238  2.284878  -0.077  -0.572817  -0.038987  2.278963  -0.06  -0.310696  -0.504951  -0.060745  2.288589  -0.086
O  O34  1  0.84965075  0.33773855  0.46408370  1  -0.581646  0.013098  2.020951  0.017  -0.529569  0.006323  2.237526  0.009  -0.557331  0.002937  2.22925  0.004  -0.283832  -0.509655  0.010145  2.242525  0.014
O  O35  1  0.31269764  0.33769171  0.03596746  1  -0.581946  -0.013129  2.020285  -0.017  -0.529752  -0.006327  2.237066  -0.009  -0.557508  -0.002938  2.228781  -0.004  -0.283925  -0.509836  -0.010153  2.24207  -0.014
O  O36  1  0.15033901  0.66226135  0.53591134  1  -0.581622  0.013109  2.021032  0.017  -0.529547  0.006323  2.237553  0.009  -0.557318  0.002938  2.229287  0.004  -0.2838  -0.509631  0.010144  2.242558  0.014
O  O37  1  0.68731901  0.66230321  0.96403355  1  -0.581975  -0.013125  2.020241  -0.017  -0.529788  -0.006325  2.237004  -0.009  -0.557548  -0.002937  2.22874  -0.004  -0.283942  -0.509873  -0.01015  2.242013  -0.014
O  O38  1  0.24338448  0.95527879  0.39680963  1  -0.845513  -0.002073  1.85591  -0.001  -0.813305  -0.00136  2.027914  -0.001  -0.833574  -0.001399  1.994164  -0.001  -0.615433  -0.797326  -0.001417  2.050949  -0.001
O  O39  1  0.30138571  0.95515897  0.10318184  1  -0.845181  0.00207  1.856073  0.001  -0.813086  0.001361  2.027784  0.001  -0.833373  0.001398  1.994111  0.001  -0.615262  -0.797099  0.001419  2.05081  0.001
O  O40  1  0.75660681  0.04472941  0.60319162  1  -0.845576  -0.00207  1.855856  -0.001  -0.813383  -0.00136  2.02781  -0.001  -0.833651  -0.001398  1.994027  -0.001  -0.615438  -0.797408  -0.001417  2.050847  -0.001
O  O41  1  0.69862029  0.04483428  0.89681614  1  -0.845357  0.002071  1.855866  0.001  -0.813217  0.001361  2.02768  0.001  -0.833526  0.001398  1.99394  0.001  -0.615323  -0.797223  0.001419  2.050704  0.001
