# generated using pymatgen
data_CuH7C7IN2
_symmetry_space_group_name_H-M   'P 1'
_cell_length_a   8.25077356
_cell_length_b   8.25075338
_cell_length_c   13.78454062
_cell_angle_alpha   100.43467110
_cell_angle_beta   100.43376649
_cell_angle_gamma   107.12096197
_symmetry_Int_Tables_number   1
_chemical_formula_structural   CuH7C7IN2
_chemical_formula_sum   'Cu4 H28 C28 I4 N8'
_cell_volume   854.09625158
_cell_formula_units_Z   4
loop_
 _symmetry_equiv_pos_site_id
 _symmetry_equiv_pos_as_xyz
  1  'x, y, z'
loop_
 _atom_site_type_symbol
 _atom_site_label
 _atom_site_symmetry_multiplicity
 _atom_site_fract_x
 _atom_site_fract_y
 _atom_site_fract_z
 _atom_site_occupancy
 _atom_site_hle17_bader_spin_density
 _atom_site_hle17_ddec_charge
 _atom_site_hle17_ddec_spin_density
 _atom_site_hle17_ddec_sum_bond_order
 _atom_site_hle17_magmom
 _atom_site_hse06_10hf_bader_spin_density
 _atom_site_hse06_10hf_ddec_charge
 _atom_site_hse06_10hf_ddec_spin_density
 _atom_site_hse06_10hf_ddec_sum_bond_order
 _atom_site_hse06_10hf_magmom
 _atom_site_hse06_bader_spin_density
 _atom_site_hse06_ddec_charge
 _atom_site_hse06_ddec_spin_density
 _atom_site_hse06_ddec_sum_bond_order
 _atom_site_hse06_magmom
 _atom_site_pbe_bader_spin_density
 _atom_site_pbe_cm5_charge
 _atom_site_pbe_ddec_charge
 _atom_site_pbe_ddec_spin_density
 _atom_site_pbe_ddec_sum_bond_order
 _atom_site_pbe_magmom
Cu  Cu0  1  0.21267752  0.78732042  0.74999799  1  0  0.30041  0  2.185772  0  0  0.220384  0  2.660315  0  0  0.221123  0  2.615732  0  0  0.354289  0.223607  0  2.686638  0
Cu  Cu1  1  0.78731938  0.21268094  0.24999941  1  0  0.300389  0  2.185797  0  0  0.220336  0  2.660354  0  0  0.221073  0  2.615775  0  0  0.354304  0.223571  0  2.686669  0
Cu  Cu2  1  0.01435726  0.98563717  0.74999710  1  0  0.278997  0  2.183597  0  0  0.184281  0  2.673327  0  0  0.185136  0  2.627441  0  0  0.348089  0.18986  0  2.699088  0
Cu  Cu3  1  0.98563806  0.01436298  0.25000364  1  0  0.27901  0  2.1836  0  0  0.184301  0  2.6733  0  0  0.185155  0  2.627421  0  0  0.348062  0.189883  0  2.699049  0
H  H4  1  0.98729143  0.33472780  0.81586160  1  0  0.07923  0  0.945029  0  0  0.084252  0  1.01528  0  0  0.087444  0  1.012793  0  0  0.104891  0.081968  0  1.017087  0
H  H5  1  0.66526628  0.01271431  0.68413921  1  0  0.079146  0  0.944911  0  0  0.084127  0  1.015208  0  0  0.08735  0  1.012693  0  0  0.104839  0.081842  0  1.01702  0
H  H6  1  0.01272023  0.66528018  0.18414598  1  0  0.079187  0  0.944973  0  0  0.084148  0  1.015295  0  0  0.087364  0  1.012788  0  0  0.10488  0.081867  0  1.017097  0
H  H7  1  0.33472240  0.98729512  0.31586253  1  0  0.079227  0  0.945003  0  0  0.08424  0  1.015254  0  0  0.087435  0  1.012764  0  0  0.104884  0.081956  0  1.017061  0
H  H8  1  0.82792603  0.47035817  0.92214062  1  0  0.10124  0  0.960252  0  0  0.109023  0  1.025683  0  0  0.112467  0  1.024585  0  0  0.097051  0.106582  0  1.026529  0
H  H9  1  0.52965199  0.17210001  0.57786675  1  0  0.101277  0  0.960332  0  0  0.109043  0  1.025766  0  0  0.112486  0  1.024673  0  0  0.097085  0.106604  0  1.0266  0
H  H10  1  0.17210620  0.52965901  0.07787799  1  0  0.101229  0  0.960385  0  0  0.109015  0  1.025789  0  0  0.112458  0  1.024693  0  0  0.097066  0.106574  0  1.026635  0
H  H11  1  0.47035114  0.82790899  0.42212482  1  0  0.101275  0  0.960234  0  0  0.109047  0  1.025667  0  0  0.112491  0  1.02457  0  0  0.097088  0.106606  0  1.026511  0
H  H12  1  0.71035799  0.01192160  0.04358384  1  0  0.104415  0  0.981115  0  0  0.107823  0  1.056619  0  0  0.112853  0  1.052418  0  0  0.092802  0.104018  0  1.060005  0
H  H13  1  0.98808405  0.28963683  0.45641512  1  0  0.104451  0  0.981143  0  0  0.107865  0  1.056634  0  0  0.112897  0  1.05243  0  0  0.092821  0.10406  0  1.06002  0
H  H14  1  0.28962689  0.98807719  0.95640989  1  0  0.10445  0  0.981077  0  0  0.107815  0  1.056635  0  0  0.112853  0  1.052408  0  0  0.092817  0.104008  0  1.060024  0
H  H15  1  0.01191786  0.71033288  0.54357737  1  0  0.104451  0  0.981145  0  0  0.107884  0  1.05661  0  0  0.112906  0  1.052425  0  0  0.092812  0.104082  0  1.059994  0
H  H16  1  0.85590890  0.88430932  0.92026565  1  0  0.069911  0  0.964577  0  0  0.077896  0  1.029539  0  0  0.080745  0  1.027407  0  0  0.101807  0.075713  0  1.031271  0
H  H17  1  0.11568430  0.14407969  0.57972855  1  0  0.069868  0  0.964539  0  0  0.077864  0  1.029496  0  0  0.080712  0  1.027363  0  0  0.101786  0.075689  0  1.031199  0
H  H18  1  0.14407924  0.11568815  0.07972900  1  0  0.069924  0  0.964498  0  0  0.077865  0  1.029507  0  0  0.080709  0  1.027383  0  0  0.101787  0.075693  0  1.031211  0
H  H19  1  0.88430468  0.85589160  0.42026785  1  0  0.069896  0  0.964608  0  0  0.077891  0  1.029561  0  0  0.080743  0  1.027423  0  0  0.10179  0.075699  0  1.031297  0
H  H20  1  0.61229462  0.42817689  0.03076305  1  0  0.056517  0  0.934627  0  0  0.064371  0  1.008768  0  0  0.068508  0  1.002596  0  0  0.104219  0.061285  0  1.013472  0
H  H21  1  0.57183455  0.38771962  0.46924452  1  0  0.056543  0  0.934515  0  0  0.064408  0  1.00866  0  0  0.068547  0  1.002486  0  0  0.104241  0.06132  0  1.013368  0
H  H22  1  0.38772842  0.57184273  0.96924398  1  0  0.05649  0  0.934612  0  0  0.064356  0  1.008744  0  0  0.068495  0  1.002571  0  0  0.104226  0.061269  0  1.013453  0
H  H23  1  0.42816932  0.61226984  0.53075238  1  0  0.056487  0  0.934617  0  0  0.064351  0  1.008739  0  0  0.06849  0  1.002563  0  0  0.104203  0.061265  0  1.013447  0
H  H24  1  0.41632556  0.26518167  0.19091705  1  0  0.071637  0  0.948419  0  0  0.088612  0  1.013114  0  0  0.08905  0  1.013537  0  0  0.097315  0.087917  0  1.013161  0
H  H25  1  0.73480676  0.58367083  0.30908286  1  0  0.071578  0  0.948409  0  0  0.088589  0  1.013093  0  0  0.089027  0  1.013519  0  0  0.097293  0.087896  0  1.013137  0
H  H26  1  0.58366492  0.73482241  0.80908143  1  0  0.0716  0  0.948461  0  0  0.088584  0  1.013147  0  0  0.08902  0  1.013578  0  0  0.097285  0.087889  0  1.013191  0
H  H27  1  0.26518447  0.41633191  0.69091483  1  0  0.071561  0  0.948433  0  0  0.088574  0  1.013118  0  0  0.08901  0  1.013541  0  0  0.097269  0.087879  0  1.013163  0
H  H28  1  0.49419774  0.46703657  0.15604173  1  0  0.058184  0  0.946537  0  0  0.074886  0  1.012006  0  0  0.075578  0  1.012216  0  0  0.090169  0.074227  0  1.011995  0
H  H29  1  0.53295601  0.50579599  0.34396181  1  0  0.058165  0  0.946599  0  0  0.074887  0  1.012067  0  0  0.075582  0  1.012274  0  0  0.090208  0.074231  0  1.012056  0
H  H30  1  0.50579920  0.53296483  0.84395713  1  0  0.058118  0  0.946484  0  0  0.074811  0  1.011978  0  0  0.075501  0  1.012191  0  0  0.090134  0.074155  0  1.011966  0
H  H31  1  0.46704088  0.49420156  0.65604028  1  0  0.058154  0  0.946516  0  0  0.074872  0  1.011994  0  0  0.075564  0  1.0122  0  0  0.090193  0.074215  0  1.011984  0
C  C32  1  0.92309139  0.26586913  0.86649046  1  0  0.111524  0  3.69775  0  0  0.082987  0  3.95112  0  0  0.089304  0  3.966064  0  0  0.030347  0.078044  0  3.942983  0
C  C33  1  0.73413545  0.07691942  0.63350975  1  0  0.11161  0  3.69775  0  0  0.08317  0  3.951014  0  0  0.089433  0  3.966005  0  0  0.030425  0.078224  0  3.942877  0
C  C34  1  0.07692543  0.73414667  0.13351772  1  0  0.111631  0  3.697757  0  0  0.083199  0  3.951036  0  0  0.089483  0  3.965997  0  0  0.030423  0.078258  0  3.942899  0
C  C35  1  0.26585850  0.92308061  0.36648576  1  0  0.111546  0  3.697836  0  0  0.083035  0  3.95117  0  0  0.089354  0  3.966113  0  0  0.030363  0.078087  0  3.943035  0
C  C36  1  0.83497571  0.34214392  0.92716983  1  0  -0.147159  0  3.731344  0  0  -0.164816  0  3.975854  0  0  -0.17094  0  3.996322  0  0  -0.085937  -0.161122  0  3.962604  0
C  C37  1  0.65786443  0.16503951  0.57283706  1  0  -0.147193  0  3.731652  0  0  -0.164884  0  3.976058  0  0  -0.171007  0  3.99653  0  0  -0.086017  -0.161185  0  3.962808  0
C  C38  1  0.16504570  0.65787065  0.07284377  1  0  -0.14714  0  3.731677  0  0  -0.16482  0  3.976108  0  0  -0.170944  0  3.996583  0  0  -0.085979  -0.161125  0  3.962858  0
C  C39  1  0.34213474  0.83495782  0.42715798  1  0  -0.147178  0  3.731525  0  0  -0.164888  0  3.975964  0  0  -0.171014  0  3.996434  0  0  -0.086016  -0.161194  0  3.962712  0
C  C40  1  0.75921217  0.25417254  0.99455092  1  0  0.080453  0  3.801111  0  0  0.095583  0  4.035253  0  0  0.098377  0  4.054294  0  0  -0.001574  0.093665  0  4.023083  0
C  C41  1  0.74583614  0.24079755  0.50545466  1  0  0.080489  0  3.801297  0  0  0.09576  0  4.035233  0  0  0.098557  0  4.054271  0  0  -0.001522  0.093839  0  4.023063  0
C  C42  1  0.24079827  0.74583547  0.00545726  1  0  0.080483  0  3.801216  0  0  0.095663  0  4.035284  0  0  0.098457  0  4.054326  0  0  -0.001532  0.093743  0  4.023113  0
C  C43  1  0.25416873  0.75919844  0.49454156  1  0  0.080433  0  3.801489  0  0  0.095707  0  4.035377  0  0  0.098501  0  4.054418  0  0  -0.00156  0.093784  0  4.023207  0
C  C44  1  0.76921984  0.08704256  0.99376183  1  0  -0.126318  0  3.677382  0  0  -0.148064  0  3.92748  0  0  -0.152066  0  3.943466  0  0  -0.080311  -0.146326  0  3.918004  0
C  C45  1  0.91296079  0.23078318  0.50623952  1  0  -0.126413  0  3.677739  0  0  -0.148212  0  3.927787  0  0  -0.152221  0  3.943779  0  0  -0.080317  -0.146473  0  3.918304  0
C  C46  1  0.23077884  0.91296019  0.00623953  1  0  -0.126394  0  3.677574  0  0  -0.148122  0  3.927628  0  0  -0.152123  0  3.943621  0  0  -0.080322  -0.146379  0  3.918145  0
C  C47  1  0.08703689  0.76919574  0.49375204  1  0  -0.126434  0  3.678017  0  0  -0.148237  0  3.928013  0  0  -0.152243  0  3.944005  0  0  -0.080322  -0.146497  0  3.918529  0
C  C48  1  0.85134454  0.01647379  0.92643544  1  0  0.108699  0  3.712045  0  0  0.084209  0  3.959436  0  0  0.089587  0  3.975011  0  0  0.032326  0.080657  0  3.949788  0
C  C49  1  0.98351939  0.14865034  0.57356114  1  0  0.108837  0  3.711958  0  0  0.084335  0  3.959386  0  0  0.089717  0  3.974954  0  0  0.03238  0.080788  0  3.949731  0
C  C50  1  0.14865270  0.98352496  0.07356245  1  0  0.108803  0  3.712001  0  0  0.084355  0  3.959395  0  0  0.089735  0  3.974968  0  0  0.032373  0.080807  0  3.949745  0
C  C51  1  0.01647229  0.85132878  0.42643563  1  0  0.109033  0  3.71231  0  0  0.084533  0  3.959648  0  0  0.089915  0  3.975225  0  0  0.032527  0.080988  0  3.949987  0
C  C52  1  0.66720689  0.33386025  0.05908756  1  0  0.123526  0  3.654829  0  0  0.08423  0  3.908241  0  0  0.095985  0  3.915195  0  0  0.072322  0.075547  0  3.904903  0
C  C53  1  0.66615108  0.33280783  0.44091500  1  0  0.123487  0  3.654818  0  0  0.084146  0  3.908228  0  0  0.095896  0  3.915184  0  0  0.072288  0.075458  0  3.904884  0
C  C54  1  0.33280772  0.66615287  0.94091722  1  0  0.123575  0  3.654914  0  0  0.084273  0  3.908324  0  0  0.096024  0  3.915282  0  0  0.072339  0.075584  0  3.904978  0
C  C55  1  0.33384872  0.66718425  0.55907957  1  0  0.123441  0  3.654994  0  0  0.084162  0  3.908326  0  0  0.095916  0  3.915282  0  0  0.072343  0.075478  0  3.904981  0
C  C56  1  0.53484919  0.37381392  0.19434442  1  0  -0.007231  0  3.681789  0  0  -0.059972  0  3.93464  0  0  -0.058315  0  3.946658  0  0  -0.076735  -0.060798  0  3.926877  0
C  C57  1  0.62618140  0.46514658  0.30565899  1  0  -0.007118  0  3.681671  0  0  -0.059937  0  3.934553  0  0  -0.058292  0  3.946583  0  0  -0.076742  -0.060775  0  3.926786  0
C  C58  1  0.46514210  0.62618888  0.80565546  1  0  -0.007158  0  3.681722  0  0  -0.059906  0  3.934606  0  0  -0.058256  0  3.946625  0  0  -0.076706  -0.060742  0  3.926836  0
C  C59  1  0.37381355  0.53485616  0.69434053  1  0  -0.007045  0  3.681625  0  0  -0.05982  0  3.934467  0  0  -0.058164  0  3.946488  0  0  -0.076651  -0.060659  0  3.926704  0
I  I60  1  0.87721056  0.64586610  0.72756285  1  0  -0.455059  0  1.427619  0  0  -0.406947  0  1.833225  0  0  -0.428398  0  1.803932  0  0  -0.21558  -0.390234  0  1.850416  0
I  I61  1  0.35413241  0.12278880  0.77243465  1  0  -0.455096  0  1.427607  0  0  -0.406953  0  1.833159  0  0  -0.428411  0  1.803874  0  0  -0.215596  -0.390242  0  1.850347  0
I  I62  1  0.12278885  0.35413529  0.27243699  1  0  -0.455062  0  1.427625  0  0  -0.406932  0  1.833216  0  0  -0.428387  0  1.803931  0  0  -0.215581  -0.390225  0  1.850402  0
I  I63  1  0.64586455  0.87721262  0.22756494  1  0  -0.455065  0  1.427581  0  0  -0.406938  0  1.833167  0  0  -0.428393  0  1.80388  0  0  -0.215594  -0.390229  0  1.850354  0
N  N64  1  0.93057464  0.10379381  0.86435311  1  0  -0.268452  0  3.337599  0  0  -0.198421  0  3.622238  0  0  -0.207082  0  3.629243  0  0  -0.35805  -0.193942  0  3.617778  0
N  N65  1  0.89620341  0.06942382  0.63564356  1  0  -0.268536  0  3.337614  0  0  -0.19854  0  3.622269  0  0  -0.207194  0  3.629269  0  0  -0.358116  -0.194061  0  3.617806  0
N  N66  1  0.06942585  0.89621418  0.13564897  1  0  -0.268641  0  3.337429  0  0  -0.198647  0  3.62207  0  0  -0.20731  0  3.629079  0  0  -0.358134  -0.194171  0  3.617611  0
N  N67  1  0.10378593  0.93056981  0.36435518  1  0  -0.268729  0  3.337635  0  0  -0.198698  0  3.622255  0  0  -0.207368  0  3.629268  0  0  -0.358186  -0.194215  0  3.617791  0
N  N68  1  0.64705376  0.29893434  0.14445339  1  0  -0.250784  0  3.246574  0  0  -0.177945  0  3.533748  0  0  -0.186168  0  3.540127  0  0  -0.356245  -0.173912  0  3.530104  0
N  N69  1  0.70106654  0.35294715  0.35555024  1  0  -0.250811  0  3.246684  0  0  -0.178008  0  3.53397  0  0  -0.186229  0  3.540351  0  0  -0.356268  -0.173951  0  3.530295  0
N  N70  1  0.35293743  0.70106455  0.85554753  1  0  -0.250843  0  3.246722  0  0  -0.178047  0  3.533952  0  0  -0.186267  0  3.54033  0  0  -0.356257  -0.173985  0  3.530275  0
N  N71  1  0.29893738  0.64705673  0.64444669  1  0  -0.250725  0  3.246527  0  0  -0.177996  0  3.53382  0  0  -0.186221  0  3.540196  0  0  -0.35631  -0.173941  0  3.530152  0
