# generated using pymatgen
data_ZnH8C20N4(O3F2)2
_symmetry_space_group_name_H-M   'P 1'
_cell_length_a   5.34200597
_cell_length_b   11.63262348
_cell_length_c   16.61259624
_cell_angle_alpha   95.65087842
_cell_angle_beta   89.99999787
_cell_angle_gamma   90.00003658
_symmetry_Int_Tables_number   1
_chemical_formula_structural   ZnH8C20N4(O3F2)2
_chemical_formula_sum   'Zn2 H16 C40 N8 O12 F8'
_cell_volume   1027.31561253
_cell_formula_units_Z   2
loop_
 _symmetry_equiv_pos_site_id
 _symmetry_equiv_pos_as_xyz
  1  'x, y, z'
loop_
 _atom_site_type_symbol
 _atom_site_label
 _atom_site_symmetry_multiplicity
 _atom_site_fract_x
 _atom_site_fract_y
 _atom_site_fract_z
 _atom_site_occupancy
 _atom_site_pbe_bader_spin_density
 _atom_site_pbe_cm5_charge
 _atom_site_pbe_ddec_charge
 _atom_site_pbe_ddec_spin_density
 _atom_site_pbe_ddec_sum_bond_order
 _atom_site_pbe_magmom
Zn  Zn0  1  0.68949223  0.49999860  0.74999938  1  0  0.705417  0.735174  0  2.339641  0
Zn  Zn1  1  0.31050729  0.49999955  0.24999850  1  0  0.70539  0.735103  0  2.339659  0
H  H2  1  0.03968565  0.31515854  0.68283135  1  0  0.117843  0.097653  0  1.021267  0
H  H3  1  0.96031737  0.31515794  0.18283216  1  0  0.117848  0.097659  0  1.021248  0
H  H4  1  0.96031013  0.68483958  0.31716892  1  0  0.117846  0.097622  0  1.02129  0
H  H5  1  0.03968964  0.68483932  0.81716806  1  0  0.117847  0.09765  0  1.021304  0
H  H6  1  0.36437070  0.18888577  0.73792406  1  0  0.109183  0.125123  0  1.004398  0
H  H7  1  0.63563213  0.18888423  0.23792360  1  0  0.109179  0.125131  0  1.00441  0
H  H8  1  0.63563630  0.81112011  0.26207799  1  0  0.109208  0.125179  0  1.004327  0
H  H9  1  0.36436552  0.81111822  0.76207640  1  0  0.109166  0.125108  0  1.004373  0
H  H10  1  0.80512103  0.43672296  0.91401731  1  0  0.120935  0.093403  0  1.019382  0
H  H11  1  0.19488213  0.43672300  0.41401757  1  0  0.120947  0.093435  0  1.01933  0
H  H12  1  0.19486352  0.56327345  0.08598164  1  0  0.120951  0.093435  0  1.019278  0
H  H13  1  0.80513049  0.56327254  0.58598131  1  0  0.120977  0.093474  0  1.019299  0
H  H14  1  0.12090606  0.31912967  0.97850349  1  0  0.111567  0.134363  0  1.021016  0
H  H15  1  0.87909693  0.31912906  0.47850369  1  0  0.11156  0.134347  0  1.020971  0
H  H16  1  0.87908597  0.68087622  0.02149736  1  0  0.11157  0.134356  0  1.021031  0
H  H17  1  0.12090821  0.68087339  0.52149630  1  0  0.111541  0.134334  0  1.020994  0
C  C18  1  0.06472492  0.31256370  0.74759563  1  0  0.045669  0.101007  0  3.936974  0
C  C19  1  0.93527621  0.31256311  0.24759463  1  0  0.045606  0.100948  0  3.936928  0
C  C20  1  0.93527460  0.68743787  0.25240611  1  0  0.045692  0.101139  0  3.9369  0
C  C21  1  0.06472706  0.68743674  0.75240518  1  0  0.045642  0.101011  0  3.936951  0
C  C22  1  0.24401146  0.24305784  0.77852482  1  0  -0.076177  -0.166496  0  3.903776  0
C  C23  1  0.75599145  0.24305718  0.27852562  1  0  -0.076159  -0.16653  0  3.903899  0
C  C24  1  0.75599555  0.75694719  0.22147597  1  0  -0.076193  -0.166631  0  3.903784  0
C  C25  1  0.24400433  0.75694526  0.72147438  1  0  -0.076155  -0.166494  0  3.903858  0
C  C26  1  0.93220996  0.38123528  0.87684771  1  0  0.05366  0.113753  0  3.917158  0
C  C27  1  0.06779126  0.38123530  0.37684677  1  0  0.053645  0.113674  0  3.917268  0
C  C28  1  0.06777833  0.61876543  0.12315276  1  0  0.053652  0.11372  0  3.917247  0
C  C29  1  0.93221762  0.61876369  0.62315297  1  0  0.053595  0.113616  0  3.917315  0
C  C30  1  0.10719960  0.31493981  0.91285609  1  0  -0.068825  -0.145425  0  3.854842  0
C  C31  1  0.89280339  0.31494006  0.41285636  1  0  -0.068822  -0.145348  0  3.854749  0
C  C32  1  0.89279992  0.68506522  0.08714530  1  0  -0.06883  -0.145408  0  3.854844  0
C  C33  1  0.10719613  0.68506152  0.58714418  1  0  -0.068755  -0.145262  0  3.854771  0
C  C34  1  0.26925852  0.24410205  0.86299122  1  0  0.021943  0.173386  0  4.078986  0
C  C35  1  0.73074063  0.24410053  0.36299075  1  0  0.021966  0.173428  0  4.079091  0
C  C36  1  0.73074848  0.75590902  0.13701062  1  0  0.021908  0.173306  0  4.079051  0
C  C37  1  0.26925702  0.75590537  0.63700950  1  0  0.021862  0.173237  0  4.079408  0
C  C38  1  0.45319313  0.17618806  0.89662034  1  0  -0.015737  -0.060846  0  4.02476  0
C  C39  1  0.54681154  0.17618910  0.39661826  1  0  -0.015678  -0.060817  0  4.0245  0
C  C40  1  0.54682886  0.82382382  0.10338638  1  0  -0.015554  -0.060416  0  4.024032  0
C  C41  1  0.45317113  0.82381417  0.60338541  1  0  -0.015568  -0.060503  0  4.024202  0
C  C42  1  0.61488703  0.11943128  0.92601994  1  0  -0.03428  -0.058705  0  4.114248  0
C  C43  1  0.38510820  0.11942703  0.42602229  1  0  -0.034358  -0.058749  0  4.114069  0
C  C44  1  0.38510126  0.88058239  0.07398149  1  0  -0.034419  -0.059069  0  4.113987  0
C  C45  1  0.61489881  0.88057631  0.57397476  1  0  -0.03438  -0.059002  0  4.113943  0
C  C46  1  0.80385907  0.05895936  0.96250665  1  0  -0.008605  -0.039994  0  4.172676  0
C  C47  1  0.19614356  0.05895769  0.46250558  1  0  -0.008549  -0.040031  0  4.172744  0
C  C48  1  0.19613671  0.94104392  0.03749641  1  0  -0.008585  -0.039982  0  4.172702  0
C  C49  1  0.80386157  0.94103787  0.53749149  1  0  -0.008591  -0.039961  0  4.173068  0
C  C50  1  0.97255477  0.98608710  0.91643770  1  0  0.101134  0.136783  0  4.070711  0
C  C51  1  0.02744354  0.98608540  0.41643422  1  0  0.101181  0.136858  0  4.07061  0
C  C52  1  0.02742978  0.01391703  0.08356663  1  0  0.10121  0.136846  0  4.070673  0
C  C53  1  0.97256160  0.01391016  0.58356285  1  0  0.101144  0.136764  0  4.070773  0
C  C54  1  0.83661461  0.07053345  0.04715149  1  0  0.102508  0.139185  0  4.061904  0
C  C55  1  0.16338246  0.07052975  0.54715157  1  0  0.102445  0.139173  0  4.0617  0
C  C56  1  0.16337742  0.92946811  0.95285085  1  0  0.102514  0.139245  0  4.061579  0
C  C57  1  0.83662267  0.92946580  0.45284671  1  0  0.102502  0.139211  0  4.061836  0
N  N58  1  0.48957476  0.39855037  0.60241370  1  0  0.10103  0.708178  0  4.412482  0
N  N59  1  0.51043025  0.39855139  0.10241283  1  0  0.100925  0.708049  0  4.412594  0
N  N60  1  0.51043225  0.60144000  0.39758419  1  0  0.101049  0.708079  0  4.412859  0
N  N61  1  0.48956740  0.60143985  0.89758453  1  0  0.101081  0.708114  0  4.412809  0
N  N62  1  0.91090148  0.38112670  0.79580970  1  0  -0.332451  -0.236288  0  3.576602  0
N  N63  1  0.08909786  0.38112671  0.29581056  1  0  -0.332415  -0.236215  0  3.576551  0
N  N64  1  0.08909429  0.61887316  0.20418950  1  0  -0.332432  -0.236293  0  3.576528  0
N  N65  1  0.91090540  0.61887142  0.70418851  1  0  -0.332407  -0.23625  0  3.576533  0
O  O66  1  0.42239405  0.47013771  0.66502791  1  0  -0.216645  -0.463402  0  2.137166  0
O  O67  1  0.57760544  0.47013700  0.16502871  1  0  -0.216655  -0.463375  0  2.137197  0
O  O68  1  0.57760173  0.52984918  0.33497153  1  0  -0.216608  -0.463266  0  2.137415  0
O  O69  1  0.42239783  0.52984902  0.83497127  1  0  -0.216675  -0.463378  0  2.137405  0
O  O70  1  0.34129899  0.38164223  0.54522142  1  0  -0.158616  -0.390468  0  1.956934  0
O  O71  1  0.65870413  0.38164500  0.04522248  1  0  -0.158521  -0.390374  0  1.956991  0
O  O72  1  0.65871550  0.61834814  0.45477587  1  0  -0.158624  -0.39049  0  1.956932  0
O  O73  1  0.34128603  0.61834882  0.95477627  1  0  -0.158582  -0.39044  0  1.956949  0
O  O74  1  0.70151946  0.35147831  0.60442634  1  0  -0.180216  -0.446266  0  1.971441  0
O  O75  1  0.29848362  0.35147839  0.10442540  1  0  -0.180186  -0.446207  0  1.971423  0
O  O76  1  0.29849130  0.64851550  0.39557301  1  0  -0.180265  -0.446279  0  1.971564  0
O  O77  1  0.70150841  0.64851629  0.89557282  1  0  -0.18028  -0.446277  0  1.971562  0
F  F78  1  0.95026164  0.97306604  0.83524609  1  0  -0.078174  -0.094824  0  1.408587  0
F  F79  1  0.04974040  0.97306521  0.33524267  1  0  -0.078229  -0.09489  0  1.408564  0
F  F80  1  0.04972290  0.02694242  0.16475736  1  0  -0.078214  -0.094848  0  1.408684  0
F  F81  1  0.95026848  0.02692949  0.66475374  1  0  -0.07814  -0.094779  0  1.408629  0
F  F82  1  0.67491697  0.13640280  0.09381132  1  0  -0.068501  -0.087744  0  1.439819  0
F  F83  1  0.32507458  0.13639653  0.59381482  1  0  -0.068482  -0.087723  0  1.439719  0
F  F84  1  0.32507132  0.86360051  0.90618874  1  0  -0.068515  -0.087786  0  1.43977  0
F  F85  1  0.67493056  0.86359902  0.40618406  1  0  -0.068485  -0.087723  0  1.439808  0
