# generated using pymatgen
data_CsH7(C3O)3
_symmetry_space_group_name_H-M   'P 1'
_cell_length_a   6.68186030
_cell_length_b   8.55067390
_cell_length_c   17.09338502
_cell_angle_alpha   90.00012851
_cell_angle_beta   90.00012614
_cell_angle_gamma   107.93228901
_symmetry_Int_Tables_number   1
_chemical_formula_structural   CsH7(C3O)3
_chemical_formula_sum   'Cs4 H28 C36 O12'
_cell_volume   929.17723860
_cell_formula_units_Z   4
loop_
 _symmetry_equiv_pos_site_id
 _symmetry_equiv_pos_as_xyz
  1  'x, y, z'
loop_
 _atom_site_type_symbol
 _atom_site_label
 _atom_site_symmetry_multiplicity
 _atom_site_fract_x
 _atom_site_fract_y
 _atom_site_fract_z
 _atom_site_occupancy
 _atom_site_hle17_bader_spin_density
 _atom_site_hle17_ddec_charge
 _atom_site_hle17_ddec_spin_density
 _atom_site_hle17_ddec_sum_bond_order
 _atom_site_hle17_magmom
 _atom_site_hse06_10hf_bader_spin_density
 _atom_site_hse06_10hf_ddec_charge
 _atom_site_hse06_10hf_ddec_spin_density
 _atom_site_hse06_10hf_ddec_sum_bond_order
 _atom_site_hse06_10hf_magmom
 _atom_site_hse06_bader_spin_density
 _atom_site_hse06_ddec_charge
 _atom_site_hse06_ddec_spin_density
 _atom_site_hse06_ddec_sum_bond_order
 _atom_site_hse06_magmom
 _atom_site_pbe_bader_spin_density
 _atom_site_pbe_cm5_charge
 _atom_site_pbe_ddec_charge
 _atom_site_pbe_ddec_spin_density
 _atom_site_pbe_ddec_sum_bond_order
 _atom_site_pbe_magmom
Cs  Cs0  1  0.21978938  0.04474788  0.59227017  1  0  0.935941  0  0.648193  0  0  0.876863  0  0.89431  0  0  0.887693  0  0.87759  0  0  0.8942  0.868669  0  0.90635  0
Cs  Cs1  1  0.28021277  0.45525085  0.09227058  1  0  0.935936  0  0.648207  0  0  0.876856  0  0.894326  0  0  0.887688  0  0.87761  0  0  0.894197  0.868669  0  0.90637  0
Cs  Cs2  1  0.78021241  0.95524966  0.40772937  1  0  0.935929  0  0.648218  0  0  0.876842  0  0.894339  0  0  0.887672  0  0.877621  0  0  0.894195  0.86865  0  0.906382  0
Cs  Cs3  1  0.71979251  0.54474790  0.90772954  1  0  0.935946  0  0.648185  0  0  0.876865  0  0.894305  0  0  0.887696  0  0.877589  0  0  0.894179  0.868672  0  0.906347  0
H  H4  1  0.81332276  0.27167154  0.69255730  1  0  0.10451  0  0.948363  0  0  0.117859  0  1.003095  0  0  0.120961  0  1.001582  0  0  0.108985  0.115624  0  1.004268  0
H  H5  1  0.68667909  0.22833220  0.19255912  1  0  0.10454  0  0.94842  0  0  0.117907  0  1.003134  0  0  0.121011  0  1.00162  0  0  0.109027  0.115654  0  1.004318  0
H  H6  1  0.18667754  0.72833341  0.30744165  1  0  0.104557  0  0.948414  0  0  0.117941  0  1.003102  0  0  0.121044  0  1.00159  0  0  0.109016  0.115666  0  1.004314  0
H  H7  1  0.31331723  0.77167031  0.80744217  1  0  0.104598  0  0.948401  0  0  0.117986  0  1.003071  0  0  0.12109  0  1.001555  0  0  0.109047  0.115711  0  1.004289  0
H  H8  1  0.53827474  0.20356986  0.79477212  1  0  0.090544  0  0.961619  0  0  0.101783  0  1.021722  0  0  0.104355  0  1.020952  0  0  0.102501  0.099876  0  1.022424  0
H  H9  1  0.96172845  0.29642836  0.29477426  1  0  0.09051  0  0.961645  0  0  0.101765  0  1.021741  0  0  0.104319  0  1.020992  0  0  0.102483  0.099863  0  1.022443  0
H  H10  1  0.46172755  0.79643261  0.20522566  1  0  0.090503  0  0.961645  0  0  0.10175  0  1.021745  0  0  0.104317  0  1.020982  0  0  0.102483  0.099844  0  1.022452  0
H  H11  1  0.03827285  0.70357535  0.70522704  1  0  0.090459  0  0.961664  0  0  0.101743  0  1.021729  0  0  0.104316  0  1.020957  0  0  0.102467  0.099833  0  1.022432  0
H  H12  1  0.23795749  0.31959719  0.78846846  1  0  0.100969  0  0.978257  0  0  0.110447  0  1.041394  0  0  0.113925  0  1.039148  0  0  0.104273  0.10792  0  1.043072  0
H  H13  1  0.26204180  0.18039911  0.28846912  1  0  0.101019  0  0.978242  0  0  0.110444  0  1.041443  0  0  0.11392  0  1.039199  0  0  0.104275  0.107919  0  1.043114  0
H  H14  1  0.76203734  0.68039793  0.21153108  1  0  0.101036  0  0.978207  0  0  0.110462  0  1.04141  0  0  0.113939  0  1.039165  0  0  0.104305  0.107937  0  1.043083  0
H  H15  1  0.73795850  0.81960214  0.71153101  1  0  0.10102  0  0.978241  0  0  0.110447  0  1.041437  0  0  0.113924  0  1.039191  0  0  0.104283  0.107918  0  1.043109  0
H  H16  1  0.21295860  0.49772912  0.67578753  1  0  0.090631  0  0.952346  0  0  0.103435  0  1.009361  0  0  0.105631  0  1.009349  0  0  0.103103  0.10181  0  1.00953  0
H  H17  1  0.28703728  0.00227142  0.17578684  1  0  0.090624  0  0.952474  0  0  0.103442  0  1.009467  0  0  0.105639  0  1.009453  0  0  0.103112  0.101818  0  1.009635  0
H  H18  1  0.78703027  0.50226235  0.32421142  1  0  0.090578  0  0.952419  0  0  0.103423  0  1.009381  0  0  0.105617  0  1.009372  0  0  0.103103  0.101798  0  1.00955  0
H  H19  1  0.71296153  0.99773354  0.82421212  1  0  0.09059  0  0.952387  0  0  0.103408  0  1.009387  0  0  0.105603  0  1.009377  0  0  0.103084  0.101785  0  1.009555  0
H  H20  1  0.47918873  0.55721757  0.57112087  1  0  0.100428  0  0.958408  0  0  0.113352  0  1.016319  0  0  0.115868  0  1.01588  0  0  0.10679  0.11153  0  1.016708  0
H  H21  1  0.02080908  0.94278586  0.07112105  1  0  0.100445  0  0.958418  0  0  0.113381  0  1.016306  0  0  0.115896  0  1.015865  0  0  0.106812  0.111563  0  1.016696  0
H  H22  1  0.52080063  0.44278252  0.42887750  1  0  0.100419  0  0.958427  0  0  0.11334  0  1.016344  0  0  0.115863  0  1.015881  0  0  0.106811  0.111521  0  1.016734  0
H  H23  1  0.97919321  0.05722031  0.92887849  1  0  0.100431  0  0.958414  0  0  0.113363  0  1.016315  0  0  0.115886  0  1.015858  0  0  0.106802  0.111542  0  1.016708  0
H  H24  1  0.66903453  0.00714735  0.59027366  1  0  0.405903  0  0.90848  0  0  0.376509  0  0.97253  0  0  0.387053  0  0.956675  0  0  0.281732  0.369039  0  0.983762  0
H  H25  1  0.83096748  0.49285081  0.09027299  1  0  0.405896  0  0.908491  0  0  0.376501  0  0.972544  0  0  0.387043  0  0.956692  0  0  0.281741  0.36903  0  0.983779  0
H  H26  1  0.33096677  0.99284897  0.40972705  1  0  0.405876  0  0.908518  0  0  0.376488  0  0.97256  0  0  0.387029  0  0.956707  0  0  0.281731  0.36902  0  0.98379  0
H  H27  1  0.16903730  0.50714671  0.90972772  1  0  0.405905  0  0.908483  0  0  0.376514  0  0.972529  0  0  0.387057  0  0.956673  0  0  0.281742  0.369044  0  0.983762  0
H  H28  1  0.64850153  0.82075910  0.58686813  1  0  0.417892  0  0.891628  0  0  0.3899  0  0.95262  0  0  0.399924  0  0.937652  0  0  0.28582  0.382802  0  0.96321  0
H  H29  1  0.85150373  0.67924012  0.08686828  1  0  0.417726  0  0.891842  0  0  0.389775  0  0.952765  0  0  0.399799  0  0.937789  0  0  0.285782  0.382687  0  0.963342  0
H  H30  1  0.35150225  0.17923966  0.41313200  1  0  0.417745  0  0.891808  0  0  0.389793  0  0.952734  0  0  0.399816  0  0.937759  0  0  0.285795  0.382701  0  0.963321  0
H  H31  1  0.14850304  0.32075862  0.91313302  1  0  0.41788  0  0.891642  0  0  0.389884  0  0.952643  0  0  0.399907  0  0.937677  0  0  0.285807  0.382785  0  0.963235  0
C  C32  1  0.91787586  0.33804273  0.53381586  1  0  0.304994  0  3.814015  0  0  0.283962  0  4.087405  0  0  0.305027  0  4.093558  0  0  0.106385  0.269868  0  4.082689  0
C  C33  1  0.58212518  0.16195754  0.03381752  1  0  0.305078  0  3.813891  0  0  0.284008  0  4.087286  0  0  0.305076  0  4.093441  0  0  0.106443  0.269922  0  4.082566  0
C  C34  1  0.08212196  0.66195608  0.46618193  1  0  0.305011  0  3.813967  0  0  0.283975  0  4.08737  0  0  0.30504  0  4.093533  0  0  0.106398  0.269892  0  4.082645  0
C  C35  1  0.41787910  0.83804245  0.96618261  1  0  0.305113  0  3.813858  0  0  0.284062  0  4.087286  0  0  0.305136  0  4.09343  0  0  0.10645  0.269984  0  4.082553  0
C  C36  1  0.83272331  0.46027699  0.56207770  1  0  -0.256667  0  3.803702  0  0  -0.25897  0  4.068253  0  0  -0.280152  0  4.097041  0  0  -0.062357  -0.244764  0  4.048532  0
C  C37  1  0.66727946  0.03971975  0.06208105  1  0  -0.256678  0  3.803944  0  0  -0.258964  0  4.068474  0  0  -0.280152  0  4.09726  0  0  -0.062457  -0.244769  0  4.048761  0
C  C38  1  0.16727102  0.53972061  0.43792067  1  0  -0.256531  0  3.803772  0  0  -0.258854  0  4.068328  0  0  -0.280042  0  4.097112  0  0  -0.062339  -0.244656  0  4.048607  0
C  C39  1  0.33272134  0.96027903  0.93792083  1  0  -0.256743  0  3.804048  0  0  -0.259087  0  4.068592  0  0  -0.280276  0  4.097377  0  0  -0.062446  -0.244894  0  4.04888  0
C  C40  1  0.90872259  0.62057005  0.52980628  1  0  0.298077  0  3.818131  0  0  0.278166  0  4.090943  0  0  0.298742  0  4.097814  0  0  0.103117  0.264544  0  4.085562  0
C  C41  1  0.59127474  0.87943255  0.02980761  1  0  0.298099  0  3.818196  0  0  0.278179  0  4.091015  0  0  0.298758  0  4.097872  0  0  0.103135  0.264565  0  4.085629  0
C  C42  1  0.09127373  0.37943246  0.47019326  1  0  0.298137  0  3.81813  0  0  0.278215  0  4.090971  0  0  0.298806  0  4.097816  0  0  0.103147  0.264608  0  4.085586  0
C  C43  1  0.40872257  0.12056872  0.97019251  1  0  0.298043  0  3.818328  0  0  0.27819  0  4.091063  0  0  0.298772  0  4.097925  0  0  0.103141  0.26458  0  4.085674  0
C  C44  1  0.66987099  0.42148782  0.62391615  1  0  0.101711  0  3.778837  0  0  0.117961  0  4.010879  0  0  0.12245  0  4.033815  0  0  -0.014272  0.114836  0  3.995535  0
C  C45  1  0.83013179  0.07851178  0.12391792  1  0  0.10161  0  3.779159  0  0  0.11789  0  4.011148  0  0  0.122382  0  4.034083  0  0  -0.014279  0.114763  0  3.995812  0
C  C46  1  0.33012284  0.57850855  0.37608222  1  0  0.101426  0  3.779066  0  0  0.117717  0  4.011079  0  0  0.122205  0  4.034017  0  0  -0.014313  0.1146  0  3.99572  0
C  C47  1  0.16987548  0.92148819  0.87608337  1  0  0.101576  0  3.77916  0  0  0.117887  0  4.011131  0  0  0.122379  0  4.034069  0  0  -0.014282  0.114767  0  3.995779  0
C  C48  1  0.68193629  0.32130952  0.68829247  1  0  -0.133893  0  3.752741  0  0  -0.151688  0  3.994874  0  0  -0.15425  0  4.01384  0  0  -0.101829  -0.149949  0  3.982109  0
C  C49  1  0.81806254  0.17869051  0.18829376  1  0  -0.133901  0  3.752962  0  0  -0.151735  0  3.995078  0  0  -0.154297  0  4.01404  0  0  -0.101862  -0.149968  0  3.982316  0
C  C50  1  0.31806102  0.67869175  0.31170707  1  0  -0.13385  0  3.752805  0  0  -0.151692  0  3.994905  0  0  -0.154255  0  4.013871  0  0  -0.10184  -0.149918  0  3.982151  0
C  C51  1  0.18193975  0.82131196  0.81170637  1  0  -0.133936  0  3.752936  0  0  -0.151789  0  3.995039  0  0  -0.154354  0  4.014007  0  0  -0.101867  -0.150016  0  3.982294  0
C  C52  1  0.52746499  0.28393465  0.74638269  1  0  -0.128663  0  3.881088  0  0  -0.138683  0  4.131862  0  0  -0.140746  0  4.154255  0  0  -0.131833  -0.137195  0  4.116612  0
C  C53  1  0.97253681  0.21606450  0.24638415  1  0  -0.128517  0  3.881092  0  0  -0.138541  0  4.131839  0  0  -0.140587  0  4.154236  0  0  -0.131763  -0.13706  0  4.116591  0
C  C54  1  0.47253581  0.71606413  0.25361627  1  0  -0.128619  0  3.881009  0  0  -0.138636  0  4.131776  0  0  -0.140693  0  4.154171  0  0  -0.13183  -0.13715  0  4.116522  0
C  C55  1  0.02746499  0.78393674  0.75361773  1  0  -0.128505  0  3.881087  0  0  -0.138555  0  4.131851  0  0  -0.140617  0  4.154245  0  0  -0.131795  -0.137061  0  4.116577  0
C  C56  1  0.35807468  0.34762041  0.74291523  1  0  -0.124728  0  3.83974  0  0  -0.138684  0  4.087625  0  0  -0.140896  0  4.109125  0  0  -0.124118  -0.137051  0  4.072946  0
C  C57  1  0.14192673  0.15237436  0.24291634  1  0  -0.124928  0  3.839642  0  0  -0.138855  0  4.08757  0  0  -0.141067  0  4.109065  0  0  -0.124159  -0.137221  0  4.072892  0
C  C58  1  0.64192264  0.65236977  0.25708431  1  0  -0.124861  0  3.839609  0  0  -0.138794  0  4.087547  0  0  -0.141006  0  4.109045  0  0  -0.12415  -0.137166  0  4.072874  0
C  C59  1  0.85807606  0.84762565  0.75708378  1  0  -0.124849  0  3.839619  0  0  -0.138779  0  4.087553  0  0  -0.140992  0  4.109054  0  0  -0.124119  -0.13714  0  4.072864  0
C  C60  1  0.34470732  0.44796539  0.67978852  1  0  -0.085544  0  3.808849  0  0  -0.095105  0  4.05589  0  0  -0.097369  0  4.07824  0  0  -0.106205  -0.093561  0  4.040764  0
C  C61  1  0.15529257  0.05203021  0.17978660  1  0  -0.085423  0  3.808832  0  0  -0.09499  0  4.055854  0  0  -0.097252  0  4.078203  0  0  -0.106161  -0.093436  0  4.04072  0
C  C62  1  0.65528453  0.55202605  0.32021336  1  0  -0.085435  0  3.808797  0  0  -0.095016  0  4.055831  0  0  -0.09728  0  4.078183  0  0  -0.106193  -0.093468  0  4.040702  0
C  C63  1  0.84471171  0.94797347  0.82021235  1  0  -0.085472  0  3.808817  0  0  -0.095037  0  4.055845  0  0  -0.097299  0  4.078196  0  0  -0.106184  -0.093495  0  4.04072  0
C  C64  1  0.49687013  0.48306103  0.62085528  1  0  -0.124864  0  3.723819  0  0  -0.144496  0  3.967928  0  0  -0.147284  0  3.987945  0  0  -0.100915  -0.142629  0  3.954553  0
C  C65  1  0.00312580  0.01693670  0.12085436  1  0  -0.124901  0  3.723905  0  0  -0.144552  0  3.968017  0  0  -0.147336  0  3.988035  0  0  -0.100971  -0.142689  0  3.954648  0
C  C66  1  0.50312073  0.51693536  0.37914543  1  0  -0.124782  0  3.723947  0  0  -0.144429  0  3.968055  0  0  -0.147211  0  3.988076  0  0  -0.100935  -0.142563  0  3.954676  0
C  C67  1  0.99687500  0.98306578  0.87914693  1  0  -0.124821  0  3.723849  0  0  -0.144473  0  3.967937  0  0  -0.14726  0  3.987956  0  0  -0.10092  -0.142608  0  3.954567  0
O  O68  1  0.84736838  0.74057924  0.55069394  1  0  -0.601234  0  2.104321  0  0  -0.546322  0  2.336484  0  0  -0.567412  0  2.332751  0  0  -0.41947  -0.531473  0  2.338388  0
O  O69  1  0.65262963  0.75942473  0.05069343  1  0  -0.601255  0  2.104346  0  0  -0.546348  0  2.33648  0  0  -0.567447  0  2.332768  0  0  -0.419462  -0.531505  0  2.338395  0
O  O70  1  0.15262894  0.25942203  0.44930560  1  0  -0.601269  0  2.104234  0  0  -0.546366  0  2.336392  0  0  -0.567464  0  2.332658  0  0  -0.419491  -0.531532  0  2.338313  0
O  O71  1  0.34737316  0.24057897  0.94930670  1  0  -0.601246  0  2.104408  0  0  -0.546357  0  2.336549  0  0  -0.567452  0  2.332816  0  0  -0.419511  -0.531511  0  2.338451  0
O  O72  1  0.86029895  0.18997138  0.55668892  1  0  -0.602935  0  2.109976  0  0  -0.546562  0  2.33947  0  0  -0.567042  0  2.334304  0  0  -0.412482  -0.532274  0  2.342761  0
O  O73  1  0.63970577  0.31003024  0.05668963  1  0  -0.602947  0  2.110018  0  0  -0.546569  0  2.339525  0  0  -0.567049  0  2.334364  0  0  -0.41246  -0.532286  0  2.342816  0
O  O74  1  0.13970136  0.81002987  0.44331179  1  0  -0.602945  0  2.110062  0  0  -0.546579  0  2.339563  0  0  -0.567059  0  2.334399  0  0  -0.412479  -0.532295  0  2.342846  0
O  O75  1  0.36029901  0.68997098  0.94330932  1  0  -0.602964  0  2.109958  0  0  -0.546586  0  2.339468  0  0  -0.567065  0  2.334299  0  0  -0.412468  -0.532302  0  2.34275  0
O  O76  1  0.56691415  0.89680909  0.59757930  1  0  -0.893083  0  1.753353  0  0  -0.849731  0  1.906686  0  0  -0.86649  0  1.878045  0  0  -0.723443  -0.837641  0  1.926663  0
O  O77  1  0.93308971  0.60319020  0.09757826  1  0  -0.892903  0  1.753573  0  0  -0.849576  0  1.906881  0  0  -0.866326  0  1.878252  0  0  -0.723409  -0.83749  0  1.926842  0
O  O78  1  0.43308764  0.10318845  0.40242258  1  0  -0.892908  0  1.753575  0  0  -0.849563  0  1.906835  0  0  -0.866315  0  1.878209  0  0  -0.723411  -0.837474  0  1.926794  0
O  O79  1  0.06691607  0.39680978  0.90242245  1  0  -0.893059  0  1.753366  0  0  -0.849717  0  1.906714  0  0  -0.866475  0  1.878076  0  0  -0.723424  -0.837619  0  1.926695  0
