# generated using pymatgen
data_ZnH24C22(NO)4
_symmetry_space_group_name_H-M   'P 1'
_cell_length_a   8.79799844
_cell_length_b   10.78609056
_cell_length_c   14.12600000
_cell_angle_alpha   75.23159578
_cell_angle_beta   77.57404101
_cell_angle_gamma   79.89247843
_symmetry_Int_Tables_number   1
_chemical_formula_structural   ZnH24C22(NO)4
_chemical_formula_sum   'Zn2 H48 C44 N8 O8'
_cell_volume   1255.47899706
_cell_formula_units_Z   2
loop_
 _symmetry_equiv_pos_site_id
 _symmetry_equiv_pos_as_xyz
  1  'x, y, z'
loop_
 _atom_site_type_symbol
 _atom_site_label
 _atom_site_symmetry_multiplicity
 _atom_site_fract_x
 _atom_site_fract_y
 _atom_site_fract_z
 _atom_site_occupancy
 _atom_site_hle17_bader_spin_density
 _atom_site_hle17_ddec_charge
 _atom_site_hle17_ddec_spin_density
 _atom_site_hle17_ddec_sum_bond_order
 _atom_site_hle17_magmom
 _atom_site_hse06_10hf_bader_spin_density
 _atom_site_hse06_10hf_ddec_charge
 _atom_site_hse06_10hf_ddec_spin_density
 _atom_site_hse06_10hf_ddec_sum_bond_order
 _atom_site_hse06_10hf_magmom
 _atom_site_hse06_bader_spin_density
 _atom_site_hse06_ddec_charge
 _atom_site_hse06_ddec_spin_density
 _atom_site_hse06_ddec_sum_bond_order
 _atom_site_hse06_magmom
 _atom_site_pbe_bader_charge
 _atom_site_pbe_bader_spin_density
 _atom_site_pbe_cm5_charge
 _atom_site_pbe_ddec_charge
 _atom_site_pbe_ddec_spin_density
 _atom_site_pbe_ddec_sum_bond_order
 _atom_site_pbe_magmom
Zn  Zn0  1  0.60081900  0.07477746  0.19208040  1  0  1.011007  0  1.880361  0  0  0.817383  0  2.374055  0  0  0.864147  0  2.317676  0  1.250134  0  0.690296  0.784756  0  2.41287  0
Zn  Zn1  1  0.39918296  0.92521740  0.80791722  1  0  1.010982  0  1.880358  0  0  0.817342  0  2.373999  0  0  0.864118  0  2.317627  0  1.250143  0  0.690267  0.784723  0  2.412813  0
H  H2  1  0.41329943  0.31477840  0.29780847  1  0  0.113559  0  0.972399  0  0  0.121355  0  1.038572  0  0  0.124642  0  1.036492  0  0.106657  0  0.105302  0.119075  0  1.040068  0
H  H3  1  0.58669093  0.68523871  0.70219558  1  0  0.11348  0  0.97244  0  0  0.121309  0  1.038587  0  0  0.124597  0  1.036504  0  0.106876  0  0.105287  0.119029  0  1.040083  0
H  H4  1  0.32742540  0.44263730  0.43068202  1  0  0.088649  0  0.948907  0  0  0.102805  0  1.001411  0  0  0.105539  0  1.000655  0  0.043959  0  0.100945  0.100752  0  1.002318  0
H  H5  1  0.67257502  0.55737497  0.56932163  1  0  0.088646  0  0.948912  0  0  0.102807  0  1.001406  0  0  0.105542  0  1.000647  0  0.043736  0  0.100941  0.100752  0  1.002315  0
H  H6  1  0.41985850  0.36727014  0.59123168  1  0  0.099446  0  0.935834  0  0  0.113341  0  0.987824  0  0  0.11615  0  0.986865  0  0.078167  0  0.104454  0.111067  0  0.989357  0
H  H7  1  0.58014150  0.63273729  0.40877226  1  0  0.099382  0  0.935839  0  0  0.113347  0  0.98774  0  0  0.116158  0  0.986789  0  0.078346  0  0.104445  0.11107  0  0.989277  0
H  H8  1  0.60469051  0.16477878  0.62607171  1  0  0.116268  0  0.945728  0  0  0.126131  0  1.007496  0  0  0.129416  0  1.00584  0  0.085858  0  0.110037  0.123893  0  1.008513  0
H  H9  1  0.39530124  0.83522189  0.37393040  1  0  0.116254  0  0.945832  0  0  0.126137  0  1.007591  0  0  0.129399  0  1.005961  0  0.08578  0  0.110017  0.123905  0  1.008603  0
H  H10  1  0.77097593  0.90057966  0.36209234  1  0  0.117023  0  0.961968  0  0  0.125178  0  1.024623  0  0  0.128293  0  1.0208  0  0.231109  0  0.140388  0.122746  0  1.027741  0
H  H11  1  0.22902941  0.09943840  0.63789960  1  0  0.116988  0  0.961998  0  0  0.125168  0  1.024612  0  0  0.128282  0  1.020795  0  0.230983  0  0.140422  0.122737  0  1.027725  0
H  H12  1  0.82695883  0.83840335  0.53669175  1  0  0.08114  0  0.90723  0  0  0.101979  0  0.959256  0  0  0.102303  0  0.959763  0  0.078562  0  0.118263  0.101691  0  0.95902  0
H  H13  1  0.17301501  0.16160022  0.46330936  1  0  0.081067  0  0.907285  0  0  0.101888  0  0.95937  0  0  0.102214  0  0.959879  0  0.078416  0  0.118233  0.101593  0  0.95913  0
H  H14  1  0.71914104  0.92761196  0.62364585  1  0  0.086379  0  0.943008  0  0  0.09928  0  1.010133  0  0  0.099776  0  1.010532  0  0.104169  0  0.113499  0.098829  0  1.009993  0
H  H15  1  0.28084556  0.07239934  0.37635488  1  0  0.086377  0  0.943037  0  0  0.099323  0  1.01009  0  0  0.099821  0  1.010491  0  0.104285  0  0.113482  0.098866  0  1.009943  0
H  H16  1  0.52889299  0.11155910  0.97710972  1  0  0.115678  0  0.94247  0  0  0.127494  0  0.999692  0  0  0.130521  0  0.998152  0  0.090436  0  0.111157  0.125301  0  1.000829  0
H  H17  1  0.47112582  0.88843964  0.02287074  1  0  0.115685  0  0.942368  0  0  0.127464  0  0.999649  0  0  0.130488  0  0.998096  0  0.090326  0  0.111158  0.125244  0  1.000814  0
H  H18  1  0.50945526  0.21539220  0.80115814  1  0  0.105147  0  0.962876  0  0  0.114304  0  1.025499  0  0  0.117404  0  1.023826  0  0.112269  0  0.100887  0.11197  0  1.026993  0
H  H19  1  0.49057373  0.78460847  0.19882198  1  0  0.104931  0  0.96314  0  0  0.11424  0  1.025604  0  0  0.117336  0  1.023937  0  0.112083  0  0.10088  0.111906  0  1.027099  0
H  H20  1  0.58812275  0.43286863  0.72321239  1  0  0.078774  0  0.980176  0  0  0.091188  0  1.040644  0  0  0.093312  0  1.040547  0  0.037249  0  0.093781  0.089751  0  1.040679  0
H  H21  1  0.41190665  0.56713687  0.27677524  1  0  0.078641  0  0.980326  0  0  0.091137  0  1.040703  0  0  0.093258  0  1.040604  0  0.037265  0  0.093778  0.0897  0  1.040738  0
H  H22  1  0.69183667  0.55609600  0.81978543  1  0  0.122353  0  0.962845  0  0  0.133145  0  1.023158  0  0  0.136527  0  1.020843  0  0.111558  0  0.107575  0.130475  0  1.025335  0
H  H23  1  0.30816976  0.44390757  0.18021415  1  0  0.122362  0  0.96284  0  0  0.133189  0  1.023108  0  0  0.136569  0  1.020795  0  0.111513  0  0.107608  0.130514  0  1.025297  0
H  H24  1  0.71828609  0.35535923  0.17968742  1  0  0.096424  0  0.916289  0  0  0.111048  0  0.970402  0  0  0.113205  0  0.967834  0  0.151477  0  0.144066  0.10942  0  0.972272  0
H  H25  1  0.28171564  0.64462211  0.82031429  1  0  0.09638  0  0.916202  0  0  0.110979  0  0.970365  0  0  0.113133  0  0.967797  0  0.151451  0  0.144035  0.109363  0  0.972221  0
H  H26  1  0.75546621  0.58656594  0.08495486  1  0  0.07577  0  0.921049  0  0  0.094169  0  0.979007  0  0  0.094174  0  0.979942  0  0.080406  0  0.112926  0.094069  0  0.978423  0
H  H27  1  0.24451277  0.41342699  0.91505472  1  0  0.075603  0  0.921157  0  0  0.094011  0  0.979165  0  0  0.094022  0  0.980103  0  0.080648  0  0.112864  0.093914  0  0.978583  0
H  H28  1  0.71033221  0.63875897  0.96326149  1  0  0.092976  0  0.94297  0  0  0.105791  0  1.008059  0  0  0.106287  0  1.009085  0  0.110894  0  0.113856  0.105399  0  1.007328  0
H  H29  1  0.28965709  0.36123493  0.03674581  1  0  0.092923  0  0.94297  0  0  0.105752  0  1.008083  0  0  0.106249  0  1.009113  0  0.111618  0  0.113867  0.105367  0  1.007354  0
H  H30  1  0.15327701  0.96403204  0.16314104  1  0  0.134514  0  0.954573  0  0  0.154203  0  1.011374  0  0  0.156133  0  1.011823  0  0.038289  0  0.093939  0.152887  0  1.010957  0
H  H31  1  0.84673699  0.03596766  0.83683774  1  0  0.134538  0  0.954573  0  0  0.154186  0  1.011411  0  0  0.156115  0  1.011858  0  0.038454  0  0.093944  0.15287  0  1.010994  0
H  H32  1  0.11988930  0.11917682  0.08479864  1  0  0.137267  0  0.94361  0  0  0.159544  0  0.999657  0  0  0.161621  0  0.999458  0  0.09144  0  0.09947  0.158097  0  0.999758  0
H  H33  1  0.88012028  0.88083641  0.91519580  1  0  0.137286  0  0.943569  0  0  0.159559  0  0.999621  0  0  0.161636  0  0.999424  0  0.091635  0  0.09947  0.158112  0  0.999722  0
H  H34  1  0.02703505  0.09297397  0.21097523  1  0  0.118162  0  0.955251  0  0  0.134063  0  1.021307  0  0  0.136365  0  1.020438  0  0.038162  0  0.087148  0.132451  0  1.021876  0
H  H35  1  0.97296359  0.90701220  0.78902028  1  0  0.118126  0  0.955282  0  0  0.134023  0  1.021345  0  0  0.136322  0  1.020477  0  0.038294  0  0.087154  0.132415  0  1.021911  0
H  H36  1  0.03109463  0.85973105  0.04695488  1  0  0.138061  0  0.949002  0  0  0.153467  0  1.01348  0  0  0.156604  0  1.011736  0  0.06685  0  0.093401  0.151185  0  1.014791  0
H  H37  1  0.96891912  0.14026285  0.95305834  1  0  0.138049  0  0.948869  0  0  0.153445  0  1.013357  0  0  0.156581  0  1.011612  0  0.066933  0  0.093385  0.151167  0  1.014662  0
H  H38  1  0.94497583  0.71239861  0.09085707  1  0  0.118902  0  0.972284  0  0  0.139835  0  1.034837  0  0  0.141805  0  1.034649  0  0.02675  0  0.090111  0.138432  0  1.035046  0
H  H39  1  0.05503514  0.28759819  0.90915100  1  0  0.118883  0  0.972263  0  0  0.139852  0  1.03478  0  0  0.14182  0  1.034593  0  0.027147  0  0.090149  0.138447  0  1.034991  0
H  H40  1  0.06153231  0.75170241  0.16315643  1  0  0.125824  0  0.956693  0  0  0.144936  0  1.016929  0  0  0.146771  0  1.017298  0  0.059539  0  0.090815  0.143614  0  1.016741  0
H  H41  1  0.93847489  0.24828860  0.83685681  1  0  0.125725  0  0.956768  0  0  0.144795  0  1.017074  0  0  0.14663  0  1.017445  0  0.059387  0  0.090721  0.143471  0  1.01689  0
H  H42  1  0.98744753  0.64516927  0.94850560  1  0  0.073016  0  0.949445  0  0  0.091205  0  1.01248  0  0  0.091465  0  1.013263  0  0.024831  0  0.0954  0.090933  0  1.011985  0
H  H43  1  0.01253884  0.35482850  0.05151195  1  0  0.072914  0  0.949487  0  0  0.091168  0  1.012437  0  0  0.09143  0  1.013215  0  0.024922  0  0.09539  0.090895  0  1.011942  0
H  H44  1  0.91040139  0.08824673  0.56953157  1  0  0.07289  0  0.921246  0  0  0.094947  0  0.974448  0  0  0.095402  0  0.975279  0  0.025847  0  0.096292  0.094542  0  0.973936  0
H  H45  1  0.08959531  0.91175201  0.43046388  1  0  0.072962  0  0.921301  0  0  0.095025  0  0.974512  0  0  0.095481  0  0.975343  0  0.025795  0  0.096348  0.094616  0  0.974001  0
H  H46  1  0.96392149  0.52158422  0.89431803  1  0  0.075806  0  0.924848  0  0  0.096722  0  0.981333  0  0  0.097574  0  0.981318  0  0.050144  0  0.096102  0.095936  0  0.981706  0
H  H47  1  0.03607273  0.47841549  0.10569385  1  0  0.075843  0  0.924855  0  0  0.096657  0  0.98143  0  0  0.097516  0  0.981413  0  0.050096  0  0.096062  0.095873  0  0.981802  0
H  H48  1  0.00186565  0.92977451  0.60973692  1  0  0.07898  0  0.934859  0  0  0.099844  0  0.988943  0  0  0.100137  0  0.990031  0  0.036982  0  0.098528  0.099557  0  0.988264  0
H  H49  1  0.99812640  0.07022423  0.39025703  1  0  0.07891  0  0.934959  0  0  0.099777  0  0.989059  0  0  0.100071  0  0.990146  0  0.037028  0  0.098544  0.099492  0  0.988377  0
C  C50  1  0.56432397  0.17369094  0.38596306  1  0  0.137555  0  3.831442  0  0  0.133147  0  4.079935  0  0  0.136108  0  4.104142  0  0.323201  0  0.079393  0.131358  0  4.063364  0
C  C51  1  0.43565771  0.82631456  0.61404017  1  0  0.13734  0  3.831712  0  0  0.133111  0  4.07995  0  0  0.136071  0  4.104159  0  0.323594  0  0.079335  0.131322  0  4.063377  0
C  C52  1  0.45957287  0.28678808  0.36683989  1  0  -0.15059  0  3.760502  0  0  -0.169897  0  4.014532  0  0  -0.172703  0  4.035427  0  -0.020835  0  -0.095011  -0.16825  0  4.000299  0
C  C53  1  0.54042045  0.71321742  0.63316248  1  0  -0.150412  0  3.760629  0  0  -0.169796  0  4.014595  0  0  -0.172601  0  4.03549  0  -0.022374  0  -0.094927  -0.168148  0  4.000361  0
C  C54  1  0.41148045  0.35528769  0.44186148  1  0  -0.091183  0  3.803732  0  0  -0.107304  0  4.05825  0  0  -0.110342  0  4.081542  0  -0.030777  0  -0.10009  -0.105259  0  4.04332  0
C  C55  1  0.58850559  0.64471974  0.55814574  1  0  -0.091236  0  3.804072  0  0  -0.107384  0  4.058635  0  0  -0.110421  0  4.081932  0  -0.030038  0  -0.10015  -0.105337  0  4.043699  0
C  C56  1  0.46490333  0.31304797  0.53349619  1  0  -0.055741  0  3.77004  0  0  -0.072318  0  4.02401  0  0  -0.074047  0  4.046674  0  -0.034207  0  -0.090532  -0.071229  0  4.010171  0
C  C57  1  0.53509393  0.68695463  0.46650693  1  0  -0.055595  0  3.769802  0  0  -0.072212  0  4.023779  0  0  -0.073949  0  4.046441  0  -0.034201  0  -0.090485  -0.071122  0  4.009942  0
C  C58  1  0.56872972  0.20017221  0.55367074  1  0  -0.147632  0  3.748514  0  0  -0.168761  0  4.005956  0  0  -0.172087  0  4.026237  0  0.045452  0  -0.094308  -0.166238  0  3.992062  0
C  C59  1  0.43125414  0.79983426  0.44633200  1  0  -0.147721  0  3.748487  0  0  -0.168888  0  4.005963  0  0  -0.172194  0  4.026252  0  0.045358  0  -0.094285  -0.166371  0  3.992065  0
C  C60  1  0.61676614  0.13173351  0.47836942  1  0  0.095909  0  3.769404  0  0  0.084578  0  4.014894  0  0  0.088184  0  4.038125  0  0.300683  0  0.088793  0.082366  0  3.998879  0
C  C61  1  0.38321847  0.86826813  0.52163487  1  0  0.095862  0  3.769843  0  0  0.084506  0  4.015274  0  0  0.088115  0  4.038496  0  0.301058  0  0.08871  0.082292  0  3.999263  0
C  C62  1  0.71217183  0.98859438  0.38522251  1  0  0.201911  0  3.64694  0  0  0.134218  0  3.921301  0  0  0.152208  0  3.93071  0  0.955352  0  0.163178  0.122046  0  3.915454  0
C  C63  1  0.28782059  0.01141692  0.61477319  1  0  0.201615  0  3.646861  0  0  0.133904  0  3.921268  0  0  0.151889  0  3.930681  0  0.955482  0  0.163013  0.121733  0  3.915422  0
C  C64  1  0.79696368  0.93585612  0.55102401  1  0  0.011101  0  3.624164  0  0  -0.053213  0  3.886204  0  0  -0.048636  0  3.897527  0  0.286273  0  -0.04886  -0.056181  0  3.878428  0
C  C65  1  0.20302033  0.06414938  0.44897536  1  0  0.011185  0  3.624064  0  0  -0.053154  0  3.886231  0  0  -0.048602  0  3.897597  0  0.286404  0  -0.048766  -0.056084  0  3.878391  0
C  C66  1  0.94398270  0.99333226  0.54995592  1  0  -0.129924  0  3.691845  0  0  -0.173746  0  3.959986  0  0  -0.175022  0  3.973773  0  -0.016858  0  -0.162254  -0.172653  0  3.95033  0
C  C67  1  0.05600570  0.00666744  0.45003975  1  0  -0.129911  0  3.692033  0  0  -0.17377  0  3.960249  0  0  -0.175043  0  3.97404  0  0.004572  0  -0.162356  -0.172679  0  3.950577  0
C  C68  1  0.61687150  0.27732103  0.99802511  1  0  0.145745  0  3.809351  0  0  0.142993  0  4.053973  0  0  0.146258  0  4.077134  0  0.365798  0  0.089622  0.14075  0  4.038374  0
C  C69  1  0.38312535  0.72267674  0.00196697  1  0  0.145942  0  3.809063  0  0  0.143147  0  4.053633  0  0  0.14641  0  4.076794  0  0.365852  0  0.089729  0.140911  0  4.038029  0
C  C70  1  0.56248649  0.20777544  0.94370360  1  0  -0.125421  0  3.714195  0  0  -0.144028  0  3.962312  0  0  -0.146367  0  3.982069  0  -0.055041  0  -0.083081  -0.142321  0  3.948877  0
C  C71  1  0.43752782  0.79222233  0.05627906  1  0  -0.125611  0  3.714332  0  0  -0.144225  0  3.962533  0  0  -0.14655  0  3.982268  0  -0.054931  0  -0.083304  -0.142493  0  3.949108  0
C  C72  1  0.55313253  0.26668618  0.84486477  1  0  -0.074593  0  3.769423  0  0  -0.092144  0  4.023241  0  0  -0.094379  0  4.045497  0  -0.011232  0  -0.095632  -0.090698  0  4.008386  0
C  C73  1  0.44688392  0.73332029  0.15511945  1  0  -0.074287  0  3.769418  0  0  -0.091965  0  4.023241  0  0  -0.094196  0  4.045494  0  -0.011064  0  -0.095486  -0.090519  0  4.008378  0
C  C74  1  0.59868126  0.39060378  0.80064400  1  0  -0.086872  0  3.804237  0  0  -0.101036  0  4.057412  0  0  -0.103799  0  4.081002  0  -0.035736  0  -0.101237  -0.09912  0  4.041252  0
C  C75  1  0.40133838  0.60940462  0.19934649  1  0  -0.086734  0  3.804044  0  0  -0.100981  0  4.057274  0  0  -0.103737  0  4.080868  0  -0.03555  0  -0.101249  -0.099066  0  4.041117  0
C  C76  1  0.65590745  0.46037365  0.85306862  1  0  -0.157709  0  3.758197  0  0  -0.180123  0  4.015481  0  0  -0.182963  0  4.035519  0  -0.017358  0  -0.09922  -0.178102  0  4.002111  0
C  C77  1  0.34410130  0.53962992  0.14692923  1  0  -0.157751  0  3.758127  0  0  -0.180225  0  4.015408  0  0  -0.183063  0  4.035449  0  -0.017258  0  -0.099256  -0.178205  0  4.002034  0
C  C78  1  0.66283769  0.40125603  0.95246722  1  0  0.102477  0  3.768436  0  0  0.092365  0  4.012893  0  0  0.095891  0  4.035637  0  0.335089  0  0.093247  0.090059  0  3.997543  0
C  C79  1  0.33716047  0.59874077  0.04752983  1  0  0.102389  0  3.768345  0  0  0.092362  0  4.0127  0  0  0.095888  0  4.035445  0  0.334797  0  0.093233  0.090058  0  3.997346  0
C  C80  1  0.69141332  0.34739542  0.11015325  1  0  0.200989  0  3.673355  0  0  0.135252  0  3.947373  0  0  0.152494  0  3.957812  0  0.996383  0  0.163894  0.124133  0  3.939891  0
C  C81  1  0.30858488  0.65259365  0.88984459  1  0  0.201194  0  3.673227  0  0  0.135466  0  3.947204  0  0  0.152711  0  3.957636  0  0.996425  0  0.163969  0.12434  0  3.939723  0
C  C82  1  0.77562039  0.56200844  0.01201960  1  0  0.000417  0  3.627631  0  0  -0.062956  0  3.888187  0  0  -0.058971  0  3.900439  0  0.272908  0  -0.052214  -0.065433  0  3.879711  0
C  C83  1  0.22436467  0.43799030  0.98798874  1  0  0.000551  0  3.627884  0  0  -0.062918  0  3.888499  0  0  -0.058949  0  3.900767  0  0.271729  0  -0.052237  -0.065424  0  3.880068  0
C  C84  1  0.94966820  0.54864841  0.96616498  1  0  -0.137881  0  3.705221  0  0  -0.183786  0  3.976398  0  0  -0.184695  0  3.989185  0  -0.029189  0  -0.166259  -0.183042  0  3.967715  0
C  C85  1  0.05031599  0.45134839  0.03385376  1  0  -0.137656  0  3.705379  0  0  -0.183419  0  3.976431  0  0  -0.184336  0  3.989235  0  -0.006368  0  -0.166097  -0.182668  0  3.96775  0
C  C86  1  0.27466493  0.11059335  0.18545625  1  0  0.726844  0  3.875128  0  0  0.690163  0  4.167984  0  0  0.723261  0  4.160396  0  1.545308  0  0.195614  0.667718  0  4.172273  0
C  C87  1  0.72534051  0.88940152  0.81454374  1  0  0.726797  0  3.874857  0  0  0.690175  0  4.167628  0  0  0.723271  0  4.160042  0  1.545386  0  0.195635  0.667731  0  4.171916  0
C  C88  1  0.13535185  0.06769240  0.16063853  1  0  -0.445136  0  3.660925  0  0  -0.51697  0  3.886036  0  0  -0.524205  0  3.889696  0  -0.094145  0  -0.24861  -0.511891  0  3.883181  0
C  C89  1  0.86465998  0.93230634  0.83935560  1  0  -0.445089  0  3.660879  0  0  -0.516895  0  3.885993  0  0  -0.524126  0  3.889659  0  -0.094679  0  -0.24864  -0.51182  0  3.883133  0
C  C90  1  0.82994105  0.85891901  0.16860357  1  0  0.729186  0  3.88204  0  0  0.695345  0  4.168003  0  0  0.728169  0  4.161541  0  1.574926  0  0.193919  0.673012  0  4.171558  0
C  C91  1  0.17007634  0.14107392  0.83141077  1  0  0.729113  0  3.88207  0  0  0.695302  0  4.16798  0  0  0.728124  0  4.161522  0  1.57519  0  0.193828  0.672971  0  4.171532  0
C  C92  1  0.97676763  0.79344040  0.11314779  1  0  -0.454645  0  3.669744  0  0  -0.529133  0  3.900385  0  0  -0.536468  0  3.903651  0  -0.099598  0  -0.252472  -0.523928  0  3.898086  0
C  C93  1  0.02324727  0.20655351  0.88686315  1  0  -0.454538  0  3.669552  0  0  -0.528993  0  3.900111  0  0  -0.536326  0  3.90338  0  -0.099871  0  -0.252443  -0.523785  0  3.897816  0
N  N94  1  0.62713161  0.08176779  0.32937169  1  0  -0.44198  0  3.247575  0  0  -0.368357  0  3.559339  0  0  -0.389577  0  3.567058  0  -1.219286  0  -0.356651  -0.354019  0  3.554025  0
N  N95  1  0.37286096  0.91824254  0.67062347  1  0  -0.441655  0  3.247573  0  0  -0.368036  0  3.55919  0  0  -0.389263  0  3.56693  0  -1.21907  0  -0.356474  -0.3537  0  3.553874  0
N  N96  1  0.70935291  0.01378441  0.47490015  1  0  -0.119468  0  3.529221  0  0  -0.029029  0  3.753813  0  0  -0.045952  0  3.778597  0  -1.252246  0  -0.241584  -0.017727  0  3.736997  0
N  N97  1  0.29063737  0.98621819  0.52509824  1  0  -0.119199  0  3.529265  0  0  -0.028774  0  3.753878  0  0  -0.045693  0  3.778667  0  -1.252386  0  -0.241519  -0.017483  0  3.737052  0
N  N98  1  0.63597377  0.24726098  0.09700905  1  0  -0.42144  0  3.255936  0  0  -0.349449  0  3.560447  0  0  -0.369766  0  3.569366  0  -1.218759  0  -0.352159  -0.335794  0  3.554228  0
N  N99  1  0.36403317  0.75272423  0.90298129  1  0  -0.421653  0  3.255765  0  0  -0.349592  0  3.560231  0  0  -0.369914  0  3.569154  0  -1.218959  0  -0.352181  -0.335955  0  3.554037  0
N  N100  1  0.70928138  0.44250970  0.02606828  1  0  -0.114255  0  3.533912  0  0  -0.025514  0  3.757009  0  0  -0.042341  0  3.782442  0  -1.245685  0  -0.240466  -0.014392  0  3.739658  0
N  N101  1  0.29071491  0.55748420  0.97393242  1  0  -0.114238  0  3.533958  0  0  -0.025508  0  3.75704  0  0  -0.042334  0  3.782472  0  -1.24556  0  -0.240451  -0.014378  0  3.739699  0
O  O102  1  0.39922683  0.02480401  0.18759105  1  0  -0.682427  0  2.022105  0  0  -0.605122  0  2.30196  0  0  -0.634215  0  2.284756  0  -1.179555  0  -0.344733  -0.584761  0  2.313137  0
O  O103  1  0.60077020  0.97518505  0.81241685  1  0  -0.6824  0  2.02215  0  0  -0.605104  0  2.30197  0  0  -0.634205  0  2.284771  0  -1.179706  0  -0.344707  -0.584745  0  2.313146  0
O  O104  1  0.26566143  0.22082804  0.20145111  1  0  -0.65376  0  1.874093  0  0  -0.612386  0  2.09361  0  0  -0.633812  0  2.083714  0  -1.202791  0  -0.34642  -0.597425  0  2.100085  0
O  O105  1  0.73434285  0.77916682  0.79854620  1  0  -0.653757  0  1.873866  0  0  -0.612403  0  2.093363  0  0  -0.633822  0  2.083456  0  -1.202676  0  -0.346416  -0.597444  0  2.09984  0
O  O106  1  0.77704482  0.97310275  0.12162284  1  0  -0.671558  0  1.993186  0  0  -0.593892  0  2.255083  0  0  -0.623522  0  2.240843  0  -1.179583  0  -0.349448  -0.573224  0  2.264253  0
O  O107  1  0.22294437  0.02688439  0.87837870  1  0  -0.671547  0  1.993454  0  0  -0.593898  0  2.255334  0  0  -0.623529  0  2.2411  0  -1.179845  0  -0.349383  -0.57323  0  2.264503  0
O  O108  1  0.76842507  0.80261067  0.25370822  1  0  -0.663972  0  1.876142  0  0  -0.622364  0  2.088007  0  0  -0.644381  0  2.077675  0  -1.212324  0  -0.355091  -0.606687  0  2.094541  0
O  O109  1  0.23160406  0.19738903  0.74631526  1  0  -0.663894  0  1.875857  0  0  -0.622308  0  2.087701  0  0  -0.644316  0  2.077356  0  -1.212369  0  -0.355052  -0.606639  0  2.094246  0
