# generated using pymatgen
data_Rb2Mo2P2H6C3O11
_symmetry_space_group_name_H-M   'P 1'
_cell_length_a   9.74884421
_cell_length_b   9.97030025
_cell_length_c   13.97000000
_cell_angle_alpha   97.39458313
_cell_angle_beta   90.00000000
_cell_angle_gamma   90.00000000
_symmetry_Int_Tables_number   1
_chemical_formula_structural   Rb2Mo2P2H6C3O11
_chemical_formula_sum   'Rb8 Mo8 P8 H24 C12 O44'
_cell_volume   1346.57574692
_cell_formula_units_Z   4
loop_
 _symmetry_equiv_pos_site_id
 _symmetry_equiv_pos_as_xyz
  1  'x, y, z'
loop_
 _atom_site_type_symbol
 _atom_site_label
 _atom_site_symmetry_multiplicity
 _atom_site_fract_x
 _atom_site_fract_y
 _atom_site_fract_z
 _atom_site_occupancy
 _atom_site_pbe_bader_charge
 _atom_site_pbe_bader_spin_density
 _atom_site_pbe_cm5_charge
 _atom_site_pbe_ddec_charge
 _atom_site_pbe_ddec_spin_density
 _atom_site_pbe_ddec_sum_bond_order
 _atom_site_pbe_magmom
Rb  Rb0  1  0.16634895  0.81223838  0.49958848  1  0.905793  0  0.831777  0.967836  0  0.703604  0
Rb  Rb1  1  0.66634873  0.68776254  0.50041118  1  0.905795  0  0.831774  0.967833  0  0.70361  0
Rb  Rb2  1  0.83365062  0.18776156  0.50041195  1  0.905795  0  0.831779  0.967837  0  0.703589  0
Rb  Rb3  1  0.33365083  0.31223841  0.49958791  1  0.905783  0  0.831778  0.967832  0  0.703602  0
Rb  Rb4  1  0.00254492  0.45692183  0.26981963  1  0.89272  0  0.890186  0.940559  0  0.759702  0
Rb  Rb5  1  0.50254470  0.04307814  0.73018022  1  0.892723  0  0.890186  0.940562  0  0.759694  0
Rb  Rb6  1  0.99745568  0.54307811  0.73018151  1  0.892716  0  0.890169  0.940566  0  0.759704  0
Rb  Rb7  1  0.49745589  0.95692281  0.26981886  1  0.892715  0  0.890176  0.940555  0  0.75972  0
Mo  Mo8  1  0.35692334  0.58737498  0.31454955  1  2.679655  0  1.592581  2.240222  0  4.636131  0
Mo  Mo9  1  0.85692415  0.91262493  0.68545073  1  2.679645  0  1.59257  2.240198  0  4.63624  0
Mo  Mo10  1  0.64307521  0.41262395  0.68545078  1  2.679504  0  1.592551  2.240157  0  4.636232  0
Mo  Mo11  1  0.14307440  0.08737602  0.31454907  1  2.6795  0  1.59255  2.240187  0  4.63622  0
Mo  Mo12  1  0.35422455  0.65828962  0.69203827  1  2.685513  0  1.599631  2.245641  0  4.630398  0
Mo  Mo13  1  0.85422434  0.84171029  0.30796201  1  2.685544  0  1.59958  2.245568  0  4.630607  0
Mo  Mo14  1  0.64577706  0.34171234  0.30796234  1  2.685547  0  1.599603  2.245651  0  4.630425  0
Mo  Mo15  1  0.14577626  0.15828763  0.69203823  1  2.685444  0  1.599632  2.245612  0  4.630543  0
P  P16  1  0.35344805  0.27432847  0.17971848  1  3.35023  0  0.330852  1.380933  0  5.274396  0
P  P17  1  0.85344886  0.22567049  0.82028056  1  3.350048  0  0.330855  1.380936  0  5.274327  0
P  P18  1  0.64654946  0.72567248  0.82028132  1  3.350127  0  0.330904  1.381081  0  5.27424  0
P  P19  1  0.14654968  0.77432844  0.17971905  1  3.350051  0  0.330873  1.380996  0  5.274226  0
P  P20  1  0.36173006  0.39052709  0.82614408  1  3.354124  0  0.342377  1.383905  0  5.276434  0
P  P21  1  0.86173190  0.10947389  0.17385587  1  3.353859  0  0.342409  1.383929  0  5.276308  0
P  P22  1  0.63827156  0.60947082  0.17385544  1  3.354184  0  0.342428  1.384107  0  5.2763  0
P  P23  1  0.13827178  0.89052909  0.82614412  1  3.353956  0  0.342394  1.383963  0  5.276387  0
H  H24  1  0.18948092  0.19718468  0.05979360  1  0.074365  0  0.110195  0.147149  0  0.99592  0
H  H25  1  0.68948071  0.30281529  0.94020482  1  0.074348  0  0.110185  0.147138  0  0.995943  0
H  H26  1  0.81051865  0.80281627  0.94020620  1  0.074384  0  0.110184  0.147147  0  0.995944  0
H  H27  1  0.31051989  0.69718465  0.05979417  1  0.074371  0  0.110197  0.147149  0  0.995898  0
H  H28  1  0.32332346  0.08242628  0.06888827  1  0.057785  0  0.113507  0.141561  0  0.994216  0
H  H29  1  0.82332324  0.41757369  0.93111087  1  0.057735  0  0.113501  0.141561  0  0.994242  0
H  H30  1  0.67667714  0.91757366  0.93111144  1  0.057768  0  0.113514  0.141601  0  0.994216  0
H  H31  1  0.17667735  0.58242625  0.06888884  1  0.057741  0  0.113506  0.14157  0  0.994222  0
H  H32  1  0.21106605  0.37829028  0.95601364  1  0.030133  0  0.112569  0.147248  0  0.974009  0
H  H33  1  0.71106480  0.12171070  0.04398631  1  0.030113  0  0.112555  0.147231  0  0.974035  0
H  H34  1  0.78893250  0.62171067  0.04398687  1  0.030146  0  0.112567  0.147261  0  0.974031  0
H  H35  1  0.28893476  0.87828924  0.95601269  1  0.030119  0  0.112567  0.147243  0  0.974022  0
H  H36  1  0.36837187  0.45431952  0.99823987  1  0.056906  0  0.111028  0.155717  0  0.979061  0
H  H37  1  0.86836961  0.04568045  0.00175927  1  0.056891  0  0.111023  0.155704  0  0.979079  0
H  H38  1  0.63162872  0.54568042  0.00175984  1  0.056914  0  0.111021  0.15571  0  0.979091  0
H  H39  1  0.13162996  0.95431949  0.99824044  1  0.056874  0  0.111023  0.155706  0  0.979101  0
H  H40  1  0.34510245  0.15479833  0.91386876  1  0.043283  0  0.095037  0.084409  0  1.030386  0
H  H41  1  0.84510121  0.34520265  0.08613119  1  0.043274  0  0.095044  0.084451  0  1.030363  0
H  H42  1  0.65489815  0.84520262  0.08613176  1  0.043275  0  0.095046  0.084463  0  1.030344  0
H  H43  1  0.15489836  0.65479729  0.91386924  1  0.04328  0  0.095032  0.084415  0  1.030371  0
H  H44  1  0.48295674  0.23246602  0.98387398  1  0.002644  0  0.09524  0.079712  0  0.99964  0
H  H45  1  0.98295652  0.26753395  0.01612659  1  0.002646  0  0.095249  0.079712  0  0.999649  0
H  H46  1  0.51704283  0.76753493  0.01612654  1  0.002634  0  0.095239  0.079695  0  0.99966  0
H  H47  1  0.01704407  0.73246700  0.98387392  1  0.002652  0  0.095243  0.079716  0  0.999635  0
C  C48  1  0.30189220  0.18963971  0.06372834  1  -0.563021  0  -0.160215  -0.445756  0  3.895294  0
C  C49  1  0.80189198  0.31036026  0.93627080  1  -0.562954  0  -0.160224  -0.445745  0  3.895262  0
C  C50  1  0.69810737  0.81036023  0.93627137  1  -0.563078  0  -0.16024  -0.445848  0  3.895335  0
C  C51  1  0.19810759  0.68964069  0.06372900  1  -0.562966  0  -0.160206  -0.445739  0  3.895219  0
C  C52  1  0.37095679  0.23229408  0.97445088  1  0.015772  0  -0.154432  -0.050364  0  3.947972  0
C  C53  1  0.87095658  0.26770589  0.02554969  1  0.015793  0  -0.154437  -0.05041  0  3.947931  0
C  C54  1  0.62904277  0.76770586  0.02554954  1  0.015786  0  -0.154425  -0.05037  0  3.947961  0
C  C55  1  0.12904402  0.73229405  0.97445074  1  0.015773  0  -0.154425  -0.050362  0  3.94796  0
C  C56  1  0.32354297  0.37025276  0.94970199  1  -0.528945  0  -0.159783  -0.445876  0  3.870046  0
C  C57  1  0.82354173  0.12974721  0.05029786  1  -0.528905  0  -0.159761  -0.445832  0  3.869996  0
C  C58  1  0.67645660  0.62974718  0.05029843  1  -0.529001  0  -0.159764  -0.445897  0  3.870093  0
C  C59  1  0.17645784  0.87025273  0.94970256  1  -0.528727  0  -0.159801  -0.445892  0  3.870087  0
O  O60  1  0.29476828  0.41799139  0.19950071  1  -1.452261  0  -0.429143  -0.819252  0  2.26348  0
O  O61  1  0.79476806  0.08200655  0.80049896  1  -1.452278  0  -0.429142  -0.819215  0  2.263397  0
O  O62  1  0.70523232  0.58200753  0.80049962  1  -1.452236  0  -0.429135  -0.81926  0  2.263374  0
O  O63  1  0.20523151  0.91799238  0.19950065  1  -1.45225  0  -0.429142  -0.819232  0  2.263342  0
O  O64  1  0.28885886  0.26734684  0.76573718  1  -1.379322  0  -0.445034  -0.812469  0  2.444199  0
O  O65  1  0.78885762  0.23265211  0.23426258  1  -1.379315  0  -0.444997  -0.812458  0  2.444173  0
O  O66  1  0.71114071  0.73265208  0.23426244  1  -1.379322  0  -0.444994  -0.812462  0  2.444203  0
O  O67  1  0.21114093  0.76734783  0.76573784  1  -1.379324  0  -0.445006  -0.812472  0  2.444224  0
O  O68  1  0.28895220  0.18341460  0.25169412  1  -1.381015  0  -0.449295  -0.822952  0  2.438535  0
O  O69  1  0.78895199  0.31658233  0.74830474  1  -1.381018  0  -0.449263  -0.822942  0  2.438519  0
O  O70  1  0.71104737  0.81658534  0.74830559  1  -1.381029  0  -0.449326  -0.823031  0  2.438571  0
O  O71  1  0.21104758  0.68341457  0.25169469  1  -1.38102  0  -0.449291  -0.822988  0  2.438525  0
O  O72  1  0.23909296  0.52957605  0.39274444  1  -0.870501  0  -0.654384  -0.781568  0  1.756501  0
O  O73  1  0.73909274  0.97042386  0.60725512  1  -0.870506  0  -0.654394  -0.781615  0  1.756509  0
O  O74  1  0.76090969  0.47042591  0.60725545  1  -0.87048  0  -0.654397  -0.781638  0  1.756497  0
O  O75  1  0.26091093  0.02957305  0.39274503  1  -0.870493  0  -0.654404  -0.781655  0  1.756449  0
O  O76  1  0.50001312  0.46758491  0.33957145  1  -1.045678  0  -0.623441  -0.958761  0  2.191007  0
O  O77  1  0.00001231  0.03241506  0.66042841  1  -1.045649  0  -0.62345  -0.958716  0  2.191036  0
O  O78  1  0.49998747  0.53241503  0.66042826  1  -1.045584  0  -0.623436  -0.95871  0  2.191022  0
O  O79  1  0.99998726  0.96758387  0.33957121  1  -1.045585  0  -0.623442  -0.958721  0  2.191019  0
O  O80  1  0.42257932  0.73184904  0.38153083  1  -0.88086  0  -0.648027  -0.799581  0  1.746614  0
O  O81  1  0.92257911  0.76815188  0.61846882  1  -0.880858  0  -0.648033  -0.799597  0  1.746677  0
O  O82  1  0.57742127  0.26815292  0.61846906  1  -0.880868  0  -0.648012  -0.799555  0  1.74672  0
O  O83  1  0.07742149  0.23184604  0.38153070  1  -0.880855  0  -0.648  -0.799558  0  1.746742  0
O  O84  1  0.51691769  0.37387860  0.80989832  1  -1.427569  0  -0.402446  -0.802097  0  2.271666  0
O  O85  1  0.01691790  0.12611733  0.19010045  1  -1.427403  0  -0.402432  -0.802078  0  2.271718  0
O  O86  1  0.48307983  0.62612033  0.19010058  1  -1.427616  0  -0.402494  -0.802217  0  2.271589  0
O  O87  1  0.98308064  0.87388059  0.80989979  1  -1.42761  0  -0.402448  -0.802142  0  2.271628  0
O  O88  1  0.23654086  0.57433513  0.61275050  1  -0.867181  0  -0.643879  -0.777933  0  1.751621  0
O  O89  1  0.73654064  0.92566478  0.38724906  1  -0.867186  0  -0.643862  -0.777889  0  1.751679  0
O  O90  1  0.76345973  0.42566279  0.38724902  1  -0.867228  0  -0.643885  -0.777895  0  1.751684  0
O  O91  1  0.26345687  0.07433718  0.61274940  1  -0.867179  0  -0.64388  -0.777882  0  1.751705  0
O  O92  1  0.41329207  0.78443627  0.62796102  1  -0.872959  0  -0.636687  -0.788452  0  1.743933  0
O  O93  1  0.91329083  0.71556364  0.37203854  1  -0.872961  0  -0.636672  -0.788448  0  1.743963  0
O  O94  1  0.58670647  0.21556367  0.37204012  1  -0.872959  0  -0.63668  -0.788497  0  1.743914  0
O  O95  1  0.08670874  0.28443630  0.62796117  1  -0.872939  0  -0.636677  -0.788476  0  1.743952  0
O  O96  1  0.51026151  0.26422266  0.18639653  1  -1.431479  0  -0.402945  -0.797709  0  2.234086  0
O  O97  1  0.01026173  0.23577731  0.81360333  1  -1.431289  0  -0.402957  -0.797736  0  2.234113  0
O  O98  1  0.48973908  0.73577728  0.81360318  1  -1.431313  0  -0.402955  -0.797767  0  2.234166  0
O  O99  1  0.98973886  0.76422364  0.18639647  1  -1.43131  0  -0.402974  -0.797774  0  2.234143  0
O  O100  1  0.30003352  0.52275524  0.80140783  1  -1.448061  0  -0.415262  -0.812072  0  2.308002  0
O  O101  1  0.80003125  0.97724265  0.19859226  1  -1.448032  0  -0.415296  -0.812102  0  2.307889  0
O  O102  1  0.69996400  0.47724672  0.19859134  1  -1.448097  0  -0.415295  -0.812182  0  2.308087  0
O  O103  1  0.19996729  0.02275527  0.80140726  1  -1.448102  0  -0.415262  -0.812083  0  2.308082  0
