# generated using pymatgen
data_ZnH2(CN2)5
_symmetry_space_group_name_H-M   'P 1'
_cell_length_a   8.75708316
_cell_length_b   8.75707973
_cell_length_c   16.90169895
_cell_angle_alpha   92.04776550
_cell_angle_beta   92.04785711
_cell_angle_gamma   119.32973367
_symmetry_Int_Tables_number   1
_chemical_formula_structural   ZnH2(CN2)5
_chemical_formula_sum   'Zn4 H8 C20 N40'
_cell_volume   1127.15555965
_cell_formula_units_Z   4
loop_
 _symmetry_equiv_pos_site_id
 _symmetry_equiv_pos_as_xyz
  1  'x, y, z'
loop_
 _atom_site_type_symbol
 _atom_site_label
 _atom_site_symmetry_multiplicity
 _atom_site_fract_x
 _atom_site_fract_y
 _atom_site_fract_z
 _atom_site_occupancy
 _atom_site_hle17_bader_spin_density
 _atom_site_hle17_ddec_charge
 _atom_site_hle17_ddec_spin_density
 _atom_site_hle17_ddec_sum_bond_order
 _atom_site_hle17_magmom
 _atom_site_hse06_10hf_bader_spin_density
 _atom_site_hse06_10hf_ddec_charge
 _atom_site_hse06_10hf_ddec_spin_density
 _atom_site_hse06_10hf_ddec_sum_bond_order
 _atom_site_hse06_10hf_magmom
 _atom_site_hse06_bader_spin_density
 _atom_site_hse06_ddec_charge
 _atom_site_hse06_ddec_spin_density
 _atom_site_hse06_ddec_sum_bond_order
 _atom_site_hse06_magmom
 _atom_site_pbe_bader_spin_density
 _atom_site_pbe_cm5_charge
 _atom_site_pbe_ddec_charge
 _atom_site_pbe_ddec_spin_density
 _atom_site_pbe_ddec_sum_bond_order
 _atom_site_pbe_magmom
Zn  Zn0  1  0.31445950  0.64888569  0.30590471  1  0  0.847649  0  2.021067  0  0  0.632535  0  2.496901  0  0  0.674348  0  2.453675  0  0  0.738128  0.603679  0  2.526655  0
Zn  Zn1  1  0.64888545  0.31446079  0.80590366  1  0  0.847602  0  2.021132  0  0  0.632497  0  2.496961  0  0  0.674307  0  2.453737  0  0  0.738112  0.603643  0  2.526718  0
Zn  Zn2  1  0.07974646  0.90009372  0.37443314  1  0  0.847008  0  2.022221  0  0  0.630939  0  2.502413  0  0  0.673405  0  2.45846  0  0  0.735262  0.601578  0  2.532678  0
Zn  Zn3  1  0.90009333  0.07974798  0.87443288  1  0  0.847025  0  2.022217  0  0  0.630959  0  2.502422  0  0  0.673432  0  2.458463  0  0  0.735274  0.6016  0  2.532686  0
H  H4  1  0.20988345  0.19305004  0.06852310  1  0  0.290737  0  0.953136  0  0  0.25517  0  1.044429  0  0  0.264797  0  1.036511  0  0  0.30939  0.2484  0  1.049979  0
H  H5  1  0.19304932  0.20988387  0.56852246  1  0  0.290713  0  0.953147  0  0  0.255163  0  1.044424  0  0  0.26479  0  1.036508  0  0  0.309386  0.248392  0  1.049973  0
H  H6  1  0.67698344  0.84134445  0.61201225  1  0  0.31635  0  0.878239  0  0  0.288455  0  0.954124  0  0  0.297051  0  0.946794  0  0  0.329188  0.282372  0  0.959367  0
H  H7  1  0.84134466  0.67698128  0.11201231  1  0  0.316355  0  0.878238  0  0  0.288445  0  0.954135  0  0  0.297042  0  0.946805  0  0  0.329179  0.282362  0  0.959375  0
H  H8  1  0.22670697  0.48779884  0.09874675  1  0  0.10238  0  0.920876  0  0  0.105443  0  0.990725  0  0  0.108442  0  0.986685  0  0  0.143168  0.103207  0  0.993669  0
H  H9  1  0.48779682  0.22670424  0.59874615  1  0  0.10238  0  0.920943  0  0  0.10548  0  0.990744  0  0  0.10848  0  0.986706  0  0  0.14319  0.103245  0  0.993688  0
H  H10  1  0.96244701  0.84968232  0.58496904  1  0  0.099013  0  0.929773  0  0  0.101087  0  1.003112  0  0  0.103994  0  0.999442  0  0  0.141198  0.098921  0  1.005774  0
H  H11  1  0.84968261  0.96244443  0.08497076  1  0  0.099006  0  0.92979  0  0  0.101088  0  1.003118  0  0  0.103995  0  0.999449  0  0  0.141195  0.098925  0  1.005775  0
C  C12  1  0.20040798  0.28384064  0.33970149  1  0  0.29316  0  3.826122  0  0  0.265419  0  4.081972  0  0  0.278878  0  4.09724  0  0  0.225719  0.256445  0  4.071548  0
C  C13  1  0.28384074  0.20040887  0.83970092  1  0  0.293227  0  3.826032  0  0  0.265454  0  4.081943  0  0  0.278911  0  4.097212  0  0  0.225714  0.256477  0  4.071519  0
C  C14  1  0.20122096  0.27764764  0.25464512  1  0  0.040559  0  3.794612  0  0  0.030978  0  4.050322  0  0  0.031624  0  4.070954  0  0  0.083146  0.030529  0  4.036368  0
C  C15  1  0.27764542  0.20121770  0.75464443  1  0  0.04048  0  3.794748  0  0  0.030939  0  4.050419  0  0  0.031585  0  4.071052  0  0  0.083129  0.030492  0  4.036463  0
C  C16  1  0.21855462  0.39750099  0.14268874  1  0  0.282447  0  3.63295  0  0  0.210071  0  3.922321  0  0  0.225855  0  3.931607  0  0  0.170121  0.199785  0  3.915736  0
C  C17  1  0.39750158  0.21855536  0.64268822  1  0  0.282431  0  3.632918  0  0  0.210027  0  3.922302  0  0  0.225811  0  3.931588  0  0  0.17011  0.199739  0  3.91572  0
C  C18  1  0.20029889  0.16149045  0.19606148  1  0  0.08469  0  3.724288  0  0  0.067377  0  3.980374  0  0  0.070334  0  4.000021  0  0  0.103298  0.065389  0  3.967169  0
C  C19  1  0.16149148  0.20030127  0.69605972  1  0  0.084683  0  3.724297  0  0  0.067388  0  3.980383  0  0  0.070345  0  4.00003  0  0  0.103351  0.065396  0  3.967174  0
C  C20  1  0.21063827  0.00258033  0.19930142  1  0  0.252474  0  3.831295  0  0  0.228944  0  4.110898  0  0  0.238759  0  4.125921  0  0  0.212446  0.222315  0  4.100799  0
C  C21  1  0.00258034  0.21063948  0.69930015  1  0  0.252546  0  3.831152  0  0  0.228975  0  4.110819  0  0  0.238791  0  4.12584  0  0  0.212446  0.222353  0  4.100708  0
C  C22  1  0.70734427  0.77951364  0.34174346  1  0  0.293368  0  3.821456  0  0  0.26466  0  4.077019  0  0  0.27828  0  4.092475  0  0  0.224465  0.255625  0  4.066405  0
C  C23  1  0.77951388  0.70734420  0.84174405  1  0  0.293323  0  3.821546  0  0  0.264641  0  4.077053  0  0  0.27826  0  4.092513  0  0  0.224459  0.255606  0  4.066436  0
C  C24  1  0.72339503  0.80454376  0.42689421  1  0  0.040449  0  3.781856  0  0  0.032217  0  4.036704  0  0  0.032353  0  4.057634  0  0  0.085405  0.032073  0  4.022561  0
C  C25  1  0.80454366  0.72339549  0.92689481  1  0  0.040366  0  3.781971  0  0  0.032149  0  4.036776  0  0  0.032285  0  4.057707  0  0  0.085398  0.032008  0  4.022626  0
C  C26  1  0.86528917  0.83713349  0.53988498  1  0  0.273342  0  3.635484  0  0  0.2021  0  3.92599  0  0  0.217294  0  3.936076  0  0  0.166835  0.192252  0  3.918835  0
C  C27  1  0.83713614  0.86529011  0.03988625  1  0  0.273325  0  3.635553  0  0  0.20208  0  3.926055  0  0  0.217275  0  3.93614  0  0  0.166834  0.192231  0  3.918904  0
C  C28  1  0.61955267  0.81396043  0.48521445  1  0  0.098575  0  3.706065  0  0  0.079785  0  3.962015  0  0  0.083358  0  3.980939  0  0  0.110825  0.07739  0  3.949325  0
C  C29  1  0.81396088  0.61955229  0.98521450  1  0  0.098669  0  3.706056  0  0  0.079853  0  3.962  0  0  0.083427  0  3.980927  0  0  0.110828  0.077457  0  3.949309  0
C  C30  1  0.46071154  0.82506815  0.48196679  1  0  0.258431  0  3.828437  0  0  0.234807  0  4.107128  0  0  0.244685  0  4.121696  0  0  0.217756  0.228103  0  4.09739  0
C  C31  1  0.82506758  0.46070988  0.98196686  1  0  0.258366  0  3.828483  0  0  0.234767  0  4.107152  0  0  0.244643  0  4.121722  0  0  0.217726  0.228062  0  4.097414  0
N  N32  1  0.16586564  0.16259016  0.39277690  1  0  -0.311741  0  3.176713  0  0  -0.245909  0  3.472985  0  0  -0.263359  0  3.484354  0  0  -0.23801  -0.234215  0  3.46529  0
N  N33  1  0.16258986  0.16586790  0.89277632  1  0  -0.311742  0  3.176605  0  0  -0.245944  0  3.47294  0  0  -0.263394  0  3.484309  0  0  -0.238029  -0.23425  0  3.465245  0
N  N34  1  0.18353587  0.24627918  0.46477781  1  0  -0.074611  0  3.006579  0  0  -0.054751  0  3.295335  0  0  -0.056681  0  3.307273  0  0  -0.078073  -0.053332  0  3.287271  0
N  N35  1  0.24627858  0.18353631  0.96477781  1  0  -0.07462  0  3.006556  0  0  -0.054736  0  3.295309  0  0  -0.056667  0  3.307246  0  0  -0.078061  -0.053317  0  3.287247  0
N  N36  1  0.22704372  0.40980594  0.45570776  1  0  -0.03427  0  2.922344  0  0  -0.043291  0  3.210765  0  0  -0.039481  0  3.222119  0  0  -0.082351  -0.045602  0  3.203034  0
N  N37  1  0.40980496  0.22704372  0.95570719  1  0  -0.03427  0  2.922405  0  0  -0.043288  0  3.210826  0  0  -0.039476  0  3.22218  0  0  -0.082353  -0.045598  0  3.203094  0
N  N38  1  0.23763397  0.43688323  0.37796328  1  0  -0.324386  0  3.198468  0  0  -0.255457  0  3.492861  0  0  -0.273949  0  3.50513  0  0  -0.233996  -0.243054  0  3.484515  0
N  N39  1  0.43688380  0.23763482  0.87796336  1  0  -0.324376  0  3.198414  0  0  -0.255448  0  3.492831  0  0  -0.273939  0  3.5051  0  0  -0.233975  -0.243046  0  3.484485  0
N  N40  1  0.21478379  0.42451683  0.22015161  1  0  -0.397642  0  3.190115  0  0  -0.333083  0  3.480242  0  0  -0.351825  0  3.493546  0  0  -0.341362  -0.320338  0  3.470989  0
N  N41  1  0.42451689  0.21478346  0.72015166  1  0  -0.397607  0  3.190036  0  0  -0.333056  0  3.480166  0  0  -0.351796  0  3.493468  0  0  -0.341364  -0.320309  0  3.470912  0
N  N42  1  0.20917152  0.24092172  0.12593391  1  0  -0.30476  0  3.421639  0  0  -0.239695  0  3.66357  0  0  -0.257293  0  3.677519  0  0  -0.356974  -0.227825  0  3.653927  0
N  N43  1  0.24092275  0.20917445  0.62593278  1  0  -0.304719  0  3.4216  0  0  -0.239685  0  3.663547  0  0  -0.257285  0  3.677496  0  0  -0.356997  -0.227811  0  3.65391  0
N  N44  1  0.21135248  0.92207472  0.26579986  1  0  -0.30683  0  3.129886  0  0  -0.256939  0  3.414389  0  0  -0.269998  0  3.426661  0  0  -0.232172  -0.248053  0  3.406106  0
N  N45  1  0.92207454  0.21135057  0.76579831  1  0  -0.30679  0  3.129876  0  0  -0.25688  0  3.414384  0  0  -0.269941  0  3.426658  0  0  -0.232107  -0.247994  0  3.406098  0
N  N46  1  0.23154850  0.78624456  0.23983525  1  0  -0.12825  0  3.256993  0  0  -0.066775  0  3.565999  0  0  -0.076556  0  3.577755  0  0  -0.129243  -0.060154  0  3.558089  0
N  N47  1  0.78624556  0.23155010  0.73983431  1  0  -0.128233  0  3.256949  0  0  -0.066774  0  3.565969  0  0  -0.076554  0  3.577725  0  0  -0.129247  -0.060158  0  3.558066  0
N  N48  1  0.24339016  0.78488003  0.16180425  1  0  -0.042181  0  2.923357  0  0  -0.042911  0  3.219155  0  0  -0.038837  0  3.227759  0  0  -0.082708  -0.045397  0  3.213386  0
N  N49  1  0.78487904  0.24339275  0.66180388  1  0  -0.04218  0  2.923312  0  0  -0.042902  0  3.219113  0  0  -0.038828  0  3.227717  0  0  -0.082732  -0.045387  0  3.213348  0
N  N50  1  0.23054845  0.91921409  0.13481418  1  0  -0.272005  0  2.890257  0  0  -0.262369  0  3.181089  0  0  -0.26989  0  3.189196  0  0  -0.216166  -0.2573  0  3.175645  0
N  N51  1  0.91921269  0.23055029  0.63481267  1  0  -0.272096  0  2.890233  0  0  -0.262451  0  3.181076  0  0  -0.269972  0  3.189182  0  0  -0.216202  -0.257384  0  3.17563  0
N  N52  1  0.57114149  0.72953526  0.28876161  1  0  -0.313846  0  3.196729  0  0  -0.241458  0  3.4932  0  0  -0.259562  0  3.50459  0  0  -0.237832  -0.229344  0  3.485431  0
N  N53  1  0.72953477  0.57114124  0.78876163  1  0  -0.313876  0  3.196826  0  0  -0.241483  0  3.493267  0  0  -0.259589  0  3.504658  0  0  -0.237867  -0.22937  0  3.485498  0
N  N54  1  0.62946947  0.71597738  0.21688160  1  0  -0.062002  0  2.89833  0  0  -0.064727  0  3.18693  0  0  -0.0628  0  3.19872  0  0  -0.091569  -0.065838  0  3.178934  0
N  N55  1  0.71597771  0.62947056  0.71688222  1  0  -0.061973  0  2.898326  0  0  -0.064702  0  3.186919  0  0  -0.062774  0  3.198708  0  0  -0.091546  -0.065814  0  3.178924  0
N  N56  1  0.79434148  0.75694379  0.22624436  1  0  -0.07915  0  2.996225  0  0  -0.070241  0  3.292355  0  0  -0.070389  0  3.305134  0  0  -0.08513  -0.069939  0  3.283676  0
N  N57  1  0.75694385  0.79434212  0.72624493  1  0  -0.079115  0  2.996186  0  0  -0.070211  0  3.292318  0  0  -0.070358  0  3.305095  0  0  -0.085113  -0.069909  0  3.28364  0
N  N58  1  0.84703495  0.79725014  0.30377824  1  0  -0.323168  0  3.196574  0  0  -0.256003  0  3.49082  0  0  -0.274178  0  3.503234  0  0  -0.239365  -0.243793  0  3.482363  0
N  N59  1  0.79724978  0.84703461  0.80377877  1  0  -0.323193  0  3.19659  0  0  -0.256034  0  3.490827  0  0  -0.274211  0  3.503241  0  0  -0.239387  -0.243825  0  3.482371  0
N  N60  1  0.87680241  0.82210176  0.46224978  1  0  -0.398847  0  3.177545  0  0  -0.33548  0  3.465557  0  0  -0.353862  0  3.479387  0  0  -0.339033  -0.322959  0  3.455946  0
N  N61  1  0.82210404  0.87680354  0.96225097  1  0  -0.398794  0  3.177566  0  0  -0.335436  0  3.465566  0  0  -0.353817  0  3.479395  0  0  -0.339032  -0.322916  0  3.455953  0
N  N62  1  0.71270896  0.83218289  0.55575571  1  0  -0.296708  0  3.422811  0  0  -0.234151  0  3.661523  0  0  -0.250788  0  3.675374  0  0  -0.35565  -0.222996  0  3.652039  0
N  N63  1  0.83218407  0.71270883  0.05575640  1  0  -0.296723  0  3.422753  0  0  -0.234151  0  3.661483  0  0  -0.250789  0  3.675334  0  0  -0.355634  -0.222993  0  3.651996  0
N  N64  1  0.36237800  0.80792214  0.41548243  1  0  -0.300144  0  3.122726  0  0  -0.251289  0  3.405795  0  0  -0.263994  0  3.418039  0  0  -0.228495  -0.242644  0  3.397539  0
N  N65  1  0.80792069  0.36237715  0.91548195  1  0  -0.300145  0  3.122684  0  0  -0.251307  0  3.405755  0  0  -0.264011  0  3.417999  0  0  -0.22851  -0.242663  0  3.397498  0
N  N66  1  0.23473177  0.83676425  0.44127739  1  0  -0.1253  0  3.263108  0  0  -0.063126  0  3.571551  0  0  -0.072922  0  3.58349  0  0  -0.128205  -0.056466  0  3.563494  0
N  N67  1  0.83676354  0.23473037  0.94127697  1  0  -0.125301  0  3.263039  0  0  -0.063123  0  3.571496  0  0  -0.07292  0  3.583434  0  0  -0.128195  -0.056464  0  3.56344  0
N  N68  1  0.25523866  0.87106597  0.51925926  1  0  -0.053076  0  2.936941  0  0  -0.05094  0  3.231606  0  0  -0.048107  0  3.242381  0  0  -0.085304  -0.052565  0  3.2243  0
N  N69  1  0.87106603  0.25523743  0.01925893  1  0  -0.053058  0  2.93692  0  0  -0.050922  0  3.231581  0  0  -0.048087  0  3.242355  0  0  -0.085289  -0.052547  0  3.224274  0
N  N70  1  0.39635265  0.86469777  0.54631431  1  0  -0.271716  0  2.882934  0  0  -0.261396  0  3.169403  0  0  -0.268989  0  3.177739  0  0  -0.214709  -0.256254  0  3.163801  0
N  N71  1  0.86469818  0.39635237  0.04631394  1  0  -0.271687  0  2.882957  0  0  -0.261369  0  3.169405  0  0  -0.268964  0  3.177743  0  0  -0.214693  -0.256228  0  3.163804  0
