# generated using pymatgen
data_CdH14C20N3O4
_symmetry_space_group_name_H-M   'P 1'
_cell_length_a   9.42543265
_cell_length_b   10.55097101
_cell_length_c   10.99531673
_cell_angle_alpha   66.18220204
_cell_angle_beta   70.57388611
_cell_angle_gamma   67.14396021
_symmetry_Int_Tables_number   1
_chemical_formula_structural   CdH14C20N3O4
_chemical_formula_sum   'Cd2 H28 C40 N6 O8'
_cell_volume   901.53725242
_cell_formula_units_Z   2
loop_
 _symmetry_equiv_pos_site_id
 _symmetry_equiv_pos_as_xyz
  1  'x, y, z'
loop_
 _atom_site_type_symbol
 _atom_site_label
 _atom_site_symmetry_multiplicity
 _atom_site_fract_x
 _atom_site_fract_y
 _atom_site_fract_z
 _atom_site_occupancy
 _atom_site_hle17_bader_spin_density
 _atom_site_hle17_ddec_charge
 _atom_site_hle17_ddec_spin_density
 _atom_site_hle17_ddec_sum_bond_order
 _atom_site_hle17_magmom
 _atom_site_hse06_10hf_bader_spin_density
 _atom_site_hse06_10hf_ddec_charge
 _atom_site_hse06_10hf_ddec_spin_density
 _atom_site_hse06_10hf_ddec_sum_bond_order
 _atom_site_hse06_10hf_magmom
 _atom_site_hse06_bader_spin_density
 _atom_site_hse06_ddec_charge
 _atom_site_hse06_ddec_spin_density
 _atom_site_hse06_ddec_sum_bond_order
 _atom_site_hse06_magmom
 _atom_site_pbe_bader_spin_density
 _atom_site_pbe_cm5_charge
 _atom_site_pbe_ddec_charge
 _atom_site_pbe_ddec_spin_density
 _atom_site_pbe_ddec_sum_bond_order
 _atom_site_pbe_magmom
Cd  Cd0  1  0.18068564  0.36630506  0.50591075  1  0  1.169835  0  1.710193  0  0  0.987163  0  2.163089  0  0  1.046305  0  2.105256  0  0  0.782258  0.945133  0  2.202666  0
Cd  Cd1  1  0.81931390  0.63369528  0.49409047  1  0  1.169841  0  1.710194  0  0  0.987174  0  2.163082  0  0  1.046316  0  2.105247  0  0  0.782258  0.945144  0  2.202659  0
H  H2  1  0.91062536  0.21233722  0.25472982  1  0  0.09192  0  0.94186  0  0  0.104777  0  0.998428  0  0  0.106878  0  0.998132  0  0  0.108112  0.103578  0  0.997653  0
H  H3  1  0.08937419  0.78766313  0.74527231  1  0  0.091886  0  0.941863  0  0  0.104741  0  0.998445  0  0  0.106851  0  0.998139  0  0  0.108106  0.103542  0  0.997671  0
H  H4  1  0.86529981  0.88353516  0.06275529  1  0  0.107859  0  0.94495  0  0  0.119204  0  1.002931  0  0  0.122038  0  1.00274  0  0  0.104781  0.117082  0  1.003145  0
H  H5  1  0.13470075  0.11646192  0.93724419  1  0  0.107872  0  0.944948  0  0  0.119196  0  1.002957  0  0  0.12203  0  1.002758  0  0  0.104803  0.117072  0  1.003178  0
H  H6  1  0.27601548  0.95449678  0.27408964  1  0  0.110739  0  0.987433  0  0  0.11844  0  1.051341  0  0  0.119963  0  1.05284  0  0  0.118637  0.117343  0  1.050514  0
H  H7  1  0.72398812  0.04550141  0.72591033  1  0  0.110771  0  0.987457  0  0  0.118472  0  1.051351  0  0  0.119996  0  1.052849  0  0  0.118662  0.117376  0  1.050522  0
H  H8  1  0.97745930  0.03259753  0.83245028  1  0  0.095463  0  0.961777  0  0  0.105356  0  1.024676  0  0  0.108698  0  1.022298  0  0  0.101317  0.10281  0  1.026542  0
H  H9  1  0.02254239  0.96739955  0.16754887  1  0  0.095491  0  0.961734  0  0  0.105377  0  1.024637  0  0  0.108718  0  1.022261  0  0  0.101335  0.102817  0  1.026517  0
H  H10  1  0.54250282  0.37458004  0.83349929  1  0  0.105721  0  0.941045  0  0  0.116353  0  0.998285  0  0  0.120229  0  0.995532  0  0  0.105628  0.113592  0  1.000293  0
H  H11  1  0.45749851  0.62541813  0.16649954  1  0  0.105731  0  0.941081  0  0  0.116361  0  0.998321  0  0  0.120236  0  0.995571  0  0  0.10564  0.113598  0  1.00033  0
H  H12  1  0.52106607  0.37788327  0.54785508  1  0  0.081387  0  0.931548  0  0  0.089179  0  0.997075  0  0  0.09168  0  0.99494  0  0  0.116777  0.087454  0  0.998376  0
H  H13  1  0.47893198  0.62211815  0.45214524  1  0  0.081363  0  0.931501  0  0  0.089149  0  0.997049  0  0  0.091642  0  0.99492  0  0  0.116774  0.087423  0  0.99835  0
H  H14  1  0.26088101  0.33411741  0.93125189  1  0  0.094834  0  0.972273  0  0  0.102581  0  1.040063  0  0  0.106007  0  1.037972  0  0  0.099734  0.10019  0  1.041445  0
H  H15  1  0.73911522  0.66588617  0.06874812  1  0  0.094911  0  0.972262  0  0  0.102644  0  1.040065  0  0  0.106069  0  1.037973  0  0  0.099728  0.100253  0  1.041446  0
H  H16  1  0.81125727  0.61677085  0.84531854  1  0  0.101418  0  0.960389  0  0  0.108859  0  1.02505  0  0  0.112424  0  1.023149  0  0  0.100275  0.106165  0  1.026657  0
H  H17  1  0.18873712  0.38323489  0.15468025  1  0  0.101483  0  0.960299  0  0  0.108934  0  1.024955  0  0  0.112499  0  1.023052  0  0  0.100305  0.106236  0  1.026568  0
H  H18  1  0.80357694  0.34505890  0.42797096  1  0  0.120808  0  0.97557  0  0  0.127133  0  1.039037  0  0  0.130394  0  1.038291  0  0  0.109471  0.124625  0  1.040168  0
H  H19  1  0.19642261  0.65494145  0.57203116  1  0  0.120799  0  0.975536  0  0  0.127122  0  1.039011  0  0  0.130381  0  1.038268  0  0  0.109461  0.124613  0  1.040143  0
H  H20  1  0.55608106  0.86620238  0.22056474  1  0  0.106958  0  0.912297  0  0  0.123061  0  0.972511  0  0  0.124371  0  0.971541  0  0  0.121572  0.122179  0  0.972998  0
H  H21  1  0.44391995  0.13379688  0.77943647  1  0  0.106978  0  0.912262  0  0  0.123079  0  0.972486  0  0  0.124388  0  0.971517  0  0  0.121578  0.122196  0  0.972974  0
H  H22  1  0.67138933  0.91277405  0.28141452  1  0  0.098359  0  0.923971  0  0  0.11128  0  0.991695  0  0  0.112553  0  0.989855  0  0  0.118758  0.110229  0  0.993094  0
H  H23  1  0.32861356  0.08722630  0.71858390  1  0  0.098319  0  0.924065  0  0  0.111283  0  0.991744  0  0  0.112554  0  0.989907  0  0  0.118759  0.110236  0  0.993136  0
H  H24  1  0.42998322  0.22936077  0.06403677  1  0  0.091432  0  0.979885  0  0  0.101428  0  1.043876  0  0  0.103948  0  1.043673  0  0  0.099778  0.099567  0  1.044145  0
H  H25  1  0.57001733  0.77063630  0.93596089  1  0  0.091463  0  0.979941  0  0  0.101454  0  1.04393  0  0  0.10398  0  1.04372  0  0  0.099791  0.099588  0  1.044207  0
H  H26  1  0.06018276  0.13529499  0.42624691  1  0  0.1089  0  0.951071  0  0  0.119869  0  1.00988  0  0  0.122084  0  1.009251  0  0  0.121518  0.118135  0  1.010179  0
H  H27  1  0.93981935  0.86470427  0.57375126  1  0  0.108902  0  0.951074  0  0  0.119899  0  1.009846  0  0  0.122119  0  1.009204  0  0  0.121524  0.118165  0  1.010148  0
H  H28  1  0.73597350  0.11437710  0.21498361  1  0  0.09889  0  0.992378  0  0  0.110104  0  1.052283  0  0  0.112561  0  1.052397  0  0  0.103408  0.108195  0  1.05235  0
H  H29  1  0.26402533  0.88562541  0.78501606  1  0  0.09889  0  0.992405  0  0  0.110113  0  1.052297  0  0  0.112567  0  1.052413  0  0  0.103429  0.108203  0  1.052364  0
C  C30  1  0.53550255  0.19156270  0.36371753  1  0  0.159495  0  3.784189  0  0  0.15953  0  4.030911  0  0  0.165207  0  4.05032  0  0  0.117221  0.15571  0  4.017599  0
C  C31  1  0.46449661  0.80843872  0.63628065  1  0  0.159532  0  3.784165  0  0  0.159566  0  4.030909  0  0  0.165241  0  4.050314  0  0  0.117279  0.155745  0  4.017605  0
C  C32  1  0.64035548  0.04732214  0.07832002  1  0  0.075262  0  3.752402  0  0  0.092619  0  3.995723  0  0  0.093956  0  4.018813  0  0  -0.010241  0.092147  0  3.979212  0
C  C33  1  0.35964508  0.95267493  0.92167855  1  0  0.075229  0  3.752398  0  0  0.092597  0  3.995727  0  0  0.093934  0  4.018817  0  0  -0.010251  0.092124  0  3.979216  0
C  C34  1  0.04029882  0.47268877  0.87637972  1  0  -0.049298  0  3.751582  0  0  -0.024781  0  3.978562  0  0  -0.031414  0  4.000768  0  0  -0.016711  -0.020331  0  3.96353  0
C  C35  1  0.95969553  0.52731373  0.12362308  1  0  -0.049396  0  3.751624  0  0  -0.024786  0  3.978497  0  0  -0.031418  0  4.000699  0  0  -0.016723  -0.020336  0  3.963461  0
C  C36  1  0.41807511  0.13934440  0.35345253  1  0  0.220702  0  3.719798  0  0  0.183527  0  3.989296  0  0  0.195454  0  4.005517  0  0  0.210783  0.175625  0  3.978029  0
C  C37  1  0.58192665  0.86065595  0.64654621  1  0  0.220713  0  3.719773  0  0  0.183533  0  3.989291  0  0  0.195462  0  4.00551  0  0  0.210778  0.17563  0  3.978028  0
C  C38  1  0.84005920  0.30496256  0.68584343  1  0  0.660673  0  3.915578  0  0  0.609313  0  4.209996  0  0  0.644882  0  4.202588  0  0  0.202527  0.585311  0  4.214365  0
C  C39  1  0.15994216  0.69503562  0.31415720  1  0  0.660627  0  3.915699  0  0  0.609288  0  4.210106  0  0  0.644846  0  4.202702  0  0  0.202514  0.585285  0  4.214473  0
C  C40  1  0.78924790  0.22673063  0.31183702  1  0  -0.005804  0  3.736961  0  0  -0.020547  0  3.981849  0  0  -0.018165  0  4.000873  0  0  -0.066878  -0.021898  0  3.968295  0
C  C41  1  0.21075164  0.77326971  0.68816420  1  0  -0.005702  0  3.736861  0  0  -0.020454  0  3.981758  0  0  -0.018077  0  4.000779  0  0  -0.066877  -0.021804  0  3.968206  0
C  C42  1  0.76712434  0.21238694  0.81951760  1  0  -0.078483  0  3.7572  0  0  -0.055087  0  3.987289  0  0  -0.063585  0  4.009866  0  0  -0.025515  -0.049982  0  3.972815  0
C  C43  1  0.23287890  0.78761233  0.18048114  1  0  -0.078417  0  3.757092  0  0  -0.055056  0  3.987211  0  0  -0.06352  0  4.009748  0  0  -0.025485  -0.049949  0  3.97273  0
C  C44  1  0.79432070  0.99085109  0.01187570  1  0  -0.126339  0  3.733152  0  0  -0.145091  0  3.982461  0  0  -0.149829  0  4.004169  0  0  -0.093221  -0.141204  0  3.966768  0
C  C45  1  0.20567984  0.00914598  0.98812197  1  0  -0.126334  0  3.733153  0  0  -0.145072  0  3.98247  0  0  -0.149808  0  4.004181  0  0  -0.093225  -0.141187  0  3.96677  0
C  C46  1  0.29060956  0.02659756  0.31357699  1  0  -0.050768  0  3.658867  0  0  -0.090923  0  3.919355  0  0  -0.090347  0  3.940681  0  0  0.010528  -0.091447  0  3.905106  0
C  C47  1  0.70939145  0.97340171  0.68642332  1  0  -0.050797  0  3.658852  0  0  -0.090952  0  3.919342  0  0  -0.090378  0  3.94067  0  0  0.010514  -0.091478  0  3.905099  0
C  C48  1  0.85683497  0.07318978  0.88406070  1  0  -0.073646  0  3.767159  0  0  -0.094715  0  4.013346  0  0  -0.093656  0  4.033185  0  0  -0.087793  -0.095455  0  4.000092  0
C  C49  1  0.14316637  0.92680839  0.11593903  1  0  -0.073664  0  3.767118  0  0  -0.094708  0  4.013296  0  0  -0.093661  0  4.033126  0  0  -0.087832  -0.095439  0  4.000044  0
C  C50  1  0.61176981  0.26649228  0.88423861  1  0  -0.062104  0  3.744507  0  0  -0.08296  0  3.988965  0  0  -0.081654  0  4.007667  0  0  -0.084873  -0.084097  0  3.976761  0
C  C51  1  0.38823266  0.73350590  0.11576078  1  0  -0.062104  0  3.744455  0  0  -0.082938  0  3.988912  0  0  -0.081642  0  4.007606  0  0  -0.08489  -0.084074  0  3.976705  0
C  C52  1  0.57344338  0.31958363  0.47351876  1  0  0.148541  0  3.703792  0  0  0.117665  0  3.964341  0  0  0.124946  0  3.980337  0  0  0.054588  0.112846  0  3.953968  0
C  C53  1  0.42655468  0.68041780  0.52648247  1  0  0.148589  0  3.703847  0  0  0.117704  0  3.964409  0  0  0.124992  0  3.980403  0  0  0.054598  0.112886  0  3.954037  0
C  C54  1  0.14701939  0.40632366  0.96314369  1  0  -0.085189  0  3.752826  0  0  -0.108155  0  4.00109  0  0  -0.109116  0  4.021303  0  0  -0.090682  -0.107367  0  3.98734  0
C  C55  1  0.85297719  0.59367883  0.03685665  1  0  -0.085293  0  3.752916  0  0  -0.108287  0  4.001147  0  0  -0.109246  0  4.021357  0  0  -0.090687  -0.107498  0  3.987398  0
C  C56  1  0.89259280  0.56650541  0.91415962  1  0  -0.082892  0  3.741414  0  0  -0.104592  0  3.988844  0  0  -0.105474  0  4.008655  0  0  -0.089663  -0.103886  0  3.975351  0
C  C57  1  0.10740308  0.43349926  0.08584007  1  0  -0.082972  0  3.741327  0  0  -0.104726  0  3.988752  0  0  -0.105607  0  4.008561  0  0  -0.089714  -0.104018  0  3.975255  0
C  C58  1  0.08517038  0.44567694  0.74293665  1  0  0.637874  0  3.934309  0  0  0.588676  0  4.222154  0  0  0.623383  0  4.215378  0  0  0.196249  0.565361  0  4.22541  0
C  C59  1  0.91482769  0.55432449  0.25706548  1  0  0.637821  0  3.934169  0  0  0.588618  0  4.221986  0  0  0.623324  0  4.215208  0  0  0.196157  0.565304  0  4.225239  0
C  C60  1  0.73083511  0.30134209  0.40617194  1  0  -0.126315  0  3.709286  0  0  -0.141971  0  3.962846  0  0  -0.148016  0  3.98363  0  0  -0.087564  -0.138988  0  3.950395  0
C  C61  1  0.26916556  0.69865826  0.59382985  1  0  -0.126423  0  3.709374  0  0  -0.142063  0  3.962927  0  0  -0.148111  0  3.983715  0  0  -0.087583  -0.13908  0  3.950478  0
C  C62  1  0.58035073  0.95962295  0.22110034  1  0  -0.045023  0  3.646131  0  0  -0.112555  0  3.894907  0  0  -0.107607  0  3.903374  0  0  -0.044602  -0.115715  0  3.889063  0
C  C63  1  0.41965140  0.04037632  0.77889963  1  0  -0.045002  0  3.646081  0  0  -0.112599  0  3.894949  0  0  -0.107648  0  3.903415  0  0  -0.044605  -0.115754  0  3.889091  0
C  C64  1  0.54929441  0.18459915  0.01266391  1  0  -0.135113  0  3.764041  0  0  -0.156519  0  4.015923  0  0  -0.16102  0  4.038052  0  0  -0.100115  -0.153461  0  4.000763  0
C  C65  1  0.45070725  0.81539792  0.98733343  1  0  -0.135219  0  3.76413  0  0  -0.156621  0  4.016016  0  0  -0.161129  0  4.038145  0  0  -0.100145  -0.153561  0  4.00086  0
C  C66  1  0.18583112  0.11621692  0.38775437  1  0  0.02729  0  3.749312  0  0  -0.008839  0  4.021239  0  0  -0.007063  0  4.041697  0  0  0.006954  -0.009537  0  4.006346  0
C  C67  1  0.81417030  0.88378451  0.61224405  1  0  0.027288  0  3.749382  0  0  -0.008856  0  4.021308  0  0  -0.007078  0  4.041769  0  0  0.006959  -0.009554  0  4.006417  0
C  C68  1  0.69164160  0.17029441  0.29021035  1  0  -0.132731  0  3.698021  0  0  -0.152089  0  3.93956  0  0  -0.157134  0  3.95941  0  0  -0.080091  -0.148352  0  3.925762  0
C  C69  1  0.30835835  0.82970810  0.70978898  1  0  -0.132742  0  3.697949  0  0  -0.152112  0  3.939508  0  0  -0.157152  0  3.959358  0  0  -0.080095  -0.148373  0  3.92571  0
N  N70  1  0.47822631  0.26734042  0.45284189  1  0  -0.354343  0  3.189814  0  0  -0.296616  0  3.451624  0  0  -0.31294  0  3.468491  0  0  -0.316641  -0.285756  0  3.440293  0
N  N71  1  0.52177210  0.73265992  0.54715876  1  0  -0.354348  0  3.189888  0  0  -0.296611  0  3.451678  0  0  -0.312934  0  3.468543  0  0  -0.316678  -0.285749  0  3.440342  0
N  N72  1  0.43673639  0.04129150  0.29261396  1  0  -0.080721  0  3.5405  0  0  0.010137  0  3.757116  0  0  -0.00448  0  3.783158  0  0  -0.233305  0.019749  0  3.739689  0
N  N73  1  0.56326426  0.95870884  0.70738512  1  0  -0.080674  0  3.540386  0  0  0.0102  0  3.757008  0  0  -0.004421  0  3.783052  0  0  -0.233294  0.019808  0  3.739586  0
N  N74  1  0.26602114  0.18461483  0.41120777  1  0  -0.398239  0  3.257937  0  0  -0.333581  0  3.542684  0  0  -0.353652  0  3.559542  0  0  -0.349445  -0.319781  0  3.530441  0
N  N75  1  0.73398028  0.81538660  0.58879156  1  0  -0.398283  0  3.258031  0  0  -0.333639  0  3.542801  0  0  -0.353709  0  3.559659  0  0  -0.349481  -0.319837  0  3.530559  0
O  O76  1  0.21092012  0.34552795  0.71946148  1  0  -0.647252  0  1.974479  0  0  -0.588653  0  2.225164  0  0  -0.617301  0  2.216047  0  0  -0.330956  -0.568286  0  2.230201  0
O  O77  1  0.78907648  0.65447456  0.28054066  1  0  -0.64719  0  1.974356  0  0  -0.588585  0  2.225016  0  0  -0.617234  0  2.215901  0  0  -0.330874  -0.568218  0  2.23005  0
O  O78  1  0.98390432  0.25092697  0.63770087  1  0  -0.649307  0  2.011859  0  0  -0.588791  0  2.263339  0  0  -0.616606  0  2.252207  0  0  -0.334021  -0.569453  0  2.270252  0
O  O79  1  0.01610008  0.74907232  0.36230115  1  0  -0.649285  0  2.011978  0  0  -0.588783  0  2.263463  0  0  -0.6166  0  2.252336  0  0  -0.334023  -0.569446  0  2.270374  0
O  O80  1  0.99735922  0.52549912  0.65734900  1  0  -0.673012  0  2.077669  0  0  -0.605563  0  2.332864  0  0  -0.634767  0  2.322059  0  0  -0.331786  -0.584678  0  2.339389  0
O  O81  1  0.00264145  0.47450123  0.34265189  1  0  -0.672986  0  2.077607  0  0  -0.60555  0  2.332794  0  0  -0.634756  0  2.321994  0  0  -0.331764  -0.584665  0  2.339319  0
O  O82  1  0.74947126  0.42978559  0.63418875  1  0  -0.657717  0  2.03233  0  0  -0.594163  0  2.289387  0  0  -0.62407  0  2.278569  0  0  -0.336757  -0.573283  0  2.296031  0
O  O83  1  0.25053088  0.57021369  0.36581304  1  0  -0.657729  0  2.032389  0  0  -0.594172  0  2.289441  0  0  -0.62408  0  2.27863  0  0  -0.336741  -0.573292  0  2.296083  0
