# generated using pymatgen
data_AlH12(C7O2)3
_symmetry_space_group_name_H-M   'P 1'
_cell_length_a   3.95766180
_cell_length_b   24.57186346
_cell_length_c   24.57458709
_cell_angle_alpha   120.00588740
_cell_angle_beta   89.99944440
_cell_angle_gamma   89.99976002
_symmetry_Int_Tables_number   1
_chemical_formula_structural   AlH12(C7O2)3
_chemical_formula_sum   'Al2 H24 C42 O12'
_cell_volume   2069.51160459
_cell_formula_units_Z   2
loop_
 _symmetry_equiv_pos_site_id
 _symmetry_equiv_pos_as_xyz
  1  'x, y, z'
loop_
 _atom_site_type_symbol
 _atom_site_label
 _atom_site_symmetry_multiplicity
 _atom_site_fract_x
 _atom_site_fract_y
 _atom_site_fract_z
 _atom_site_occupancy
 _atom_site_pbe_bader_charge
 _atom_site_pbe_bader_spin_density
 _atom_site_pbe_cm5_charge
 _atom_site_pbe_ddec_charge
 _atom_site_pbe_ddec_spin_density
 _atom_site_pbe_ddec_sum_bond_order
 _atom_site_pbe_magmom
Al  Al0  1  0.99999785  0.49998409  0.50001403  1  2.501807  0  0.423585  1.588816  0  2.580621  0
Al  Al1  1  0.99991923  0.16666030  0.83332171  1  2.501768  0  0.423539  1.588358  0  2.580892  0
H  H2  1  0.25909304  0.49155933  0.66511522  1  0.091293  0  0.108112  0.111064  0  0.987276  0
H  H3  1  0.27428282  0.43431990  0.72507655  1  0.069242  0  0.09898  0.096673  0  1.007248  0
H  H4  1  0.25905265  0.17512712  0.66820901  1  0.091919  0  0.10805  0.111001  0  0.987292  0
H  H5  1  0.27422423  0.23241296  0.60828749  1  0.069429  0  0.098964  0.096631  0  1.007296  0
H  H6  1  0.74086737  0.33177771  0.82493292  1  0.090756  0  0.10792  0.11086  0  0.986907  0
H  H7  1  0.72609689  0.39174361  0.76768892  1  0.068649  0  0.098967  0.096965  0  1.007047  0
H  H8  1  0.74083211  0.33487870  0.50842111  1  0.090563  0  0.108016  0.110868  0  0.987061  0
H  H9  1  0.72617359  0.27494986  0.56570217  1  0.067969  0  0.099034  0.096891  0  1.007334  0
H  H10  1  0.25917852  0.67355935  0.50845570  1  0.052189  0  0.108102  0.111054  0  0.987006  0
H  H11  1  0.27524230  0.79078460  0.56572948  1  0.059207  0  0.098874  0.096534  0  1.007692  0
H  H12  1  0.25926407  0.99306276  0.82483296  1  0.052511  0  0.108058  0.111021  0  0.987799  0
H  H13  1  0.27515855  0.87583792  0.76757742  1  0.059452  0  0.098868  0.096664  0  1.007046  0
H  H14  1  0.74101572  0.99318073  0.66821790  1  0.084933  0  0.107807  0.110639  0  0.986682  0
H  H15  1  0.72709471  0.87594019  0.60824023  1  0.069901  0  0.099024  0.097001  0  1.007323  0
H  H16  1  0.74119289  0.67346710  0.66509852  1  0.085897  0  0.107989  0.110929  0  0.986628  0
H  H17  1  0.72715801  0.79071489  0.72505760  1  0.059361  0  0.099029  0.097033  0  1.007351  0
H  H18  1  0.25889183  0.33489073  0.32654450  1  0.08554  0  0.107924  0.110827  0  0.986804  0
H  H19  1  0.27281392  0.27492711  0.20930337  1  0.058969  0  0.098965  0.096951  0  1.007504  0
H  H20  1  0.25890225  0.33179130  0.00684366  1  0.085777  0  0.107938  0.110763  0  0.987012  0
H  H21  1  0.27291584  0.39173021  0.12407933  1  0.070448  0  0.099028  0.097237  0  1.007514  0
H  H22  1  0.74059328  0.17515058  0.00691104  1  0.052555  0  0.108081  0.111048  0  0.987876  0
H  H23  1  0.72479638  0.23238600  0.12412968  1  0.059691  0  0.098763  0.096461  0  1.007427  0
H  H24  1  0.74070405  0.49151866  0.32642456  1  0.052811  0  0.107988  0.111108  0  0.987519  0
H  H25  1  0.72476504  0.43423944  0.20919361  1  0.059175  0  0.098844  0.096522  0  1.007529  0
C  C26  1  0.49995906  0.45155656  0.40317524  1  1.604915  0  0.274928  0.649706  0  4.068139  0
C  C27  1  0.50001499  0.45158245  0.54842544  1  1.537463  0  0.275075  0.6496  0  4.067772  0
C  C28  1  0.50009093  0.59682661  0.54840166  1  1.524159  0  0.275155  0.649745  0  4.068013  0
C  C29  1  0.49998846  0.21507309  0.78490108  1  1.538255  0  0.275121  0.649893  0  4.067611  0
C  C30  1  0.49996305  0.06984453  0.78491415  1  1.606044  0  0.275205  0.649423  0  4.068582  0
C  C31  1  0.49997111  0.21511310  0.93015507  1  1.605039  0  0.275042  0.649732  0  4.067577  0
C  C32  1  0.49998411  0.41668334  0.58330704  1  0.059031  0  -0.010974  -0.040442  0  3.968467  0
C  C33  1  0.50000670  0.24998549  0.75002572  1  0.059117  0  -0.011047  -0.040555  0  3.968427  0
C  C34  1  0.36707491  0.44455914  0.64427146  1  -0.084081  0  -0.07908  -0.08077  0  3.977293  0
C  C35  1  0.37546063  0.41242271  0.67744332  1  -0.046724  0  -0.089688  -0.135182  0  3.992627  0
C  C36  1  0.36698615  0.22214591  0.68907364  1  -0.08355  0  -0.078824  -0.08077  0  3.977357  0
C  C37  1  0.37543613  0.25429466  0.65591222  1  -0.067326  0  -0.08992  -0.135091  0  3.992421  0
C  C38  1  0.63299241  0.31094567  0.77791421  1  -0.083997  0  -0.078792  -0.08025  0  3.97684  0
C  C39  1  0.62508420  0.34409411  0.74574490  1  -0.067677  0  -0.089767  -0.135849  0  3.992793  0
C  C40  1  0.63301153  0.35572954  0.55544505  1  -0.083796  0  -0.078997  -0.08044  0  3.977453  0
C  C41  1  0.62515032  0.32259369  0.58762132  1  -0.066852  0  -0.089708  -0.135397  0  3.992376  0
C  C42  1  0.50028373  0.35068447  0.64935233  1  0.093988  0  -0.003555  0.072077  0  4.003988  0
C  C43  1  0.50027812  0.31602482  0.68401243  1  0.008579  0  -0.003413  0.072306  0  4.004715  0
C  C44  1  0.50040955  0.66661305  0.58329599  1  0.002191  0  -0.010731  -0.040444  0  3.967862  0
C  C45  1  0.50023316  0.00005446  0.75002183  1  -0.080013  0  -0.010859  -0.040532  0  3.968091  0
C  C46  1  0.36746777  0.69972385  0.55545042  1  -0.039722  0  -0.078711  -0.080173  0  3.976958  0
C  C47  1  0.37643055  0.76504279  0.58761657  1  -0.013855  0  -0.090335  -0.135981  0  3.993119  0
C  C48  1  0.36750418  0.96691709  0.77784666  1  -0.038574  0  -0.078833  -0.080551  0  3.977776  0
C  C49  1  0.37638275  0.90159472  0.74568553  1  -0.014725  0  -0.090274  -0.135775  0  3.992029  0
C  C50  1  0.63346965  0.96698931  0.68907283  1  0.082653  0  -0.078807  -0.07986  0  3.976735  0
C  C51  1  0.62605833  0.90166963  0.65589008  1  -0.140613  0  -0.089971  -0.136143  0  3.993065  0
C  C52  1  0.63362963  0.69966436  0.64425607  1  0.081873  0  -0.079029  -0.080199  0  3.976231  0
C  C53  1  0.62609778  0.76498994  0.67740854  1  -0.13007  0  -0.090058  -0.136471  0  3.993134  0
C  C54  1  0.50175704  0.79866958  0.64931654  1  0.054979  0  -0.002728  0.07329  0  4.002897  0
C  C55  1  0.50169414  0.86800076  0.68398400  1  -0.057177  0  -0.002612  0.073136  0  4.003053  0
C  C56  1  0.49965616  0.41666134  0.33339987  1  -0.077878  0  -0.010644  -0.03992  0  3.967157  0
C  C57  1  0.49951346  0.24999026  0.99994198  1  -0.078149  0  -0.01073  -0.040198  0  3.967473  0
C  C58  1  0.36628150  0.35572961  0.30033600  1  0.081061  0  -0.078726  -0.079943  0  3.977058  0
C  C59  1  0.37403116  0.32256609  0.23501558  1  -0.129852  0  -0.090033  -0.136371  0  3.99352  0
C  C60  1  0.36624796  0.31093703  0.03304515  1  0.080824  0  -0.078954  -0.080123  0  3.976292  0
C  C61  1  0.37417674  0.34410597  0.09836582  1  -0.139292  0  -0.089984  -0.136489  0  3.993452  0
C  C62  1  0.63227265  0.22212516  0.03303967  1  -0.04295  0  -0.079313  -0.080965  0  3.977815  0
C  C63  1  0.62373971  0.25427306  0.09835571  1  -0.013053  0  -0.089924  -0.135542  0  3.99222  0
C  C64  1  0.63230581  0.44452112  0.30027210  1  -0.041314  0  -0.079248  -0.081557  0  3.97649  0
C  C65  1  0.62365688  0.41235911  0.23495229  1  -0.012755  0  -0.090106  -0.135332  0  3.992356  0
C  C66  1  0.49816822  0.35066342  0.20134349  1  -0.0573  0  -0.002799  0.072997  0  4.003114  0
C  C67  1  0.49818873  0.31597122  0.13201217  1  0.054711  0  -0.00265  0.073245  0  4.003198  0
O  O68  1  0.73496957  0.56899986  0.56078419  1  -1.254983  0  -0.239418  -0.597572  0  2.366369  0
O  O69  1  0.73501043  0.49173747  0.43093865  1  -1.258611  0  -0.239151  -0.597178  0  2.365134  0
O  O70  1  0.73498099  0.43919838  0.50823479  1  -1.254448  0  -0.239188  -0.597305  0  2.366026  0
O  O71  1  0.26489321  0.56904317  0.50825899  1  -1.259559  0  -0.239303  -0.597386  0  2.365641  0
O  O72  1  0.26492562  0.49174086  0.56079093  1  -1.254743  0  -0.239251  -0.597313  0  2.366275  0
O  O73  1  0.26495596  0.43921893  0.43100923  1  -1.255299  0  -0.239344  -0.597548  0  2.366759  0
O  O74  1  0.73492958  0.17491405  0.90236820  1  -1.258491  0  -0.239142  -0.597197  0  2.365465  0
O  O75  1  0.73487564  0.22746861  0.82509973  1  -1.255095  0  -0.239194  -0.597307  0  2.36584  0
O  O76  1  0.73482641  0.09767572  0.77254907  1  -1.254477  0  -0.239256  -0.597326  0  2.367206  0
O  O77  1  0.26487845  0.22747164  0.90235481  1  -1.254998  0  -0.239247  -0.59725  0  2.36593  0
O  O78  1  0.26485782  0.09762000  0.82506733  1  -1.259527  0  -0.23926  -0.59702  0  2.366101  0
O  O79  1  0.26489111  0.17491026  0.77252709  1  -1.255168  0  -0.239398  -0.597357  0  2.365856  0
