# generated using pymatgen
data_CuH12C18S2IN6
_symmetry_space_group_name_H-M   'P 1'
_cell_length_a   8.31616579
_cell_length_b   10.70520208
_cell_length_c   11.88154217
_cell_angle_alpha   99.05409021
_cell_angle_beta   107.50840837
_cell_angle_gamma   96.78884325
_symmetry_Int_Tables_number   1
_chemical_formula_structural   CuH12C18S2IN6
_chemical_formula_sum   'Cu2 H24 C36 S4 I2 N12'
_cell_volume   980.68409825
_cell_formula_units_Z   2
loop_
 _symmetry_equiv_pos_site_id
 _symmetry_equiv_pos_as_xyz
  1  'x, y, z'
loop_
 _atom_site_type_symbol
 _atom_site_label
 _atom_site_symmetry_multiplicity
 _atom_site_fract_x
 _atom_site_fract_y
 _atom_site_fract_z
 _atom_site_occupancy
 _atom_site_hle17_bader_spin_density
 _atom_site_hle17_ddec_charge
 _atom_site_hle17_ddec_spin_density
 _atom_site_hle17_ddec_sum_bond_order
 _atom_site_hle17_magmom
 _atom_site_hse06_10hf_bader_spin_density
 _atom_site_hse06_10hf_ddec_charge
 _atom_site_hse06_10hf_ddec_spin_density
 _atom_site_hse06_10hf_ddec_sum_bond_order
 _atom_site_hse06_10hf_magmom
 _atom_site_hse06_bader_spin_density
 _atom_site_hse06_ddec_charge
 _atom_site_hse06_ddec_spin_density
 _atom_site_hse06_ddec_sum_bond_order
 _atom_site_hse06_magmom
 _atom_site_pbe_bader_spin_density
 _atom_site_pbe_cm5_charge
 _atom_site_pbe_ddec_charge
 _atom_site_pbe_ddec_spin_density
 _atom_site_pbe_ddec_sum_bond_order
 _atom_site_pbe_magmom
Cu  Cu0  1  0.38707393  0.92532852  0.90117702  1  0  0.305203  0  2.131771  0  0  0.204485  0  2.620561  0  0  0.208395  0  2.571711  0  0  0.361334  0.206312  0  2.649772  0
Cu  Cu1  1  0.61292183  0.07467368  0.09882524  1  0  0.30519  0  2.131804  0  0  0.204443  0  2.620609  0  0  0.208316  0  2.571729  0  0  0.361346  0.206279  0  2.649789  0
H  H2  1  0.27206751  0.70865743  0.00072531  1  0  0.080171  0  0.991015  0  0  0.080605  0  1.070914  0  0  0.084567  0  1.066476  0  0  0.097225  0.077362  0  1.074509  0
H  H3  1  0.72792928  0.29133809  0.99927964  1  0  0.080218  0  0.99101  0  0  0.080646  0  1.07092  0  0  0.084609  0  1.066483  0  0  0.097239  0.077402  0  1.074511  0
H  H4  1  0.49364772  0.50794582  0.69085783  1  0  0.10211  0  0.981109  0  0  0.10565  0  1.053931  0  0  0.108443  0  1.054016  0  0  0.099142  0.10359  0  1.054132  0
H  H5  1  0.50634617  0.49205922  0.30914021  1  0  0.102138  0  0.981059  0  0  0.105676  0  1.053874  0  0  0.108467  0  1.053961  0  0  0.099151  0.103615  0  1.054077  0
H  H6  1  0.49520733  0.18542547  0.61453423  1  0  0.119385  0  0.953122  0  0  0.130548  0  1.010121  0  0  0.134661  0  1.00851  0  0  0.10806  0.127431  0  1.011645  0
H  H7  1  0.50479728  0.81457675  0.38546569  1  0  0.119366  0  0.953176  0  0  0.130521  0  1.010187  0  0  0.134629  0  1.008581  0  0  0.10805  0.127403  0  1.01171  0
H  H8  1  0.36400784  0.36607542  0.80222809  1  0  0.091081  0  0.954461  0  0  0.104061  0  1.014997  0  0  0.106441  0  1.013044  0  0  0.103435  0.102349  0  1.016501  0
H  H9  1  0.63599698  0.63392775  0.19777032  1  0  0.091212  0  0.954313  0  0  0.104104  0  1.014967  0  0  0.106506  0  1.01299  0  0  0.10344  0.102393  0  1.016469  0
H  H10  1  0.57368656  0.33130076  0.48738854  1  0  0.07278  0  0.929855  0  0  0.081337  0  0.992668  0  0  0.084117  0  0.989476  0  0  0.112495  0.079236  0  0.995108  0
H  H11  1  0.42631490  0.66870432  0.51261110  1  0  0.072809  0  0.92978  0  0  0.081362  0  0.992604  0  0  0.08414  0  0.989415  0  0  0.112533  0.079262  0  0.995042  0
H  H12  1  0.51170082  0.74435625  0.74520669  1  0  0.071334  0  0.955909  0  0  0.076688  0  1.027714  0  0  0.079809  0  1.024448  0  0  0.102397  0.074031  0  1.030588  0
H  H13  1  0.48828653  0.25564780  0.25479236  1  0  0.071299  0  0.955953  0  0  0.076634  0  1.027778  0  0  0.079757  0  1.024508  0  0  0.102355  0.073973  0  1.03065  0
H  H14  1  0.06946250  0.15621776  0.00808352  1  0  0.066596  0  0.977466  0  0  0.072635  0  1.047189  0  0  0.075243  0  1.044484  0  0  0.092499  0.070093  0  1.049857  0
H  H15  1  0.93054396  0.84377588  0.99191985  1  0  0.066641  0  0.977529  0  0  0.072686  0  1.047226  0  0  0.075279  0  1.044535  0  0  0.092524  0.070142  0  1.049897  0
H  H16  1  0.19050182  0.26190172  0.87103686  1  0  0.10935  0  0.978628  0  0  0.118397  0  1.042439  0  0  0.120399  0  1.044319  0  0  0.10214  0.116652  0  1.04186  0
H  H17  1  0.80950803  0.73809578  0.12896775  1  0  0.10937  0  0.978562  0  0  0.118432  0  1.042354  0  0  0.120437  0  1.044228  0  0  0.102149  0.11667  0  1.041794  0
H  H18  1  0.90075826  0.15568791  0.55626658  1  0  0.10677  0  0.935478  0  0  0.114999  0  0.998242  0  0  0.119429  0  0.993472  0  0  0.107322  0.111688  0  1.001693  0
H  H19  1  0.09924317  0.84431138  0.44372807  1  0  0.106829  0  0.935425  0  0  0.115036  0  0.998221  0  0  0.11948  0  0.993434  0  0  0.107344  0.111728  0  1.001667  0
H  H20  1  0.79703692  0.00493418  0.67498127  1  0  0.09911  0  0.965718  0  0  0.109378  0  1.024295  0  0  0.112603  0  1.024047  0  0  0.09387  0.107025  0  1.024655  0
H  H21  1  0.20296158  0.99506897  0.32501833  1  0  0.099031  0  0.965828  0  0  0.109329  0  1.024366  0  0  0.112538  0  1.024135  0  0  0.093854  0.106977  0  1.024719  0
H  H22  1  0.41215857  0.09329187  0.73313732  1  0  0.066047  0  1.007877  0  0  0.071234  0  1.08222  0  0  0.074846  0  1.07858  0  0  0.09378  0.068489  0  1.084962  0
H  H23  1  0.58784201  0.90670360  0.26686000  1  0  0.06605  0  1.007856  0  0  0.071236  0  1.082199  0  0  0.074849  0  1.07856  0  0  0.093784  0.068493  0  1.084936  0
H  H24  1  0.00885395  0.90467672  0.81178812  1  0  0.090486  0  0.940941  0  0  0.092484  0  1.016522  0  0  0.096699  0  1.011608  0  0  0.110238  0.089371  0  1.020132  0
H  H25  1  0.99114520  0.09532933  0.18821454  1  0  0.090424  0  0.94096  0  0  0.092457  0  1.016496  0  0  0.096655  0  1.0116  0  0  0.110222  0.089335  0  1.020122  0
C  C26  1  0.30657073  0.52675557  0.91067363  1  0  -0.050642  0  3.774652  0  0  -0.027842  0  4.004078  0  0  -0.03606  0  4.028099  0  0  -0.010315  -0.022601  0  3.988141  0
C  C27  1  0.69342648  0.47324183  0.08932661  1  0  -0.050682  0  3.774828  0  0  -0.027714  0  4.004029  0  0  -0.035914  0  4.028054  0  0  -0.010286  -0.022473  0  3.988088  0
C  C28  1  0.14320047  0.45300872  0.14739724  1  0  0.355484  0  3.817893  0  0  0.342254  0  4.100699  0  0  0.358579  0  4.113124  0  0  0.24244  0.331497  0  4.092322  0
C  C29  1  0.85679927  0.54698870  0.85260437  1  0  0.355621  0  3.817964  0  0  0.342402  0  4.100724  0  0  0.358731  0  4.113149  0  0  0.242478  0.331644  0  4.092355  0
C  C30  1  0.31913746  0.66052657  0.93235338  1  0  0.111743  0  3.636084  0  0  0.072437  0  3.885027  0  0  0.079997  0  3.899547  0  0  0.044689  0.067378  0  3.876311  0
C  C31  1  0.68085661  0.33947370  0.06764742  1  0  0.111654  0  3.636331  0  0  0.072287  0  3.88527  0  0  0.079832  0  3.899794  0  0  0.044611  0.067229  0  3.876549  0
C  C32  1  0.23033514  0.45277034  0.98253706  1  0  0.263883  0  3.774489  0  0  0.2583  0  4.0178  0  0  0.270205  0  4.035731  0  0  0.13129  0.250543  0  4.005633  0
C  C33  1  0.76966439  0.54722611  0.01746354  1  0  0.2639  0  3.77444  0  0  0.258242  0  4.017772  0  0  0.270138  0  4.035722  0  0  0.131251  0.250487  0  4.005599  0
C  C34  1  0.17506046  0.35871816  0.43476919  1  0  0.353143  0  3.807427  0  0  0.342344  0  4.090339  0  0  0.359411  0  4.101488  0  0  0.242132  0.33075  0  4.082853  0
C  C35  1  0.82494371  0.64128216  0.56523123  1  0  0.353119  0  3.807395  0  0  0.342235  0  4.090457  0  0  0.359302  0  4.101613  0  0  0.242118  0.330642  0  4.082974  0
C  C36  1  0.43952647  0.54726531  0.75875682  1  0  -0.112889  0  3.734987  0  0  -0.123665  0  3.987354  0  0  -0.131779  0  4.010191  0  0  -0.091695  -0.118655  0  3.972558  0
C  C37  1  0.56046720  0.45273877  0.24124188  1  0  -0.112929  0  3.734974  0  0  -0.123718  0  3.987335  0  0  -0.131834  0  4.010182  0  0  -0.091698  -0.11871  0  3.972534  0
C  C38  1  0.23001414  0.21913046  0.56368939  1  0  0.268235  0  3.772371  0  0  0.263771  0  4.018238  0  0  0.275709  0  4.037274  0  0  0.134874  0.255875  0  4.005424  0
C  C39  1  0.76998813  0.78086694  0.43630855  1  0  0.26832  0  3.772319  0  0  0.263864  0  4.018175  0  0  0.275801  0  4.037208  0  0  0.134864  0.255967  0  4.005365  0
C  C40  1  0.39985151  0.23396325  0.56249605  1  0  -0.238408  0  3.694441  0  0  -0.254501  0  3.938868  0  0  -0.26645  0  3.958759  0  0  -0.094357  -0.246793  0  3.926011  0
C  C41  1  0.60015183  0.76603895  0.43750192  1  0  -0.2384  0  3.694566  0  0  -0.254492  0  3.938995  0  0  -0.266433  0  3.958886  0  0  -0.09436  -0.246784  0  3.92614  0
C  C42  1  0.36768450  0.46945764  0.82093730  1  0  -0.034761  0  3.684991  0  0  -0.064881  0  3.936022  0  0  -0.058922  0  3.951753  0  0  -0.0725  -0.068816  0  3.925643  0
C  C43  1  0.63231336  0.53054262  0.17906009  1  0  -0.034788  0  3.68497  0  0  -0.06489  0  3.93595  0  0  -0.058954  0  3.951673  0  0  -0.072446  -0.068827  0  3.925567  0
C  C44  1  0.44360734  0.31505399  0.49148444  1  0  0.183589  0  3.729651  0  0  0.155122  0  3.992561  0  0  0.166482  0  4.00552  0  0  0.062154  0.147522  0  3.983921  0
C  C45  1  0.55639748  0.68494919  0.50851565  1  0  0.183538  0  3.729688  0  0  0.155074  0  3.992603  0  0  0.166435  0  4.005558  0  0  0.062136  0.147474  0  3.983965  0
C  C46  1  0.44965115  0.67958656  0.78796451  1  0  0.123612  0  3.6783  0  0  0.091801  0  3.928181  0  0  0.099239  0  3.944568  0  0  0.035963  0.086853  0  3.918025  0
C  C47  1  0.55033999  0.32041751  0.21203450  1  0  0.123662  0  3.678195  0  0  0.091888  0  3.928043  0  0  0.09933  0  3.944418  0  0  0.03597  0.086946  0  3.917875  0
C  C48  1  0.11080940  0.26008757  0.02745526  1  0  0.194508  0  3.699393  0  0  0.166952  0  3.957405  0  0  0.17812  0  3.970322  0  0  0.055274  0.159092  0  3.950045  0
C  C49  1  0.88919730  0.73991277  0.97254654  1  0  0.194409  0  3.699628  0  0  0.16689  0  3.957586  0  0  0.17807  0  3.970505  0  0  0.055278  0.15903  0  3.950229  0
C  C50  1  0.17929258  0.31901837  0.95160944  1  0  -0.212621  0  3.673102  0  0  -0.230954  0  3.921743  0  0  -0.242064  0  3.942851  0  0  -0.091411  -0.224098  0  3.908866  0
C  C51  1  0.82070947  0.68097809  0.04839001  1  0  -0.212578  0  3.673  0  0  -0.230937  0  3.921648  0  0  -0.242047  0  3.942753  0  0  -0.091419  -0.224066  0  3.908781  0
C  C52  1  0.16399869  0.13447864  0.63291714  1  0  -0.047559  0  3.778671  0  0  -0.025918  0  4.010301  0  0  -0.034532  0  4.035164  0  0  -0.009279  -0.020838  0  3.994151  0
C  C53  1  0.83600084  0.86551778  0.36707925  1  0  -0.047736  0  3.778868  0  0  -0.026081  0  4.010495  0  0  -0.034702  0  4.03537  0  0  -0.009277  -0.020987  0  3.994311  0
C  C54  1  0.98826209  0.10987187  0.61818002  1  0  -0.037804  0  3.695441  0  0  -0.068371  0  3.949599  0  0  -0.06165  0  3.964072  0  0  -0.068097  -0.071797  0  3.938569  0
C  C55  1  0.01173387  0.89012549  0.38181658  1  0  -0.037816  0  3.695523  0  0  -0.068399  0  3.949718  0  0  -0.061688  0  3.964182  0  0  -0.068113  -0.071828  0  3.938684  0
C  C56  1  0.93165997  0.02679266  0.68259508  1  0  -0.111426  0  3.748856  0  0  -0.11981  0  3.994772  0  0  -0.128011  0  4.016173  0  0  -0.089502  -0.11467  0  3.979852  0
C  C57  1  0.06833663  0.97320759  0.31740288  1  0  -0.111327  0  3.74881  0  0  -0.119718  0  3.994709  0  0  -0.127905  0  4.016118  0  0  -0.089487  -0.114578  0  3.97978  0
C  C58  1  0.27366029  0.07592390  0.71433500  1  0  0.076833  0  3.670636  0  0  0.04192  0  3.913758  0  0  0.049241  0  3.927469  0  0  0.035795  0.037079  0  3.905153  0
C  C59  1  0.72634157  0.92407736  0.28566505  1  0  0.076871  0  3.670696  0  0  0.041974  0  3.913795  0  0  0.0493  0  3.92751  0  0  0.035752  0.037128  0  3.905191  0
C  C60  1  0.04951825  0.97104030  0.76068478  1  0  0.139315  0  3.630909  0  0  0.107094  0  3.883067  0  0  0.116358  0  3.896223  0  0  0.044956  0.101527  0  3.874404  0
C  C61  1  0.95048026  0.02896286  0.23931566  1  0  0.139378  0  3.630737  0  0  0.107138  0  3.882907  0  0  0.11642  0  3.896063  0  0  0.044984  0.101572  0  3.87423  0
S  S62  1  0.13125126  0.55493683  0.27771447  1  0  -0.010693  0  2.429756  0  0  -0.021513  0  2.805012  0  0  -0.024213  0  2.801733  0  0  0.050526  -0.019661  0  2.807603  0
S  S63  1  0.86874553  0.44505864  0.72228457  1  0  -0.010729  0  2.429657  0  0  -0.021562  0  2.804909  0  0  -0.024264  0  2.801628  0  0  0.050521  -0.019702  0  2.807496  0
S  S64  1  0.01219076  0.43555651  0.35539323  1  0  0.014679  0  2.523074  0  0  -0.002715  0  2.9098  0  0  -0.005683  0  2.908046  0  0  0.057987  -0.000578  0  2.911672  0
S  S65  1  0.98780686  0.56443703  0.64460320  1  0  0.014702  0  2.522975  0  0  -0.002661  0  2.909724  0  0  -0.005626  0  2.907969  0  0  0.057994  -0.000524  0  2.911598  0
I  I66  1  0.30736942  0.97472641  0.10245635  1  0  -0.481811  0  1.42589  0  0  -0.430428  0  1.83396  0  0  -0.449145  0  1.798986  0  0  -0.207998  -0.41322  0  1.855267  0
I  I67  1  0.69263137  0.02527006  0.89754536  1  0  -0.481844  0  1.425841  0  0  -0.430445  0  1.833873  0  0  -0.449162  0  1.798905  0  0  -0.207998  -0.413231  0  1.855174  0
N  N68  1  0.20952808  0.52035072  0.08164095  1  0  -0.416413  0  3.030835  0  0  -0.378896  0  3.294108  0  0  -0.395426  0  3.306981  0  0  -0.316913  -0.368191  0  3.28566  0
N  N69  1  0.79046997  0.47964478  0.91836005  1  0  -0.416578  0  3.030945  0  0  -0.379056  0  3.294259  0  0  -0.395577  0  3.307107  0  0  -0.316974  -0.368352  0  3.285812  0
N  N70  1  0.09330377  0.32632296  0.12784745  1  0  -0.383325  0  3.049177  0  0  -0.34716  0  3.320808  0  0  -0.363034  0  3.334198  0  0  -0.318558  -0.337278  0  3.312592  0
N  N71  1  0.90670229  0.67367452  0.87215635  1  0  -0.383321  0  3.049403  0  0  -0.347177  0  3.321022  0  0  -0.363052  0  3.334407  0  0  -0.318558  -0.337289  0  3.312795  0
N  N72  1  0.38884974  0.73601770  0.87284168  1  0  -0.273935  0  3.386845  0  0  -0.197989  0  3.676461  0  0  -0.209824  0  3.685099  0  0  -0.36296  -0.191821  0  3.671552  0
N  N73  1  0.61114497  0.26398544  0.12715880  1  0  -0.273904  0  3.386727  0  0  -0.197943  0  3.676325  0  0  -0.209764  0  3.68493  0  0  -0.362923  -0.191775  0  3.671398  0
N  N74  1  0.11763402  0.28299668  0.49907030  1  0  -0.418128  0  3.030829  0  0  -0.385091  0  3.295692  0  0  -0.401517  0  3.307796  0  0  -0.316134  -0.374357  0  3.287995  0
N  N75  1  0.88236868  0.71700265  0.50092883  1  0  -0.418142  0  3.030777  0  0  -0.385062  0  3.295628  0  0  -0.401489  0  3.307736  0  0  -0.31612  -0.374331  0  3.287935  0
N  N76  1  0.33218652  0.37813512  0.42591382  1  0  -0.377632  0  3.055819  0  0  -0.340935  0  3.323722  0  0  -0.356654  0  3.3373  0  0  -0.31506  -0.330078  0  3.314405  0
N  N77  1  0.66781430  0.62186709  0.57408698  1  0  -0.377608  0  3.055839  0  0  -0.340872  0  3.32374  0  0  -0.356591  0  3.337322  0  0  -0.315057  -0.330016  0  3.314424  0
N  N78  1  0.21938396  0.99631426  0.77801618  1  0  -0.257388  0  3.350178  0  0  -0.183826  0  3.640385  0  0  -0.194017  0  3.646465  0  0  -0.357244  -0.1783  0  3.636456  0
N  N79  1  0.78061559  0.00368797  0.22198688  1  0  -0.257384  0  3.350157  0  0  -0.183836  0  3.640366  0  0  -0.194033  0  3.646431  0  0  -0.357224  -0.178309  0  3.636421  0
