# generated using pymatgen
data_HgH3C4(NCl)2
_symmetry_space_group_name_H-M   'P 1'
_cell_length_a   3.94888392
_cell_length_b   9.35293830
_cell_length_c   18.94175751
_cell_angle_alpha   89.99993435
_cell_angle_beta   90.00054001
_cell_angle_gamma   101.06476260
_symmetry_Int_Tables_number   1
_chemical_formula_structural   HgH3C4(NCl)2
_chemical_formula_sum   'Hg4 H12 C16 N8 Cl8'
_cell_volume   686.58384206
_cell_formula_units_Z   4
loop_
 _symmetry_equiv_pos_site_id
 _symmetry_equiv_pos_as_xyz
  1  'x, y, z'
loop_
 _atom_site_type_symbol
 _atom_site_label
 _atom_site_symmetry_multiplicity
 _atom_site_fract_x
 _atom_site_fract_y
 _atom_site_fract_z
 _atom_site_occupancy
 _atom_site_hle17_bader_spin_density
 _atom_site_hle17_ddec_charge
 _atom_site_hle17_ddec_spin_density
 _atom_site_hle17_ddec_sum_bond_order
 _atom_site_hle17_magmom
 _atom_site_hse06_10hf_bader_spin_density
 _atom_site_hse06_10hf_ddec_charge
 _atom_site_hse06_10hf_ddec_spin_density
 _atom_site_hse06_10hf_ddec_sum_bond_order
 _atom_site_hse06_10hf_magmom
 _atom_site_hse06_bader_spin_density
 _atom_site_hse06_ddec_charge
 _atom_site_hse06_ddec_spin_density
 _atom_site_hse06_ddec_sum_bond_order
 _atom_site_hse06_magmom
 _atom_site_pbe_bader_spin_density
 _atom_site_pbe_cm5_charge
 _atom_site_pbe_ddec_charge
 _atom_site_pbe_ddec_spin_density
 _atom_site_pbe_ddec_sum_bond_order
 _atom_site_pbe_magmom
Hg  Hg0  1  0.22257604  0.73562792  0.86349331  1  0  0.749163  0  2.10986  0  0  0.595711  0  2.61027  0  0  0.647241  0  2.573615  0  0  0.490674  0.560219  0  2.634994  0
Hg  Hg1  1  0.27740954  0.76436848  0.36349540  1  0  0.74924  0  2.109872  0  0  0.59578  0  2.610307  0  0  0.647312  0  2.573647  0  0  0.490713  0.560287  0  2.635032  0
Hg  Hg2  1  0.77741896  0.26436836  0.13650603  1  0  0.749238  0  2.109792  0  0  0.595784  0  2.610209  0  0  0.647315  0  2.573551  0  0  0.49072  0.560293  0  2.634938  0
Hg  Hg3  1  0.72258747  0.23562670  0.63650604  1  0  0.749178  0  2.109843  0  0  0.59573  0  2.610262  0  0  0.647258  0  2.573608  0  0  0.490697  0.560239  0  2.634991  0
H  H4  1  0.59919384  0.87497317  0.02344015  1  0  0.084742  0  0.96386  0  0  0.088246  0  1.037623  0  0  0.091126  0  1.034154  0  0  0.099933  0.086047  0  1.040298  0
H  H5  1  0.90082603  0.62502004  0.52344165  1  0  0.084743  0  0.963938  0  0  0.088305  0  1.037651  0  0  0.091167  0  1.034201  0  0  0.09996  0.086106  0  1.040332  0
H  H6  1  0.40079678  0.12503514  0.97655866  1  0  0.084736  0  0.963914  0  0  0.08826  0  1.037652  0  0  0.09115  0  1.034173  0  0  0.099955  0.086061  0  1.04033  0
H  H7  1  0.09917611  0.37498058  0.47656085  1  0  0.084659  0  0.963991  0  0  0.088218  0  1.037705  0  0  0.091096  0  1.034238  0  0  0.099938  0.086018  0  1.040386  0
H  H8  1  0.52853776  0.83733475  0.15571767  1  0  0.131745  0  0.956984  0  0  0.137041  0  1.021296  0  0  0.140664  0  1.02014  0  0  0.100953  0.134361  0  1.022453  0
H  H9  1  0.97146963  0.66266304  0.65571719  1  0  0.131701  0  0.957024  0  0  0.137023  0  1.021334  0  0  0.140637  0  1.020185  0  0  0.100906  0.134346  0  1.022491  0
H  H10  1  0.47145034  0.16267357  0.84428061  1  0  0.131651  0  0.957144  0  0  0.136961  0  1.021425  0  0  0.140586  0  1.02027  0  0  0.100902  0.134282  0  1.022586  0
H  H11  1  0.02852797  0.33733869  0.34428320  1  0  0.131624  0  0.957004  0  0  0.136939  0  1.021337  0  0  0.140567  0  1.020176  0  0  0.100902  0.134262  0  1.022492  0
H  H12  1  0.16338826  0.59781852  0.19647123  1  0  0.087447  0  0.939879  0  0  0.092616  0  1.008745  0  0  0.095165  0  1.005186  0  0  0.108066  0.090675  0  1.011383  0
H  H13  1  0.33661642  0.90217433  0.69647298  1  0  0.087399  0  0.939837  0  0  0.092513  0  1.008784  0  0  0.095096  0  1.005189  0  0  0.108049  0.090573  0  1.01142  0
H  H14  1  0.83661440  0.40218318  0.80352864  1  0  0.087341  0  0.940005  0  0  0.092513  0  1.008884  0  0  0.095059  0  1.005326  0  0  0.108035  0.090573  0  1.011525  0
H  H15  1  0.66338965  0.09781863  0.30352952  1  0  0.087388  0  0.939967  0  0  0.092562  0  1.00883  0  0  0.095106  0  1.005274  0  0  0.108042  0.090621  0  1.011466  0
C  C16  1  0.09192025  0.55478834  0.02553296  1  0  0.305704  0  3.746592  0  0  0.284258  0  4.000989  0  0  0.297564  0  4.016516  0  0  0.244065  0.275416  0  3.990309  0
C  C17  1  0.40809793  0.94521081  0.52553589  1  0  0.305675  0  3.74675  0  0  0.2844  0  4.000981  0  0  0.297663  0  4.016545  0  0  0.244151  0.275559  0  3.990299  0
C  C18  1  0.90809052  0.44521442  0.97446532  1  0  0.305653  0  3.747002  0  0  0.284383  0  4.001218  0  0  0.297648  0  4.016779  0  0  0.244091  0.275541  0  3.990535  0
C  C19  1  0.59191528  0.05478648  0.47446766  1  0  0.305722  0  3.746635  0  0  0.284259  0  4.001039  0  0  0.297564  0  4.016563  0  0  0.244084  0.275417  0  3.990356  0
C  C20  1  0.44070235  0.77693228  0.04569190  1  0  0.187544  0  3.649285  0  0  0.152806  0  3.906778  0  0  0.162944  0  3.922443  0  0  0.061831  0.146305  0  3.896074  0
C  C21  1  0.05932174  0.72306687  0.54569053  1  0  0.187465  0  3.649326  0  0  0.152653  0  3.906896  0  0  0.162805  0  3.922561  0  0  0.061781  0.146153  0  3.896196  0
C  C22  1  0.55928470  0.22307386  0.95430690  1  0  0.187536  0  3.648957  0  0  0.152768  0  3.906484  0  0  0.162898  0  3.922143  0  0  0.061817  0.146271  0  3.895781  0
C  C23  1  0.94068240  0.27693265  0.45430828  1  0  0.187603  0  3.649318  0  0  0.152811  0  3.906848  0  0  0.162952  0  3.922513  0  0  0.061881  0.146311  0  3.896148  0
C  C24  1  0.40414420  0.75578887  0.11827120  1  0  -0.137659  0  3.648121  0  0  -0.147896  0  3.895766  0  0  -0.158265  0  3.916644  0  0  -0.073138  -0.141373  0  3.882046  0
C  C25  1  0.09586375  0.74420716  0.61827253  1  0  -0.137501  0  3.647974  0  0  -0.147772  0  3.895684  0  0  -0.15813  0  3.916576  0  0  -0.073006  -0.141248  0  3.881962  0
C  C26  1  0.59583371  0.24421404  0.88172655  1  0  -0.137556  0  3.647911  0  0  -0.147791  0  3.895604  0  0  -0.158162  0  3.916481  0  0  -0.073071  -0.141269  0  3.88189  0
C  C27  1  0.90413935  0.25579018  0.38172892  1  0  -0.137369  0  3.648059  0  0  -0.147667  0  3.89577  0  0  -0.158036  0  3.916644  0  0  -0.073049  -0.141144  0  3.882049  0
C  C28  1  0.20435104  0.62456018  0.14080272  1  0  0.191676  0  3.659645  0  0  0.157879  0  3.914892  0  0  0.168311  0  3.930879  0  0  0.067112  0.151157  0  3.904044  0
C  C29  1  0.29565090  0.87544245  0.64080651  1  0  0.191718  0  3.659438  0  0  0.157942  0  3.914758  0  0  0.168347  0  3.930732  0  0  0.067109  0.151221  0  3.903908  0
C  C30  1  0.79564866  0.37544590  0.85919239  1  0  0.191882  0  3.659384  0  0  0.158054  0  3.914682  0  0  0.168493  0  3.930657  0  0  0.067172  0.15133  0  3.903838  0
C  C31  1  0.70435526  0.12455597  0.35919493  1  0  0.191644  0  3.659608  0  0  0.157852  0  3.914886  0  0  0.168288  0  3.93087  0  0  0.067101  0.151132  0  3.904034  0
N  N32  1  0.28378956  0.67720145  0.99933083  1  0  -0.356092  0  3.147685  0  0  -0.299369  0  3.413476  0  0  -0.32006  0  3.431091  0  0  -0.302829  -0.285378  0  3.401194  0
N  N33  1  0.21622971  0.82280042  0.49933013  1  0  -0.356099  0  3.147894  0  0  -0.299367  0  3.413613  0  0  -0.320049  0  3.431244  0  0  -0.302838  -0.285376  0  3.401332  0
N  N34  1  0.71622433  0.32280785  0.00066903  1  0  -0.356112  0  3.147838  0  0  -0.299402  0  3.413551  0  0  -0.320086  0  3.431187  0  0  -0.302825  -0.285412  0  3.401272  0
N  N35  1  0.78377190  0.17719911  0.50067026  1  0  -0.356124  0  3.147775  0  0  -0.299355  0  3.413561  0  0  -0.320049  0  3.431182  0  0  -0.302847  -0.285364  0  3.401279  0
N  N36  1  0.05287143  0.52388092  0.09449274  1  0  -0.352395  0  3.172214  0  0  -0.292151  0  3.435257  0  0  -0.31375  0  3.453889  0  0  -0.301368  -0.277533  0  3.422288  0
N  N37  1  0.44713454  0.97611836  0.59449574  1  0  -0.352401  0  3.172241  0  0  -0.292182  0  3.435236  0  0  -0.313773  0  3.453893  0  0  -0.301411  -0.277567  0  3.422272  0
N  N38  1  0.94713882  0.47612075  0.90550607  1  0  -0.352462  0  3.172308  0  0  -0.29224  0  3.435292  0  0  -0.313841  0  3.453958  0  0  -0.301383  -0.277624  0  3.422334  0
N  N39  1  0.55287309  0.02387786  0.40550677  1  0  -0.352465  0  3.172139  0  0  -0.292192  0  3.435156  0  0  -0.313802  0  3.453811  0  0  -0.301414  -0.277576  0  3.422191  0
Cl  Cl40  1  0.91842718  0.92304284  0.90098681  1  0  -0.438484  0  1.114009  0  0  -0.376876  0  1.421355  0  0  -0.397718  0  1.403155  0  0  -0.241573  -0.362309  0  1.433832  0
Cl  Cl41  1  0.58155629  0.57695205  0.40098648  1  0  -0.438517  0  1.114033  0  0  -0.376907  0  1.421391  0  0  -0.397754  0  1.403202  0  0  -0.241585  -0.362338  0  1.433873  0
Cl  Cl42  1  0.08156128  0.07695565  0.09901094  1  0  -0.438489  0  1.114017  0  0  -0.376871  0  1.421348  0  0  -0.397719  0  1.403158  0  0  -0.241562  -0.362301  0  1.433826  0
Cl  Cl43  1  0.41844072  0.42304313  0.59901496  1  0  -0.438484  0  1.114005  0  0  -0.376885  0  1.421371  0  0  -0.39773  0  1.403178  0  0  -0.241583  -0.362313  0  1.433852  0
Cl  Cl44  1  0.51475296  0.63464069  0.77032594  1  0  -0.453384  0  1.061201  0  0  -0.392311  0  1.352667  0  0  -0.413249  0  1.335058  0  0  -0.253772  -0.377641  0  1.364669  0
Cl  Cl45  1  0.98523154  0.86535733  0.27032789  1  0  -0.453411  0  1.061219  0  0  -0.392347  0  1.352695  0  0  -0.413283  0  1.335084  0  0  -0.253796  -0.377674  0  1.364695  0
Cl  Cl46  1  0.48524761  0.36535666  0.22967340  1  0  -0.453431  0  1.061187  0  0  -0.392367  0  1.352671  0  0  -0.413306  0  1.335061  0  0  -0.253811  -0.377695  0  1.364674  0
Cl  Cl47  1  0.01476547  0.13463785  0.72967303  1  0  -0.453383  0  1.061193  0  0  -0.392318  0  1.35267  0  0  -0.41326  0  1.335071  0  0  -0.253781  -0.377642  0  1.364673  0
