# generated using pymatgen
data_CoH29C41N3O4
_symmetry_space_group_name_H-M   'P 1'
_cell_length_a   11.67824336
_cell_length_b   12.00369493
_cell_length_c   25.03431681
_cell_angle_alpha   89.80429229
_cell_angle_beta   94.06681676
_cell_angle_gamma   89.95662917
_symmetry_Int_Tables_number   1
_chemical_formula_structural   CoH29C41N3O4
_chemical_formula_sum   'Co4 H116 C164 N12 O16'
_cell_volume   3500.50369762
_cell_formula_units_Z   4
loop_
 _symmetry_equiv_pos_site_id
 _symmetry_equiv_pos_as_xyz
  1  'x, y, z'
loop_
 _atom_site_type_symbol
 _atom_site_label
 _atom_site_symmetry_multiplicity
 _atom_site_fract_x
 _atom_site_fract_y
 _atom_site_fract_z
 _atom_site_occupancy
 _atom_site_pbe_bader_charge
 _atom_site_pbe_bader_spin_density
 _atom_site_pbe_cm5_charge
 _atom_site_pbe_ddec_charge
 _atom_site_pbe_ddec_spin_density
 _atom_site_pbe_ddec_sum_bond_order
 _atom_site_pbe_magmom
Co  Co0  1  0.87714000  0.69869550  0.33826786  1  1.254681  2.601742  0.687936  0.788036  2.871916  2.482029  2.569
Co  Co1  1  0.12390242  0.20093869  0.16097730  1  1.254135  2.604549  0.680783  0.785169  2.87605  2.466801  2.572
Co  Co2  1  0.11811457  0.29457094  0.66071359  1  1.128506  0.998363  0.664009  0.620573  1.077736  2.921599  0.969
Co  Co3  1  0.87836881  0.80159082  0.83819042  1  1.252738  2.600107  0.688549  0.788057  2.871612  2.49274  2.567
H  H4  1  0.91784574  0.59183306  0.77277660  1  0.131667  0.001149  0.122343  0.109553  8.2e-05  1.002677  0.001
H  H5  1  0.07930922  0.09261257  0.72320718  1  0.141451  -3.6e-05  0.124339  0.110015  -0.000188  1.00977  0.0
H  H6  1  0.08880515  0.40908224  0.22794679  1  0.158817  0.001134  0.12024  0.104579  0.000121  1.003831  0.001
H  H7  1  0.91425854  0.90670011  0.27253435  1  0.14105  0.001161  0.120486  0.105555  0.000114  1.005549  0.001
H  H8  1  0.81030105  0.47218980  0.70698752  1  0.157434  0.000518  0.112365  0.137135  0.000171  1.039403  0.0
H  H9  1  0.18624216  0.97879434  0.79114396  1  0.164652  -4.5e-05  0.112472  0.137961  -5.5e-05  1.040187  0.0
H  H10  1  0.19543953  0.52488626  0.29580258  1  0.148234  0.000555  0.111133  0.1359  0.000239  1.047467  0.0
H  H11  1  0.80739676  0.02576950  0.20567264  1  0.166563  0.000556  0.111502  0.136107  0.000245  1.045028  0.0
H  H12  1  0.53269024  0.71250988  0.70539015  1  0.09585  0.000784  0.096474  0.100993  0.000372  1.065864  0.0
H  H13  1  0.45998752  0.22249181  0.79049911  1  0.092197  -5.4e-05  0.098117  0.103594  -1.6e-05  1.053554  0.0
H  H14  1  0.47311597  0.28520819  0.29445928  1  0.075612  0.000817  0.096295  0.100679  0.000381  1.066266  0.0
H  H15  1  0.52944564  0.78633258  0.20553568  1  0.095  0.000827  0.097069  0.101674  0.000388  1.063577  0.0
H  H16  1  0.65301587  0.82129289  0.77248883  1  0.08003  0.001401  0.112606  0.07884  0.000186  1.028165  0.001
H  H17  1  0.34036263  0.32601135  0.72167951  1  0.098818  -4.8e-05  0.116683  0.088221  -0.000204  1.03432  0.0
H  H18  1  0.35291191  0.17980946  0.22609808  1  0.082126  0.001417  0.11247  0.078449  0.000218  1.025794  0.001
H  H19  1  0.64996090  0.67761828  0.27301705  1  0.09233  0.001454  0.112499  0.078048  0.000222  1.027776  0.001
H  H20  1  0.51096856  0.56063912  0.64399922  1  0.05639  1.5e-05  0.097394  0.09776  3.2e-05  1.029043  0.0
H  H21  1  0.48441754  0.07052453  0.85401248  1  0.082282  8e-05  0.097287  0.100007  6.8e-05  1.028592  0.0
H  H22  1  0.49562399  0.43565328  0.35747053  1  0.087542  0.000143  0.097272  0.099918  0.000117  1.032321  0.0
H  H23  1  0.50751962  0.93966387  0.14354978  1  0.075767  0.000144  0.097726  0.100444  0.000115  1.031618  0.0
H  H24  1  0.71742743  0.39960151  0.64427446  1  0.095336  4.6e-05  0.103126  0.104558  -7.3e-05  1.050303  0.0
H  H25  1  0.28168775  0.90507403  0.85292339  1  0.098519  2.7e-05  0.102621  0.106954  -4.5e-05  1.05759  0.0
H  H26  1  0.28958981  0.59695756  0.35805586  1  0.104445  7.1e-05  0.102426  0.105137  -2.9e-05  1.054429  0.0
H  H27  1  0.71521378  0.09909283  0.14391382  1  0.105891  7.5e-05  0.102758  0.105128  -3.1e-05  1.05496  0.0
H  H28  1  0.71807679  0.26256757  0.58183655  1  0.053525  -4.1e-05  0.100419  0.103004  -0.000124  1.03277  0.0
H  H29  1  0.27902840  0.77060294  0.91645852  1  0.074934  -2.8e-05  0.100632  0.103102  -0.000123  1.03534  0.0
H  H30  1  0.28847207  0.73279941  0.42029757  1  0.107235  -4e-06  0.100629  0.103395  -0.000103  1.03075  0.0
H  H31  1  0.71746418  0.23598802  0.08115862  1  0.067823  -1.6e-05  0.100735  0.103491  -0.000111  1.030627  0.0
H  H32  1  0.45212904  0.23303979  0.45439970  1  0.059997  -6e-05  0.100813  0.101739  -0.000104  1.018307  0.0
H  H33  1  0.54506266  0.73806446  0.04376822  1  0.037804  -5.8e-05  0.099654  0.099899  -8.2e-05  1.019416  0.0
H  H34  1  0.55483673  0.76496406  0.54741041  1  0.029151  -8e-05  0.099485  0.100607  -9.9e-05  1.021132  0.0
H  H35  1  0.45211243  0.26783713  0.95342993  1  0.047746  -6.7e-05  0.099821  0.10021  -0.000104  1.022464  0.0
H  H36  1  0.42443262  0.47998244  0.57693378  1  0.051012  -9.5e-05  0.104756  0.106701  -0.000139  1.019688  0.0
H  H37  1  0.57515867  0.98432224  0.92029477  1  0.100141  0.000182  0.103976  0.108402  6.5e-05  1.027939  0.0
H  H38  1  0.58430644  0.51846216  0.42468021  1  0.086617  0.000184  0.103769  0.10842  8.8e-05  1.029431  0.0
H  H39  1  0.42120686  0.02268973  0.07724983  1  0.101673  0.000189  0.103999  0.108628  6.3e-05  1.02944  0.0
H  H40  1  0.74457262  0.13678186  0.50886269  1  0.027444  -7.8e-05  0.099859  0.092081  -0.000145  1.021777  0.0
H  H41  1  0.25187926  0.64444731  0.99024916  1  0.0393  -2.3e-05  0.100196  0.09236  -0.000116  1.02252  0.0
H  H42  1  0.26211136  0.86001643  0.49184319  1  0.074184  -5e-06  0.099015  0.091061  -8e-05  1.024758  0.0
H  H43  1  0.74456901  0.36214877  0.00780309  1  0.068969  -1.6e-05  0.0996  0.09178  -0.000123  1.021175  0.0
H  H44  1  0.51451477  0.05923952  0.45316336  1  0.063392  -7.8e-05  0.101025  0.100248  -1e-05  1.028878  0.0
H  H45  1  0.48258655  0.56500055  0.04490320  1  0.029184  -3.6e-05  0.10065  0.1001  1.3e-05  1.027744  0.0
H  H46  1  0.48974006  0.93788406  0.54976907  1  0.022825  -2.1e-05  0.099717  0.099117  2e-06  1.0315  0.0
H  H47  1  0.51417551  0.44156851  0.95275222  1  0.057799  -6.2e-05  0.100442  0.09931  0.0  1.034282  0.0
H  H48  1  0.84286971  0.04399782  0.45541032  1  0.068771  0.001087  0.105421  0.111513  0.000514  1.002253  0.0
H  H49  1  0.15386435  0.54744091  0.04308110  1  0.082116  0.001056  0.105476  0.111399  0.000502  1.001182  0.0
H  H50  1  0.16168086  0.94909016  0.54452189  1  0.062374  0.000987  0.103871  0.108911  0.000432  1.005465  0.0
H  H51  1  0.84228505  0.45534868  0.95481315  1  0.0709  0.001076  0.105132  0.111034  0.000508  1.002569  0.0
H  H52  1  0.93997945  0.89526890  0.40690606  1  0.105281  0.001949  0.114073  0.084063  0.000592  1.040736  0.001
H  H53  1  0.05882740  0.39687295  0.09152837  1  0.088978  0.001892  0.113879  0.083286  0.000578  1.042032  0.001
H  H54  1  0.05898685  0.10000705  0.58840988  1  0.084646  0.002014  0.113536  0.08239  0.000566  1.043684  0.001
H  H55  1  0.94009928  0.60496758  0.90682913  1  0.105922  0.001947  0.114201  0.084466  0.000592  1.044766  0.001
H  H56  1  0.63430092  0.73306205  0.36673046  1  0.12821  0.001362  0.118818  0.094627  0.000113  1.024195  0.001
H  H57  1  0.36656972  0.23745561  0.13178426  1  0.143359  0.001341  0.118706  0.093421  0.000101  1.022578  0.001
H  H58  1  0.35985245  0.26883523  0.63046558  1  0.103499  0.001786  0.11728  0.088966  0.000414  1.017338  0.001
H  H59  1  0.63512863  0.76927920  0.86676671  1  0.144731  0.001382  0.11861  0.094411  0.000104  1.026154  0.001
H  H60  1  0.52090016  0.88115845  0.40870089  1  0.08775  0.000894  0.105051  0.115256  0.000414  1.023803  0.0
H  H61  1  0.47795370  0.38719357  0.08962301  1  0.103786  0.000873  0.104759  0.114772  0.000408  1.023598  0.0
H  H62  1  0.47845042  0.11977415  0.59259365  1  0.094795  0.001019  0.103622  0.113138  0.00042  1.026131  0.0
H  H63  1  0.52096714  0.62088100  0.90847119  1  0.088948  0.000918  0.104664  0.114679  0.000427  1.02545  0.0
H  H64  1  0.30311253  0.35541394  0.44507862  1  0.051997  -1e-06  0.100445  0.093087  -7.4e-05  1.019453  0.0
H  H65  1  0.69282119  0.86100098  0.05368456  1  0.037475  -1.2e-05  0.099077  0.090744  -6e-05  1.02042  0.0
H  H66  1  0.70357593  0.64181617  0.55740223  1  0.044622  -7.5e-05  0.099179  0.091565  -0.000106  1.0188  0.0
H  H67  1  0.30341245  0.14379259  0.94384821  1  0.058527  9e-06  0.099292  0.091005  -5.6e-05  1.021756  0.0
H  H68  1  0.25759438  0.51083278  0.53886865  1  0.059437  3.5e-05  0.102027  0.103635  4.2e-05  1.018526  0.0
H  H69  1  0.74397679  0.01248764  0.95886183  1  0.079566  3.9e-05  0.10212  0.106982  1.8e-05  1.0226  0.0
H  H70  1  0.75021652  0.48765430  0.46330315  1  0.060166  3e-06  0.102759  0.107186  3e-06  1.018441  0.0
H  H71  1  0.25512243  0.99353938  0.03963471  1  0.059935  4.4e-05  0.102575  0.107734  1.8e-05  1.021497  0.0
H  H72  1  0.15660986  0.39300680  0.40017660  1  0.07697  0.000828  0.108495  0.115542  0.000381  1.004246  0.0
H  H73  1  0.84156807  0.89624227  0.09887766  1  0.053058  0.000826  0.107852  0.115162  0.000374  1.003698  0.0
H  H74  1  0.85092496  0.59930779  0.60370734  1  0.089097  3e-06  0.109169  0.116713  2.6e-05  1.001792  0.0
H  H75  1  0.15478245  0.10895649  0.90018184  1  0.080262  0.000829  0.108184  0.115121  0.000381  1.003551  0.0
H  H76  1  0.00584722  0.48574331  0.34210696  1  0.133557  0.001595  0.122055  0.097104  0.000513  1.010093  0.001
H  H77  1  0.99236993  0.98797508  0.15694269  1  0.147979  0.001543  0.121291  0.096579  0.0005  1.008629  0.001
H  H78  1  0.99507844  0.49979033  0.66237060  1  0.172135  0.000457  0.125815  0.103994  0.000266  1.02837  0.0
H  H79  1  0.00476667  0.01587692  0.84217680  1  0.094608  0.001598  0.121113  0.095756  0.000499  1.012634  0.001
H  H80  1  0.94982197  0.72243322  0.45724239  1  0.079159  0.001633  0.111372  0.072953  0.000389  1.025605  0.001
H  H81  1  0.04911583  0.22535697  0.04154388  1  0.073673  0.001577  0.110867  0.071602  0.000382  1.025379  0.001
H  H82  1  0.04669792  0.26424076  0.54586874  1  0.092782  -0.000103  0.11507  0.078391  -0.000291  1.038208  0.0
H  H83  1  0.95153793  0.77696825  0.95737525  1  0.084252  0.001638  0.111129  0.07274  0.000399  1.023957  0.001
H  H84  1  0.10376711  0.64362377  0.52005864  1  0.075169  0.000981  0.105343  0.113284  0.000452  0.996092  0.0
H  H85  1  0.89571067  0.14734091  0.97869611  1  0.055517  0.00095  0.105549  0.113339  0.000422  0.996771  0.0
H  H86  1  0.89995138  0.35091999  0.48240200  1  0.073921  -0.000164  0.106283  0.114836  -8.7e-05  0.994326  0.0
H  H87  1  0.10453201  0.85646242  0.02020195  1  0.067911  0.000974  0.1053  0.112838  0.000437  0.996236  0.0
H  H88  1  0.72885668  0.37663033  0.39209630  1  0.072075  9.7e-05  0.09424  0.090748  4e-06  1.039343  0.0
H  H89  1  0.27180368  0.87830445  0.10757774  1  0.064799  0.000139  0.094863  0.09133  3.6e-05  1.039192  0.0
H  H90  1  0.25505426  0.60466387  0.61200948  1  0.030418  -1e-06  0.092362  0.087697  -4.4e-05  1.04469  0.0
H  H91  1  0.72726470  0.12281058  0.89143065  1  0.078565  0.000128  0.094477  0.090238  3.3e-05  1.043417  0.0
H  H92  1  0.67044251  0.17755067  0.38874752  1  0.080048  -5.4e-05  0.087004  0.08412  -0.000129  1.074157  0.0
H  H93  1  0.33000139  0.67925727  0.11131109  1  0.043911  -5.1e-05  0.087068  0.084041  -0.000122  1.073782  0.0
H  H94  1  0.32551033  0.80042907  0.60776295  1  0.071695  -6e-05  0.086355  0.083601  -8.8e-05  1.069259  0.0
H  H95  1  0.66714095  0.32155163  0.88730575  1  0.104748  -4.2e-05  0.087541  0.085051  -0.000115  1.070146  0.0
H  H96  1  0.63639923  0.08358975  0.29983099  1  0.069765  -0.0  0.098606  0.09713  -5.1e-05  1.006842  0.0
H  H97  1  0.36410322  0.58466702  0.20038824  1  0.032364  5e-06  0.098512  0.096646  -5e-05  1.007359  0.0
H  H98  1  0.37065468  0.90563782  0.69263324  1  0.062007  9e-06  0.097851  0.096159  -1.4e-05  1.005767  0.0
H  H99  1  0.63305491  0.41520465  0.79800221  1  0.075274  -2e-06  0.098293  0.096241  -4.8e-05  1.008954  0.0
H  H100  1  0.65974063  0.19109216  0.21662447  1  0.12669  -1.2e-05  0.099254  0.100001  -8.8e-05  1.044804  0.0
H  H101  1  0.34074565  0.69171285  0.28341846  1  0.129677  -1.1e-05  0.099238  0.100437  -8.3e-05  1.042783  0.0
H  H102  1  0.35208563  0.81182623  0.78021881  1  0.094972  -8.4e-05  0.099265  0.101137  -0.000112  1.035127  0.0
H  H103  1  0.65860005  0.30809118  0.71525442  1  0.103219  -1e-06  0.097647  0.095909  -8.5e-05  1.049877  0.0
H  H104  1  0.58039050  0.50947395  0.22308251  1  0.030319  0.000209  0.09839  0.096433  7.3e-05  1.014978  0.0
H  H105  1  0.41848704  0.01145524  0.27620161  1  0.065244  0.000204  0.098703  0.096941  7.3e-05  1.013853  0.0
H  H106  1  0.42486676  0.49463273  0.78153502  1  0.059619  0.000155  0.097092  0.095134  4.9e-05  1.016728  0.0
H  H107  1  0.58153940  0.99121298  0.72284625  1  0.054832  6.1e-05  0.09957  0.097951  1.8e-05  1.011021  0.0
H  H108  1  0.58190719  0.62140315  0.13984366  1  0.068599  5.5e-05  0.094304  0.087796  3.8e-05  1.025415  0.0
H  H109  1  0.41732274  0.12171325  0.35956081  1  0.043496  6.1e-05  0.094227  0.087616  3.9e-05  1.02651  0.0
H  H110  1  0.41900855  0.38121114  0.86415473  1  0.047414  3.5e-05  0.09395  0.086429  2.2e-05  1.026701  0.0
H  H111  1  0.58365122  0.87848926  0.64026244  1  0.046879  4e-05  0.095083  0.087792  3.6e-05  1.026139  0.0
H  H112  1  0.72759924  0.57952166  0.07347301  1  0.057976  -6e-06  0.093074  0.089286  -3.5e-05  1.013652  0.0
H  H113  1  0.27352096  0.07711811  0.42660674  1  0.043309  -8e-06  0.09304  0.088975  -3.2e-05  1.015608  0.0
H  H114  1  0.26932865  0.42172732  0.92881799  1  0.044201  -1.7e-05  0.092516  0.088365  -4.4e-05  1.016733  0.0
H  H115  1  0.72967571  0.91958252  0.57381209  1  0.052337  -2.3e-05  0.093113  0.089226  -3.3e-05  1.015411  0.0
H  H116  1  0.87069734  0.42922129  0.09377683  1  0.042087  0.000272  0.094806  0.087853  0.000105  1.027144  0.0
H  H117  1  0.13193713  0.92572811  0.40678386  1  0.045749  0.000278  0.094608  0.088154  0.000104  1.025489  0.0
H  H118  1  0.12774352  0.57311714  0.90772393  1  0.037183  0.000294  0.094719  0.086994  0.00012  1.026789  0.0
H  H119  1  0.87332308  0.06908258  0.59379966  1  0.061967  1.7e-05  0.095286  0.088508  -2.9e-05  1.031434  0.0
C  C120  1  0.83258793  0.61606877  0.75627783  1  0.507221  -0.005523  0.044881  0.097907  -0.005898  3.920382  -0.004
C  C121  1  0.16315339  0.11961606  0.73987706  1  0.393711  -0.003446  0.042537  0.083088  -0.003592  3.903988  -0.002
C  C122  1  0.17373520  0.38397581  0.24452228  1  0.48215  -0.005312  0.042811  0.095234  -0.005658  3.931424  -0.004
C  C123  1  0.82926769  0.88253710  0.25583742  1  0.431311  -0.005364  0.042414  0.094409  -0.005779  3.934898  -0.004
C  C124  1  0.77160891  0.54999793  0.71898392  1  -0.034322  0.005228  -0.085139  -0.182449  0.002572  3.909781  0.004
C  C125  1  0.22445838  0.05638464  0.77835588  1  -0.057862  0.00068  -0.084771  -0.179993  -4.1e-05  3.912832  0.001
C  C126  1  0.23433526  0.44795969  0.28281051  1  -0.101127  0.005229  -0.086532  -0.184753  0.002625  3.911622  0.004
C  C127  1  0.76854435  0.94830462  0.21816870  1  -0.113504  0.005361  -0.086369  -0.184975  0.002698  3.91657  0.004
C  C128  1  0.66160159  0.58396085  0.69824139  1  -0.147654  -0.009035  -0.002398  0.136194  -0.009203  4.048969  -0.006
C  C129  1  0.33391869  0.09162618  0.79920232  1  -0.018245  -0.004766  -0.001222  0.139224  -0.00485  4.040934  -0.003
C  C130  1  0.34446080  0.41342739  0.30318680  1  0.018051  -0.008591  -0.001927  0.137981  -0.008811  4.038055  -0.006
C  C131  1  0.65837283  0.91459392  0.19772442  1  0.008183  -0.00866  -0.00183  0.140213  -0.008859  4.04417  -0.006
C  C132  1  0.61824811  0.68301590  0.71880876  1  -0.033029  0.006092  -0.094063  -0.189265  0.002958  3.95732  0.005
C  C133  1  0.37517646  0.19072486  0.77738513  1  -0.050175  0.000728  -0.092303  -0.186453  4e-06  3.958126  0.001
C  C134  1  0.38762095  0.31543061  0.28140730  1  -0.133521  0.005941  -0.09329  -0.189136  0.002916  3.952377  0.005
C  C135  1  0.61502686  0.81574293  0.21875467  1  -0.052465  0.006059  -0.0933  -0.189341  0.002965  3.953213  0.005
C  C136  1  0.68501508  0.74416157  0.75620944  1  0.485355  -0.007282  0.038605  0.087243  -0.007695  3.97912  -0.005
C  C137  1  0.30878119  0.24960574  0.73878989  1  0.463162  -0.00403  0.037266  0.073889  -0.004295  3.94891  -0.002
C  C138  1  0.32087965  0.25612063  0.24319071  1  0.514575  -0.006837  0.038871  0.088798  -0.007184  3.973965  -0.004
C  C139  1  0.68191307  0.75463597  0.25639923  1  0.476209  -0.00682  0.038586  0.088631  -0.007209  3.975328  -0.004
C  C140  1  0.59492232  0.52460643  0.65615463  1  -0.019475  0.003631  -0.091902  -0.135106  0.001626  3.967949  0.003
C  C141  1  0.40123282  0.03334324  0.84170479  1  -0.162951  0.002145  -0.093578  -0.140435  0.000954  3.965225  0.002
C  C142  1  0.41150515  0.47163810  0.34566750  1  -0.127943  0.003315  -0.092481  -0.136895  0.0015  3.960497  0.002
C  C143  1  0.59181113  0.97460454  0.15564261  1  -0.135846  0.003706  -0.092918  -0.138989  0.001718  3.966153  0.003
C  C144  1  0.63343205  0.43399164  0.63088746  1  -0.090339  -0.00869  -0.084976  -0.120634  -0.00886  3.976556  -0.005
C  C145  1  0.36444643  0.94123506  0.86682412  1  0.063762  -0.004959  -0.084541  -0.119509  -0.005073  3.965552  -0.003
C  C146  1  0.37350179  0.56208399  0.37129144  1  -0.024882  -0.007743  -0.084266  -0.116828  -0.00792  3.964242  -0.005
C  C147  1  0.63110448  0.06529988  0.13048125  1  0.022036  -0.007936  -0.083762  -0.117082  -0.008125  3.971346  -0.005
C  C148  1  0.57682636  0.37769390  0.58495291  1  -0.061683  0.002018  -0.009729  0.111506  0.000824  4.059516  0.002
C  C149  1  0.42113239  0.88456922  0.91294215  1  -0.01701  0.001652  -0.009355  0.109972  0.000679  4.047323  0.002
C  C150  1  0.43036330  0.61844412  0.41722219  1  0.040373  0.001579  -0.010223  0.1101  0.000629  4.05036  0.002
C  C151  1  0.57507715  0.12244063  0.08451450  1  0.002303  0.001966  -0.009943  0.110708  0.00081  4.058457  0.002
C  C152  1  0.63572054  0.28891373  0.56264706  1  0.017067  -0.008481  -0.07952  -0.16578  -0.008665  3.884432  -0.005
C  C153  1  0.36161056  0.79614623  0.93552763  1  -0.04303  -0.007321  -0.078603  -0.163897  -0.007469  3.881456  -0.004
C  C154  1  0.37108472  0.70706881  0.43948283  1  -0.077511  -0.006151  -0.079444  -0.166339  -0.006252  3.885231  -0.004
C  C155  1  0.63484092  0.21057324  0.06203449  1  -0.049025  -0.007964  -0.079873  -0.166011  -0.00812  3.887082  -0.005
C  C156  1  0.59069389  0.23353931  0.51661263  1  -0.021162  0.002218  -0.01669  0.101329  0.000845  4.093872  0.002
C  C157  1  0.40629612  0.74019775  0.98169124  1  -0.026848  0.001963  -0.018333  0.098991  0.000756  4.090941  0.002
C  C158  1  0.41606523  0.76316704  0.48532697  1  -0.032823  0.001579  -0.018814  0.100124  0.000634  4.099491  0.002
C  C159  1  0.59022083  0.26628688  0.01584053  1  -0.023547  0.002152  -0.018159  0.099152  0.000827  4.099693  0.002
C  C160  1  0.48615808  0.27099474  0.49176151  1  0.023038  -0.009636  -0.083375  -0.17318  -0.009875  3.899135  -0.006
C  C161  1  0.51116828  0.77668689  0.00638915  1  -0.029243  -0.007904  -0.084046  -0.174034  -0.00808  3.903263  -0.005
C  C162  1  0.52093557  0.72645550  0.51015524  1  -0.031348  -0.008106  -0.085951  -0.178737  -0.008309  3.906375  -0.005
C  C163  1  0.48561204  0.22964252  0.99095790  1  -0.021595  -0.009101  -0.084072  -0.174506  -0.009318  3.903402  -0.006
C  C164  1  0.42481121  0.35857027  0.51339313  1  -0.073952  0.001918  -0.011222  0.107596  0.000706  4.081333  0.002
C  C165  1  0.57312051  0.86397457  0.98462714  1  -0.021898  0.0016  -0.010813  0.106408  0.000539  4.072678  0.002
C  C166  1  0.58273961  0.63902103  0.48863561  1  -0.017896  0.001373  -0.011026  0.106814  0.000415  4.073389  0.002
C  C167  1  0.42359933  0.14259782  0.01280116  1  -0.025222  0.001776  -0.01137  0.107361  0.00061  4.078182  0.002
C  C168  1  0.47057592  0.41082889  0.56030304  1  0.029704  -0.010037  -0.073301  -0.14888  -0.010279  3.854811  -0.006
C  C169  1  0.52773126  0.91668932  0.93753244  1  -0.011516  -0.00837  -0.071201  -0.13903  -0.008545  3.839764  -0.005
C  C170  1  0.53706772  0.58619899  0.44178680  1  -0.062846  -0.006864  -0.069961  -0.138596  -0.006979  3.839249  -0.004
C  C171  1  0.46863270  0.09024448  0.05997702  1  -0.004492  -0.009139  -0.070593  -0.140129  -0.009334  3.843956  -0.005
C  C172  1  0.65337796  0.14067232  0.49570514  1  -0.020568  -0.015259  -0.081176  -0.109413  -0.015658  3.979365  -0.009
C  C173  1  0.34331702  0.64757042  0.00298591  1  -0.02438  -0.01474  -0.080128  -0.10726  -0.015112  3.975885  -0.009
C  C174  1  0.35284064  0.85598727  0.50585595  1  -0.070789  -0.0082  -0.083706  -0.115177  -0.00836  3.989762  -0.005
C  C175  1  0.65323499  0.35892307  0.99485701  1  -0.077836  -0.015014  -0.08089  -0.108039  -0.015341  3.983873  -0.009
C  C176  1  0.60724756  0.06070601  0.46284493  1  -0.06177  0.004742  -0.09293  -0.149776  0.001909  4.000119  0.004
C  C177  1  0.38972538  0.56681326  0.03564405  1  -0.028198  0.004639  -0.094448  -0.15286  0.001891  4.002578  0.004
C  C178  1  0.39736150  0.93601500  0.53917745  1  -0.017078  0.00249  -0.093206  -0.147853  0.000987  3.998296  0.002
C  C179  1  0.60694080  0.43965183  0.96220995  1  -0.043566  0.004776  -0.094442  -0.152871  0.001928  4.009398  0.004
C  C180  1  0.67176104  0.97412807  0.43808461  1  -0.001732  -0.016493  0.000567  0.141534  -0.016837  4.040332  -0.011
C  C181  1  0.32599847  0.47942425  0.06047902  1  -0.020529  -0.016094  0.000479  0.141882  -0.016454  4.041371  -0.01
C  C182  1  0.33078792  0.02266143  0.56270774  1  -0.028796  -0.008716  -0.001781  0.138523  -0.008907  4.044669  -0.006
C  C183  1  0.67151823  0.52644835  0.93756595  1  -0.022894  -0.016335  -0.000435  0.139247  -0.016643  4.048796  -0.011
C  C184  1  0.79237080  0.97574980  0.43740687  1  -0.07765  0.007494  -0.090226  -0.184278  0.003549  3.961761  0.006
C  C185  1  0.20538250  0.47963851  0.06118941  1  -0.045207  0.007415  -0.089961  -0.183341  0.003502  3.958255  0.006
C  C186  1  0.21002138  0.01931300  0.56193197  1  -0.04803  0.005173  -0.090831  -0.182939  0.002566  3.969562  0.004
C  C187  1  0.79209971  0.52425352  0.93695507  1  -0.081674  0.007456  -0.089525  -0.18189  0.003532  3.963543  0.006
C  C188  1  0.84776429  0.89286719  0.41099788  1  0.460314  -0.007431  0.037045  0.077916  -0.007628  3.978265  -0.004
C  C189  1  0.15109630  0.39567517  0.08759387  1  0.497042  -0.007362  0.036529  0.078151  -0.007519  3.978078  -0.004
C  C190  1  0.15158393  0.10354126  0.58580562  1  0.470007  -0.003305  0.034154  0.071617  -0.003856  3.990011  -0.002
C  C191  1  0.84787834  0.60751711  0.91085123  1  0.465032  -0.007314  0.035734  0.075977  -0.007528  3.980754  -0.004
C  C192  1  0.67629816  0.80396561  0.38670794  1  0.433073  -0.012014  0.046903  0.095024  -0.012756  3.935209  -0.007
C  C193  1  0.32360517  0.30824551  0.11185125  1  0.451069  -0.011796  0.047266  0.097643  -0.01251  3.935214  -0.007
C  C194  1  0.31979045  0.19624292  0.61101259  1  0.523096  -0.005526  0.044288  0.088921  -0.006055  3.943567  -0.003
C  C195  1  0.67671069  0.69772531  0.88662570  1  0.466478  -0.012002  0.046303  0.095316  -0.01269  3.933902  -0.007
C  C196  1  0.61422665  0.88588556  0.41090973  1  -0.010519  0.007915  -0.081974  -0.168712  0.00365  3.921035  0.007
C  C197  1  0.38456735  0.39113333  0.08754932  1  -0.076945  0.007758  -0.083618  -0.171935  0.003564  3.921299  0.006
C  C198  1  0.38517637  0.11344569  0.58926662  1  -0.039573  0.005711  -0.084878  -0.172928  0.002781  3.929038  0.005
C  C199  1  0.61428852  0.61563870  0.91067116  1  -0.047872  0.008069  -0.083398  -0.169371  0.003716  3.923702  0.007
C  C200  1  0.31896309  0.39397837  0.48439777  1  -0.053112  -0.011008  -0.080203  -0.103885  -0.011297  3.977666  -0.007
C  C201  1  0.67880056  0.89878314  0.01395299  1  -0.037708  -0.009744  -0.079297  -0.099588  -0.010015  3.970831  -0.006
C  C202  1  0.68841162  0.60353605  0.51794784  1  -0.029528  -0.010944  -0.080567  -0.102092  -0.011266  3.969773  -0.007
C  C203  1  0.31813351  0.10693347  0.98374408  1  -0.014528  -0.010042  -0.079523  -0.101007  -0.010314  3.972302  -0.006
C  C204  1  0.24390476  0.47127309  0.49971875  1  -0.016931  0.003851  -0.089268  -0.133518  0.001601  3.974671  0.003
C  C205  1  0.75544180  0.97472411  0.99862647  1  -0.008973  0.00347  -0.089354  -0.135638  0.001395  3.966721  0.003
C  C206  1  0.76329015  0.52570832  0.50283372  1  0.003473  0.003239  -0.09022  -0.136268  0.001209  3.975555  0.003
C  C207  1  0.24259102  0.03067705  0.99977014  1  -0.064154  0.003613  -0.08968  -0.136079  0.001488  3.970666  0.003
C  C208  1  0.14769613  0.51240126  0.46551583  1  0.039999  -0.010832  0.003593  0.144656  -0.011133  4.047871  -0.007
C  C209  1  0.85093884  0.01579093  0.03326728  1  -0.119001  -0.01012  0.004  0.146205  -0.010322  4.039933  -0.006
C  C210  1  0.85755012  0.48181535  0.53741409  1  -0.003297  -0.01088  0.002589  0.142583  -0.01109  4.048319  -0.007
C  C211  1  0.14717547  0.98862749  0.96554163  1  0.032702  -0.010235  0.003825  0.145359  -0.010514  4.044695  -0.007
C  C212  1  0.11462540  0.46659569  0.41497966  1  0.013551  0.00493  -0.08409  -0.177737  0.002295  3.93946  0.004
C  C213  1  0.88363952  0.96991343  0.08402072  1  -0.020329  0.004633  -0.083933  -0.178432  0.002181  3.937734  0.004
C  C214  1  0.89076555  0.52487882  0.58852459  1  -0.058995  0.002076  -0.083733  -0.176288  0.0006  3.940342  0.002
C  C215  1  0.11373504  0.03464635  0.91493487  1  0.010722  0.004675  -0.08325  -0.175755  0.002188  3.938812  0.004
C  C216  1  0.02961765  0.51710365  0.38213439  1  0.42199  -0.005333  0.04529  0.096176  -0.005505  3.953552  -0.003
C  C217  1  0.96873035  0.01993838  0.11689628  1  0.456384  -0.004973  0.045572  0.095945  -0.005135  3.95236  -0.003
C  C218  1  0.97232652  0.47072306  0.62188158  1  0.448774  -0.005559  0.044826  0.081174  -0.0051  3.921282  -0.003
C  C219  1  0.02908981  0.98398357  0.88216235  1  0.472655  -0.005044  0.043994  0.092806  -0.005195  3.953728  -0.003
C  C220  1  0.99946251  0.65047461  0.44584662  1  0.501555  -0.008222  0.038595  0.08631  -0.00861  3.981556  -0.005
C  C221  1  0.99931524  0.15352547  0.05307972  1  0.461065  -0.007599  0.038431  0.087545  -0.008033  3.979491  -0.005
C  C222  1  0.99965709  0.33744465  0.55740280  1  0.451666  -0.010107  0.039353  0.073942  -0.010845  3.953759  -0.006
C  C223  1  0.00042517  0.84952948  0.94594659  1  0.50426  -0.007842  0.038462  0.085858  -0.008237  3.980557  -0.005
C  C224  1  0.08504830  0.60578648  0.48084137  1  -0.136551  0.005899  -0.089259  -0.185837  0.002683  3.959074  0.005
C  C225  1  0.91391891  0.10920061  0.01801583  1  0.043195  0.005592  -0.08952  -0.186734  0.002553  3.95764  0.004
C  C226  1  0.91791933  0.38697150  0.52206711  1  -0.049742  0.002148  -0.089274  -0.186312  0.000483  3.965953  0.002
C  C227  1  0.08547627  0.89454206  0.98092916  1  -0.135095  0.005726  -0.088684  -0.184467  0.002605  3.956362  0.005
C  C228  1  0.77273230  0.51263866  0.31523305  1  1.534386  -0.003404  0.192679  0.541471  -0.004158  4.227054  -0.005
C  C229  1  0.22780225  0.01429691  0.18414729  1  1.557016  -0.0034  0.193425  0.543456  -0.004138  4.224905  -0.005
C  C230  1  0.20159977  0.48842144  0.69789042  1  1.540669  -0.001213  0.194891  0.53443  -0.001274  4.228217  -0.001
C  C231  1  0.77321165  0.98727760  0.81476704  1  1.541576  -0.003457  0.192606  0.542061  -0.004224  4.228038  -0.005
C  C232  1  0.73166599  0.39497716  0.30692548  1  -0.027583  0.00203  -0.014059  -0.068805  0.001064  3.925159  0.001
C  C233  1  0.26887162  0.89642653  0.19273839  1  -0.109556  0.001888  -0.014188  -0.068981  0.00094  3.921157  0.001
C  C234  1  0.26174095  0.59924367  0.69789791  1  -0.050547  -0.001621  -0.01475  -0.068434  -0.002019  3.929775  -0.001
C  C235  1  0.73183621  0.10484085  0.80636199  1  -0.049786  0.001811  -0.014744  -0.069725  0.000923  3.928693  0.001
C  C236  1  0.71430218  0.33427632  0.35377869  1  -0.091435  0.002555  -0.097471  -0.114611  0.001284  4.024168  0.002
C  C237  1  0.28630297  0.83586815  0.14602743  1  -0.036948  0.002549  -0.096966  -0.113863  0.001303  4.019533  0.002
C  C238  1  0.27750979  0.65104316  0.64863291  1  -0.067659  0.000733  -0.098873  -0.115013  0.000277  4.023465  0.0
C  C239  1  0.71301962  0.16518686  0.85296483  1  -0.050695  0.002461  -0.097232  -0.113277  0.001251  4.018405  0.002
C  C240  1  0.68159635  0.22291546  0.35178604  1  -0.043008  -4e-05  -0.105942  -0.101423  -0.00018  4.05128  0.0
C  C241  1  0.31894421  0.72440410  0.14821315  1  -0.053977  -3e-05  -0.105352  -0.100376  -0.000175  4.049737  0.0
C  C242  1  0.31624233  0.76064760  0.64637819  1  -0.069398  -7.4e-05  -0.10632  -0.102409  -0.000108  4.051011  0.0
C  C243  1  0.67911475  0.27625574  0.85052544  1  -0.144971  -0.000134  -0.104298  -0.099136  -0.000272  4.04674  0.0
C  C244  1  0.66242851  0.17082018  0.30213548  1  -0.044017  0.002547  -0.092692  -0.077671  0.001306  4.008948  0.001
C  C245  1  0.33810847  0.67195781  0.19793807  1  -0.044736  0.002511  -0.092915  -0.077285  0.001283  4.01126  0.001
C  C246  1  0.34200810  0.81922037  0.69387714  1  -0.082194  0.000551  -0.094728  -0.082321  0.000272  4.015346  0.0
C  C247  1  0.65992373  0.32819271  0.80065703  1  -0.05901  0.002444  -0.092774  -0.078596  0.001253  4.009475  0.001
C  C248  1  0.67682376  0.23073806  0.25531767  1  -0.08753  -0.000218  -0.083171  -0.10501  -0.000326  3.957758  0.0
C  C249  1  0.32371945  0.73162872  0.24463464  1  -0.037972  -0.000228  -0.083683  -0.106124  -0.000325  3.959451  0.0
C  C250  1  0.33049181  0.76716027  0.74312857  1  0.017224  -1.4e-05  -0.083951  -0.105588  -9.4e-05  3.958286  0.0
C  C251  1  0.67580097  0.26856404  0.75410934  1  -0.02684  -0.000365  -0.083767  -0.102627  -0.000474  3.961148  0.0
C  C252  1  0.71326365  0.34229484  0.25665572  1  -0.020212  0.002691  0.00382  0.058445  0.001371  3.929485  0.002
C  C253  1  0.28724863  0.84328758  0.24310876  1  0.0259  0.002625  0.003301  0.05725  0.001347  3.92792  0.002
C  C254  1  0.28980947  0.65765458  0.74592373  1  -0.004566  0.000589  0.004605  0.060388  0.000251  3.938256  0.0
C  C255  1  0.71385708  0.15751411  0.75594870  1  0.015419  0.002508  0.003715  0.058271  0.001274  3.933202  0.002
C  C256  1  0.72190309  0.40440831  0.20543674  1  -0.031655  0.002893  0.004415  0.067122  0.001425  3.929489  0.002
C  C257  1  0.27865764  0.90461789  0.29434382  1  -0.0273  0.002976  0.004836  0.066951  0.001471  3.928626  0.002
C  C258  1  0.28282196  0.59975996  0.79832432  1  0.028039  0.002544  0.005222  0.066749  0.001222  3.938305  0.002
C  C259  1  0.72377041  0.09515559  0.70509867  1  -0.00313  0.000502  0.006042  0.069057  0.000167  3.926755  0.0
C  C260  1  0.64364822  0.49170921  0.19415596  1  -0.007952  1.9e-05  -0.090382  -0.130918  -0.000162  3.983283  0.0
C  C261  1  0.35603177  0.99250866  0.30538594  1  -0.02806  1.7e-05  -0.090317  -0.129506  -0.000165  3.981612  0.0
C  C262  1  0.36078179  0.51248589  0.81005130  1  -0.077625  -0.000121  -0.092062  -0.134509  -0.00028  3.986005  0.0
C  C263  1  0.64519227  0.00833268  0.69398666  1  -0.070297  1.7e-05  -0.08964  -0.128765  -0.00013  3.977676  0.0
C  C264  1  0.64432108  0.55446500  0.14722799  1  -0.074763  0.001845  -0.097196  -0.081913  0.000958  4.042831  0.001
C  C265  1  0.35558989  0.05431648  0.35240559  1  -0.051519  0.00189  -0.098004  -0.083639  0.000983  4.04332  0.001
C  C266  1  0.35730858  0.44868221  0.85653723  1  -0.024432  0.001844  -0.098775  -0.084362  0.000966  4.047731  0.001
C  C267  1  0.64621553  0.94517763  0.64741236  1  -0.043963  4e-06  -0.096246  -0.082519  -6.3e-05  4.044223  0.0
C  C268  1  0.72575906  0.53156887  0.11053818  1  -0.013352  -0.000201  -0.10162  -0.098125  -0.000285  4.048409  0.0
C  C269  1  0.27524758  0.02988370  0.38946880  1  -0.043633  -0.000186  -0.1029  -0.099293  -0.00027  4.049893  0.0
C  C270  1  0.27368398  0.47082878  0.89223347  1  -0.054853  -0.000321  -0.101647  -0.098144  -0.000404  4.048901  0.0
C  C271  1  0.72796912  0.96745158  0.61075885  1  -0.018363  -5e-06  -0.101499  -0.097633  -4.3e-05  4.049916  0.0
C  C272  1  0.80531825  0.44648735  0.12166788  1  -0.064141  0.001438  -0.092716  -0.10345  0.00069  4.00978  0.001
C  C273  1  0.19654737  0.94419322  0.37861255  1  -0.043572  0.001436  -0.09293  -0.104548  0.000693  4.010774  0.001
C  C274  1  0.19501857  0.55653866  0.88071762  1  -0.091275  0.001497  -0.090752  -0.09829  0.000715  3.99973  0.001
C  C275  1  0.80788537  0.05197918  0.62169546  1  -0.100839  1.7e-05  -0.092016  -0.101915  -0.000146  4.009923  0.0
C  C276  1  0.80406975  0.38081021  0.16812020  1  -0.008603  0.004708  -0.008065  -0.056032  0.002399  3.883459  0.003
C  C277  1  0.19762080  0.87944740  0.33206205  1  -0.012703  0.004806  -0.007888  -0.056519  0.002442  3.882482  0.004
C  C278  1  0.19892509  0.62295721  0.83469838  1  0.03123  0.004751  -0.006808  -0.052949  0.002397  3.891564  0.004
C  C279  1  0.80683723  0.11761652  0.66797686  1  0.021468  -0.0011  -0.008048  -0.057282  -0.001501  3.888756  -0.001
C  C280  1  0.89103783  0.28711932  0.17533597  1  1.586919  0.00112  0.20652  0.56992  0.000827  4.215277  0.0
C  C281  1  0.11163648  0.78501224  0.32530424  1  1.591897  0.001237  0.207928  0.573449  0.00096  4.212602  0.0
C  C282  1  0.11192283  0.71581406  0.82566382  1  1.585751  0.001066  0.207284  0.571045  0.000789  4.213578  0.0
C  C283  1  0.89388990  0.21071197  0.67512256  1  1.565727  -0.000974  0.206881  0.554176  -0.000906  4.201641  0.0
N  N284  1  0.97282206  0.60923254  0.39653530  1  -1.200672  0.055275  -0.334327  -0.245228  0.030136  3.596124  0.047
N  N285  1  0.02593361  0.11197626  0.10249666  1  -1.200554  0.054873  -0.33187  -0.245846  0.029943  3.582832  0.047
N  N286  1  0.02532273  0.37593893  0.60747077  1  -1.176565  -0.007325  -0.340051  -0.1744  -0.009108  3.642738  -0.007
N  N287  1  0.97319773  0.89125105  0.89661799  1  -1.219023  0.055382  -0.333313  -0.244203  0.03016  3.591894  0.047
N  N288  1  0.79141052  0.71297512  0.77458722  1  -1.216173  0.059002  -0.325977  -0.243615  0.031089  3.576967  0.054
N  N289  1  0.20269966  0.21654939  0.71990763  1  -1.177705  -0.006516  -0.331583  -0.185769  -0.00803  3.605112  -0.006
N  N290  1  0.21465415  0.28813206  0.22496180  1  -1.21171  0.058601  -0.324694  -0.244611  0.030897  3.56814  0.054
N  N291  1  0.78822159  0.78588752  0.27465788  1  -1.226454  0.059461  -0.328114  -0.245363  0.031347  3.581194  0.055
N  N292  1  0.79157842  0.80675891  0.38627070  1  -1.193648  0.07601  -0.329441  -0.233801  0.040757  3.573468  0.063
N  N293  1  0.20831355  0.30984780  0.11244471  1  -1.216436  0.074725  -0.329276  -0.235115  0.04012  3.572642  0.062
N  N294  1  0.20427420  0.19251307  0.60966545  1  -1.228821  0.073448  -0.326932  -0.215402  0.037998  3.559931  0.064
N  N295  1  0.79196912  0.69434869  0.88623308  1  -1.199024  0.076915  -0.330307  -0.233676  0.041278  3.576175  0.064
O  O296  1  0.73153017  0.56979500  0.35224469  1  -1.164054  0.06924  -0.313932  -0.561855  0.035703  2.209433  0.061
O  O297  1  0.26899705  0.07155436  0.14699260  1  -1.16586  0.067315  -0.314736  -0.563535  0.034695  2.206077  0.059
O  O298  1  0.22943824  0.41677466  0.66174949  1  -1.100602  -0.007258  -0.317147  -0.525013  -0.008365  2.362703  -0.007
O  O299  1  0.73178854  0.92966369  0.85168582  1  -1.164971  0.068162  -0.313755  -0.561573  0.035166  2.212622  0.06
O  O300  1  0.85221820  0.55274909  0.28824393  1  -1.124105  0.094571  -0.305141  -0.516757  0.049605  2.186537  0.078
O  O301  1  0.14835744  0.05446968  0.21105026  1  -1.126925  0.092405  -0.306621  -0.518101  0.048373  2.190075  0.076
O  O302  1  0.12455230  0.47080835  0.72901923  1  -1.134794  0.024123  -0.302045  -0.514271  0.012178  2.111236  0.018
O  O303  1  0.85289669  0.94751051  0.78784788  1  -1.130901  0.093062  -0.305933  -0.519385  0.049038  2.190752  0.077
O  O304  1  0.86081621  0.19231783  0.18925087  1  -1.170977  0.009546  -0.306886  -0.53638  0.004645  2.194054  0.007
O  O305  1  0.14326387  0.69009565  0.31251035  1  -1.170165  0.009373  -0.3067  -0.537346  0.004545  2.19717  0.007
O  O306  1  0.14177193  0.80916251  0.80951098  1  -1.17145  0.009413  -0.308605  -0.538892  0.004594  2.185377  0.007
O  O307  1  0.86644440  0.30360516  0.69208498  1  -1.165881  0.002823  -0.300317  -0.525294  0.001264  2.204516  0.001
O  O308  1  0.99441642  0.31405086  0.16457722  1  -1.15402  0.087988  -0.319965  -0.565743  0.046195  2.391982  0.072
O  O309  1  0.00766693  0.81155074  0.33526583  1  -1.153177  0.087843  -0.319929  -0.567646  0.046145  2.387738  0.072
O  O310  1  0.00867504  0.68978514  0.83699547  1  -1.153475  0.090627  -0.31865  -0.563309  0.047656  2.399026  0.074
O  O311  1  0.99523899  0.18422265  0.66031895  1  -1.113284  -0.007554  -0.306397  -0.525324  -0.008901  2.463125  -0.008
