# generated using pymatgen
data_Mn3Fe2H32C42(N9O2)2
_symmetry_space_group_name_H-M   'P 1'
_cell_length_a   11.74552831
_cell_length_b   15.33832039
_cell_length_c   16.84250737
_cell_angle_alpha   90.01451320
_cell_angle_beta   89.99978554
_cell_angle_gamma   89.99984921
_symmetry_Int_Tables_number   1
_chemical_formula_structural   Mn3Fe2H32C42(N9O2)2
_chemical_formula_sum   'Mn6 Fe4 H64 C84 N36 O8'
_cell_volume   3034.29005201
_cell_formula_units_Z   2
loop_
 _symmetry_equiv_pos_site_id
 _symmetry_equiv_pos_as_xyz
  1  'x, y, z'
loop_
 _atom_site_type_symbol
 _atom_site_label
 _atom_site_symmetry_multiplicity
 _atom_site_fract_x
 _atom_site_fract_y
 _atom_site_fract_z
 _atom_site_occupancy
 _atom_site_pbe_bader_charge
 _atom_site_pbe_bader_spin_density
 _atom_site_pbe_cm5_charge
 _atom_site_pbe_ddec_charge
 _atom_site_pbe_ddec_spin_density
 _atom_site_pbe_ddec_sum_bond_order
 _atom_site_pbe_magmom
Mn  Mn0  1  0.49999915  0.11329201  0.17793848  1  1.671609  3.446769  0.891215  1.030157  3.479071  3.240471  3.433
Mn  Mn1  1  0.50000070  0.88686353  0.82201837  1  1.671679  3.44712  0.891226  1.030299  3.481057  3.238046  3.434
Mn  Mn2  1  0.49999893  0.38682675  0.67802615  1  1.671534  3.447164  0.891254  1.030512  3.481471  3.238338  3.434
Mn  Mn3  1  0.49999922  0.61316385  0.32195920  1  1.672207  3.446776  0.891483  1.030597  3.481399  3.238366  3.434
Mn  Mn4  1  0.49999963  0.49996808  0.00013834  1  1.448717  4.509712  0.661708  0.852634  4.495484  2.48655  4.406
Mn  Mn5  1  0.50000034  0.99999820  0.49990777  1  1.449097  4.509798  0.661661  0.853054  4.495471  2.486171  4.406
Fe  Fe6  1  0.50000013  0.19588642  0.89507163  1  0.876115  0.205631  0.475781  0.003757  0.376426  5.363888  0.199
Fe  Fe7  1  0.50000058  0.80422807  0.10496597  1  0.876427  0.20562  0.475875  0.005349  0.376392  5.361425  0.199
Fe  Fe8  1  0.49999903  0.30419663  0.39506114  1  0.876658  0.20536  0.4759  0.004727  0.37593  5.362077  0.199
Fe  Fe9  1  0.49999912  0.69582721  0.60490936  1  0.875895  0.206428  0.475638  0.004685  0.377857  5.361883  0.2
H  H10  1  0.29214902  0.19027782  0.28179059  1  0.123095  0.001668  0.115292  0.092127  0.000778  1.036169  0.001
H  H11  1  0.08611908  0.19307813  0.28694303  1  0.108117  0.000928  0.111352  0.122486  0.00055  1.014006  0.0
H  H12  1  0.29460093  0.02610880  0.08559593  1  0.110296  0.001958  0.126969  0.098064  0.000987  0.980516  0.001
H  H13  1  0.08531281  0.01906428  0.08297696  1  0.043283  0.000981  0.113472  0.117598  0.000566  1.004779  0.0
H  H14  1  0.70666775  0.40069243  0.91623950  1  0.095977  0.001409  0.119001  0.090034  0.000493  1.024654  0.0
H  H15  1  0.91437151  0.39730934  0.91131802  1  0.081051  0.000729  0.113106  0.119238  0.000405  1.017779  0.0
H  H16  1  0.56521931  0.63234624  0.87413531  1  0.637518  0.001364  0.348742  0.430051  0.00048  0.829954  0.001
H  H17  1  0.29205430  0.81021413  0.71816031  1  0.128941  0.001659  0.115196  0.091892  0.000776  1.036833  0.001
H  H18  1  0.08603636  0.80755009  0.71303816  1  0.121287  0.000888  0.111321  0.121824  0.000548  1.014174  0.0
H  H19  1  0.29471327  0.97408656  0.91456516  1  0.105822  0.001953  0.127194  0.098196  0.000982  0.980537  0.001
H  H20  1  0.08542422  0.98125236  0.91722272  1  0.093823  0.00096  0.113221  0.116852  0.000565  1.004743  0.0
H  H21  1  0.70667579  0.59902907  0.08432177  1  0.092939  0.001412  0.119218  0.089779  0.000496  1.024156  0.0
H  H22  1  0.91438970  0.60253078  0.08910134  1  0.086172  0.000702  0.112956  0.119099  0.000405  1.017914  0.0
H  H23  1  0.56522082  0.36761451  0.12636242  1  0.637378  0.00137  0.348959  0.430033  0.000477  0.829884  0.001
H  H24  1  0.70773898  0.31008333  0.78228082  1  0.122351  0.001665  0.115271  0.092603  0.000775  1.035426  0.001
H  H25  1  0.91377226  0.30707920  0.78739051  1  0.112734  0.000892  0.111301  0.121931  0.000548  1.014193  0.0
H  H26  1  0.70547478  0.47321137  0.58544670  1  0.102852  0.001962  0.127117  0.098022  0.000987  0.9805  0.001
H  H27  1  0.91476974  0.48000537  0.58274164  1  0.058036  0.000941  0.113159  0.116401  0.000565  1.005235  0.0
H  H28  1  0.29334481  0.09913822  0.41577718  1  0.093384  0.001412  0.119215  0.089975  0.000494  1.023708  0.0
H  H29  1  0.08563173  0.10259749  0.41092933  1  0.086321  0.000702  0.112943  0.119279  0.000405  1.017698  0.0
H  H30  1  0.43478346  0.86786446  0.37342363  1  0.638215  0.001365  0.348539  0.430307  0.000477  0.829075  0.001
H  H31  1  0.70781392  0.68996601  0.21792955  1  0.125689  0.001664  0.115396  0.092464  0.000776  1.03564  0.001
H  H32  1  0.91383958  0.69268193  0.21268509  1  0.115588  0.000893  0.111648  0.122412  0.000549  1.013817  0.0
H  H33  1  0.70543636  0.52574246  0.41401141  1  0.114643  0.001952  0.12698  0.097771  0.000984  0.980997  0.001
H  H34  1  0.91470580  0.51858135  0.41651044  1  0.04456  0.000978  0.113501  0.117467  0.000565  1.004506  0.0
H  H35  1  0.29331987  0.90111117  0.58407220  1  0.097036  0.001413  0.119268  0.090095  0.000498  1.023679  0.0
H  H36  1  0.08560761  0.89773602  0.58896755  1  0.091314  0.000701  0.113049  0.119087  0.000405  1.017954  0.0
H  H37  1  0.43477612  0.13222642  0.62610751  1  0.636793  0.001365  0.348994  0.4304  0.000478  0.829342  0.001
H  H38  1  0.70794960  0.81021543  0.71815913  1  0.128917  0.001659  0.115203  0.091947  0.000776  1.036845  0.001
H  H39  1  0.91396761  0.80755139  0.71303697  1  0.112383  0.000923  0.111305  0.121805  0.000548  1.014244  0.0
H  H40  1  0.70528654  0.97408591  0.91456516  1  0.105837  0.001953  0.127154  0.098137  0.000982  0.980541  0.001
H  H41  1  0.91457551  0.98125171  0.91722332  1  0.102673  0.000926  0.113222  0.116852  0.000565  1.004733  0.0
H  H42  1  0.29332188  0.59902907  0.08432177  1  0.092957  0.001412  0.119192  0.089745  0.000496  1.024132  0.0
H  H43  1  0.08560790  0.60253143  0.08910075  1  0.077286  0.000729  0.11294  0.119081  0.000405  1.017937  0.0
H  H44  1  0.43478140  0.36761320  0.12636361  1  0.637386  0.00137  0.348939  0.430046  0.000477  0.829877  0.001
H  H45  1  0.70784850  0.19027913  0.28179119  1  0.123012  0.001668  0.115262  0.092067  0.000778  1.036229  0.001
H  H46  1  0.91388006  0.19307878  0.28694244  1  0.117053  0.000893  0.111326  0.122416  0.00055  1.014027  0.0
H  H47  1  0.70539897  0.02610815  0.08559771  1  0.110318  0.001958  0.126934  0.098018  0.000987  0.980476  0.001
H  H48  1  0.91468717  0.01906428  0.08297755  1  0.052309  0.000946  0.11348  0.117622  0.000566  1.004769  0.0
H  H49  1  0.29333258  0.40069113  0.91624009  1  0.096049  0.001409  0.119006  0.09005  0.000493  1.024656  0.0
H  H50  1  0.08562889  0.39730803  0.91131921  1  0.089933  0.000702  0.113123  0.119244  0.000405  1.017771  0.0
H  H51  1  0.43477732  0.63234494  0.87413591  1  0.637483  0.001364  0.348747  0.43008  0.000479  0.82995  0.001
H  H52  1  0.29218510  0.68996666  0.21792837  1  0.125679  0.001664  0.115386  0.092477  0.000776  1.035615  0.001
H  H53  1  0.08615948  0.69268128  0.21268449  1  0.106662  0.000928  0.111664  0.122425  0.000549  1.013769  0.0
H  H54  1  0.29456424  0.52574376  0.41401141  1  0.114708  0.001952  0.126959  0.097749  0.000984  0.981034  0.001
H  H55  1  0.08529483  0.51858331  0.41651104  1  0.053588  0.000943  0.113499  0.117503  0.000565  1.004453  0.0
H  H56  1  0.70668144  0.90111117  0.58407220  1  0.097049  0.001413  0.119253  0.090083  0.000498  1.023626  0.0
H  H57  1  0.91439366  0.89773602  0.58896755  1  0.082438  0.000728  0.113043  0.119077  0.000405  1.017973  0.0
H  H58  1  0.56522321  0.13222576  0.62610692  1  0.636808  0.001365  0.348992  0.430403  0.000478  0.829328  0.001
H  H59  1  0.29226001  0.31008333  0.78228082  1  0.122351  0.001665  0.115266  0.092568  0.000775  1.035426  0.001
H  H60  1  0.08622583  0.30707855  0.78738991  1  0.103542  0.000927  0.111292  0.121901  0.000548  1.014213  0.0
H  H61  1  0.29452519  0.47321268  0.58544788  1  0.102864  0.001962  0.127129  0.098017  0.000987  0.98051  0.001
H  H62  1  0.08523021  0.48000602  0.58274282  1  0.048943  0.000975  0.113158  0.116382  0.000565  1.005254  0.0
H  H63  1  0.70665615  0.09913953  0.41577777  1  0.093387  0.001412  0.119208  0.089978  0.000494  1.023698  0.0
H  H64  1  0.91436925  0.10259814  0.41092992  1  0.077358  0.000729  0.112933  0.119266  0.000405  1.017696  0.0
H  H65  1  0.56522374  0.86786511  0.37342600  1  0.638153  0.001365  0.34854  0.430208  0.000477  0.829192  0.001
H  H66  1  0.50000059  0.99460248  0.29802689  1  0.658753  0.001194  0.320102  0.410825  0.000249  0.899597  0.001
H  H67  1  0.49999923  0.08774473  0.33911876  1  0.633615  0.00188  0.310868  0.385617  0.001077  0.9568  0.001
H  H68  1  0.50000012  0.00553085  0.70176905  1  0.657654  0.001198  0.320151  0.410837  0.000252  0.899207  0.001
H  H69  1  0.50000063  0.91235472  0.66076387  1  0.63282  0.001886  0.311025  0.38495  0.001079  0.957339  0.001
H  H70  1  0.49999958  0.50568020  0.79809616  1  0.655182  0.001212  0.320199  0.410794  0.000256  0.898999  0.001
H  H71  1  0.49999968  0.41260127  0.83925452  1  0.641815  0.001853  0.311098  0.385702  0.001078  0.956507  0.001
H  H72  1  0.50000027  0.49438666  0.20181913  1  0.656683  0.001203  0.320046  0.410585  0.000256  0.899569  0.001
H  H73  1  0.50000017  0.58752559  0.16074685  1  0.633744  0.001887  0.310644  0.384867  0.001089  0.957546  0.001
C  C74  1  0.66411023  0.20009344  0.89475576  1  0.721053  0.004981  -0.020884  -0.022718  0.004663  3.92829  0.004
C  C75  1  0.24407832  0.15263970  0.23830301  1  0.53012  0.002355  0.048874  0.097068  0.001832  3.946213  0.002
C  C76  1  0.12588694  0.15342476  0.24097363  1  -0.127802  0.002875  -0.079475  -0.171724  0.002178  3.92779  0.002
C  C77  1  0.24451428  0.06200753  0.12922186  1  0.545758  0.00189  0.062151  0.113261  0.001309  3.934053  0.001
C  C78  1  0.12631952  0.05877613  0.12823388  1  -0.01415  0.002431  -0.071697  -0.155788  0.001848  3.914277  0.002
C  C79  1  0.06308393  0.10567769  0.18476822  1  -0.06121  0.000897  0.014646  0.102665  0.000579  3.968556  0.0
C  C80  1  0.75570308  0.44538945  0.95309387  1  0.546598  0.005252  0.051615  0.102887  0.004005  3.939001  0.004
C  C81  1  0.87384593  0.44372901  0.95112920  1  -0.02252  0.000956  -0.071819  -0.154508  0.000489  3.908665  0.0
C  C82  1  0.66411411  0.80005954  0.10536199  1  0.721329  0.004981  -0.021089  -0.023061  0.004664  3.928661  0.004
C  C83  1  0.24403736  0.84782618  0.76169837  1  0.515388  0.00238  0.049122  0.096946  0.001838  3.946201  0.002
C  C84  1  0.12584687  0.84712263  0.75904318  1  -0.126222  0.002861  -0.079363  -0.170343  0.002165  3.92657  0.002
C  C85  1  0.24457965  0.93829018  0.87089589  1  0.554382  0.001897  0.062102  0.112729  0.001312  3.934803  0.001
C  C86  1  0.12638061  0.94159265  0.87190287  1  -0.078158  0.002439  -0.071684  -0.154568  0.001839  3.913178  0.002
C  C87  1  0.06308890  0.89481104  0.81531509  1  0.099243  0.00089  0.015043  0.102574  0.00059  3.967062  0.0
C  C88  1  0.75570842  0.55436463  0.04743059  1  0.547687  0.005256  0.051302  0.103502  0.004  3.93952  0.004
C  C89  1  0.87385039  0.55609546  0.04931451  1  0.014242  0.000955  -0.071613  -0.154642  0.000494  3.909292  0.0
C  C90  1  0.33588468  0.30004809  0.39466156  1  0.72148  0.00498  -0.020995  -0.022753  0.004662  3.92835  0.004
C  C91  1  0.75585612  0.34746186  0.73864954  1  0.527446  0.002375  0.048836  0.096465  0.001839  3.944052  0.002
C  C92  1  0.87405428  0.34655962  0.74129404  1  -0.124654  0.002866  -0.079504  -0.170922  0.002173  3.926292  0.002
C  C93  1  0.75552095  0.43751429  0.62921572  1  0.547516  0.001898  0.061631  0.112402  0.001321  3.934315  0.001
C  C94  1  0.87371912  0.44061083  0.62818737  1  0.006501  0.00241  -0.070937  -0.153276  0.001832  3.913224  0.002
C  C95  1  0.93691238  0.39397091  0.68490279  1  0.066733  0.0009  0.014509  0.10213  0.000592  3.968779  0.0
C  C96  1  0.24430312  0.05453474  0.45270280  1  0.546414  0.005259  0.051472  0.103368  0.003997  3.939076  0.004
C  C97  1  0.12615944  0.05624561  0.45078444  1  0.013998  0.000953  -0.071621  -0.154846  0.000492  3.909752  0.0
C  C98  1  0.33588898  0.70010812  0.60536950  1  0.721412  0.004996  -0.020981  -0.022672  0.004678  3.92799  0.004
C  C99  1  0.75589935  0.65229274  0.26136846  1  0.526344  0.002361  0.048707  0.096493  0.001838  3.945373  0.002
C  C100  1  0.87409157  0.65301696  0.25863668  1  -0.129317  0.002869  -0.079988  -0.171532  0.002174  3.927006  0.002
C  C101  1  0.75550233  0.56163321  0.37038608  1  0.540781  0.001889  0.062066  0.113422  0.001309  3.934391  0.001
C  C102  1  0.87369455  0.55833324  0.37130399  1  -0.022558  0.002425  -0.071799  -0.155697  0.001842  3.91344  0.002
C  C103  1  0.93691535  0.60523530  0.31478390  1  0.101167  0.000883  0.015041  0.102998  0.000583  3.967018  0.0
C  C104  1  0.24428934  0.94573812  0.54716202  1  0.547361  0.005254  0.051842  0.10325  0.004003  3.939331  0.004
C  C105  1  0.12614650  0.94407355  0.54910531  1  -0.028511  0.000963  -0.071866  -0.15406  0.000491  3.909463  0.0
C  C106  1  0.33588707  0.80006214  0.10536199  1  0.721195  0.004982  -0.021099  -0.023151  0.004664  3.928681  0.004
C  C107  1  0.75596495  0.84782748  0.76169718  1  0.515452  0.002381  0.049116  0.096836  0.001838  3.946226  0.002
C  C108  1  0.87415633  0.84712328  0.75904259  1  -0.126306  0.002861  -0.079339  -0.170308  0.002165  3.926576  0.002
C  C109  1  0.75542172  0.93829018  0.87089530  1  0.554382  0.001897  0.06215  0.112781  0.001311  3.934803  0.001
C  C110  1  0.87361988  0.94159200  0.87190346  1  -0.078074  0.002439  -0.071702  -0.154591  0.001839  3.913205  0.002
C  C111  1  0.93691337  0.89481104  0.81531509  1  -0.052923  0.000909  0.015038  0.102605  0.00059  3.967062  0.0
C  C112  1  0.24428996  0.55436398  0.04743059  1  0.547708  0.005256  0.051342  0.103543  0.004  3.939474  0.004
C  C113  1  0.12614711  0.55609546  0.04931451  1  0.014202  0.000955  -0.071615  -0.154652  0.000494  3.909309  0.0
C  C114  1  0.33589000  0.20009409  0.89475754  1  0.721053  0.004981  -0.020875  -0.022708  0.004663  3.928271  0.004
C  C115  1  0.75592077  0.15264035  0.23830419  1  0.530158  0.002355  0.048876  0.097073  0.001833  3.946298  0.002
C  C116  1  0.87411212  0.15342541  0.24097422  1  -0.127829  0.002875  -0.079448  -0.17165  0.002178  3.927848  0.002
C  C117  1  0.75548491  0.06200753  0.12922364  1  0.545788  0.00189  0.06219  0.113299  0.001309  3.933997  0.001
C  C118  1  0.87368054  0.05877613  0.12823447  1  -0.014092  0.002431  -0.071676  -0.155794  0.001849  3.914244  0.002
C  C119  1  0.93691521  0.10567769  0.18476881  1  0.090938  0.000879  0.014677  0.102693  0.000579  3.968595  0.0
C  C120  1  0.24429654  0.44538815  0.95309446  1  0.546524  0.005252  0.051655  0.102924  0.004005  3.939138  0.004
C  C121  1  0.12615457  0.44372836  0.95112979  1  -0.022521  0.000956  -0.071831  -0.154529  0.000489  3.908684  0.0
C  C122  1  0.66411007  0.70010747  0.60536832  1  0.721379  0.004997  -0.021107  -0.022829  0.004679  3.928112  0.004
C  C123  1  0.24410032  0.65229274  0.26136727  1  0.52635  0.002361  0.048697  0.096402  0.001838  3.945459  0.002
C  C124  1  0.12590812  0.65301696  0.25863549  1  -0.12933  0.002869  -0.079942  -0.171421  0.002174  3.927014  0.002
C  C125  1  0.24449764  0.56163386  0.37038548  1  0.540751  0.00189  0.06204  0.113363  0.00131  3.934405  0.001
C  C126  1  0.12630543  0.55833454  0.37130399  1  -0.022509  0.002424  -0.071798  -0.155716  0.001842  3.913455  0.002
C  C127  1  0.06308407  0.60523530  0.31478331  1  -0.051022  0.000902  0.015009  0.102913  0.000583  3.967046  0.0
C  C128  1  0.75571120  0.94573877  0.54716202  1  0.547367  0.005254  0.051827  0.103215  0.004004  3.939377  0.004
C  C129  1  0.87385403  0.94407355  0.54910531  1  -0.028559  0.000963  -0.071873  -0.154074  0.000491  3.909488  0.0
C  C130  1  0.66411342  0.30004874  0.39466097  1  0.721382  0.004981  -0.020967  -0.022776  0.004663  3.928559  0.004
C  C131  1  0.24414222  0.34746186  0.73865014  1  0.527479  0.002376  0.048935  0.096657  0.00184  3.943885  0.002
C  C132  1  0.12594404  0.34655962  0.74129404  1  -0.124225  0.002865  -0.079532  -0.171022  0.002173  3.926281  0.002
C  C133  1  0.24447880  0.43751494  0.62921690  1  0.547451  0.001898  0.06163  0.112392  0.001321  3.934287  0.001
C  C134  1  0.12628062  0.44061148  0.62818796  1  0.006513  0.00241  -0.070949  -0.153267  0.001832  3.91318  0.002
C  C135  1  0.06308707  0.39397156  0.68490339  1  -0.085591  0.000919  0.014536  0.10224  0.000593  3.968712  0.0
C  C136  1  0.75569775  0.05453539  0.45270339  1  0.54642  0.005259  0.0515  0.103382  0.003997  3.939073  0.004
C  C137  1  0.87384144  0.05624626  0.45078444  1  0.016376  0.000952  -0.071652  -0.154889  0.000493  3.909755  0.0
C  C138  1  0.50000076  0.16938943  0.00219029  1  0.839022  0.049439  0.064189  0.150218  0.049786  3.756379  0.04
C  C139  1  0.50000043  0.30976255  0.92521144  1  0.857247  0.039214  0.055354  0.144686  0.038114  3.818149  0.035
C  C140  1  0.49999970  0.23617035  0.79144869  1  0.823347  0.041604  0.051839  0.110162  0.041829  3.76658  0.033
C  C141  1  0.49999981  0.07890142  0.87083414  1  0.813185  0.047799  0.057006  0.118119  0.049343  3.755077  0.038
C  C142  1  0.50000165  0.83072309  0.99782177  1  0.840385  0.049284  0.064097  0.149224  0.049621  3.755611  0.04
C  C143  1  0.49999943  0.69035910  0.07479765  1  0.854312  0.039104  0.055077  0.144138  0.037981  3.817235  0.035
C  C144  1  0.50000016  0.76388676  0.20856931  1  0.822688  0.04163  0.051923  0.110193  0.041838  3.765574  0.033
C  C145  1  0.50000090  0.92122740  0.12916070  1  0.814787  0.047748  0.056779  0.117186  0.049306  3.755992  0.038
C  C146  1  0.49999922  0.33070261  0.50221324  1  0.842363  0.049278  0.064237  0.149591  0.04966  3.75619  0.04
C  C147  1  0.50000012  0.19033010  0.42520927  1  0.85444  0.03911  0.055311  0.144249  0.037986  3.81728  0.035
C  C148  1  0.49999888  0.26392546  0.29142930  1  0.82277  0.041573  0.051713  0.110212  0.041794  3.766022  0.033
C  C149  1  0.49999876  0.42116229  0.37083256  1  0.814508  0.04774  0.0567  0.117809  0.049299  3.756276  0.038
C  C150  1  0.49999893  0.66925148  0.49776557  1  0.842752  0.049344  0.064186  0.149838  0.049747  3.755016  0.04
C  C151  1  0.49999974  0.80967285  0.57465555  1  0.857683  0.039072  0.055532  0.144309  0.037981  3.817995  0.035
C  C152  1  0.50000012  0.73620399  0.70852042  1  0.82377  0.041644  0.051999  0.110554  0.041895  3.765126  0.033
C  C153  1  0.49999939  0.57884070  0.62915397  1  0.814315  0.04771  0.056806  0.117936  0.0493  3.755386  0.038
C  C154  1  0.93689611  0.49992507  0.00020721  1  -0.021865  0.003769  0.019505  0.107826  0.002784  3.953546  0.002
C  C155  1  0.06310474  0.00016709  0.49994814  1  -0.016969  0.003767  0.019673  0.107829  0.002783  3.953644  0.002
C  C156  1  0.06310315  0.49992507  0.00020721  1  -0.173442  0.00386  0.019444  0.107804  0.002784  3.953527  0.002
C  C157  1  0.93689600  0.00016709  0.49994814  1  -0.170827  0.00386  0.019687  0.107859  0.002783  3.953622  0.002
N  N158  1  0.76364596  0.20909083  0.89356532  1  -1.341647  -0.00378  -0.41853  -0.433434  -0.004495  2.947221  -0.003
N  N159  1  0.30338900  0.10820232  0.18326963  1  -1.247218  0.068643  -0.306271  -0.250039  0.054808  3.493288  0.05
N  N160  1  0.76365499  0.79112085  0.10666880  1  -1.3424  -0.00378  -0.41857  -0.433369  -0.004498  2.947253  -0.003
N  N161  1  0.30340419  0.89214036  0.81678459  1  -1.243123  0.068389  -0.30664  -0.250255  0.054591  3.493918  0.05
N  N162  1  0.23633619  0.29115496  0.39334109  1  -1.342474  -0.003778  -0.418614  -0.433662  -0.004496  2.947132  -0.003
N  N163  1  0.69659030  0.39168538  0.68346892  1  -1.238986  0.068429  -0.305875  -0.249797  0.054626  3.493499  0.05
N  N164  1  0.23637533  0.70920338  0.60676181  1  -1.341971  -0.003783  -0.418758  -0.433631  -0.004503  2.9468  -0.003
N  N165  1  0.69660515  0.60789119  0.31641549  1  -1.245642  0.068546  -0.306181  -0.249993  0.05467  3.493122  0.05
N  N166  1  0.23634538  0.79112607  0.10666821  1  -1.342342  -0.00378  -0.418576  -0.433313  -0.004499  2.947196  -0.003
N  N167  1  0.69659723  0.89214166  0.81678340  1  -1.24308  0.06839  -0.306642  -0.250205  0.054591  3.493941  0.05
N  N168  1  0.23635422  0.20909214  0.89356769  1  -1.341648  -0.00378  -0.418542  -0.433443  -0.004495  2.947204  -0.003
N  N169  1  0.69661014  0.10820232  0.18327141  1  -1.247241  0.068641  -0.306299  -0.250023  0.054807  3.493247  0.05
N  N170  1  0.76362364  0.70920338  0.60676003  1  -1.341916  -0.003783  -0.418673  -0.433538  -0.004503  2.946869  -0.003
N  N171  1  0.30339423  0.60789185  0.31641430  1  -1.245661  0.068547  -0.30613  -0.249872  0.054669  3.493023  0.05
N  N172  1  0.76366198  0.29115692  0.39334050  1  -1.342381  -0.003779  -0.418651  -0.433657  -0.004497  2.947274  -0.003
N  N173  1  0.30340833  0.39168538  0.68346952  1  -1.238898  0.068431  -0.305962  -0.249901  0.054629  3.493454  0.05
N  N174  1  0.50000042  0.15791265  0.07145789  1  -1.38192  0.020922  -0.413472  -0.422738  -0.004758  3.470943  -0.024
N  N175  1  0.50000093  0.38507576  0.94118947  1  -1.518476  0.047739  -0.435985  -0.496725  0.018026  3.463042  -0.01
N  N176  1  0.49999990  0.27373486  0.72968829  1  -1.437893  0.010619  -0.428275  -0.450623  -0.012919  3.425347  -0.027
N  N177  1  0.50000013  0.00308534  0.85880684  1  -1.379561  0.003846  -0.422663  -0.396441  -0.024271  3.513051  -0.036
N  N178  1  0.50000198  0.84219922  0.92855299  1  -1.38314  0.021257  -0.41314  -0.422383  -0.004406  3.468836  -0.023
N  N179  1  0.49999807  0.61505240  0.05879410  1  -1.517446  0.047992  -0.436004  -0.496286  0.018025  3.461489  -0.01
N  N180  1  0.49999996  0.72626747  0.27030656  1  -1.437719  0.010685  -0.428512  -0.45104  -0.01287  3.424081  -0.027
N  N181  1  0.50000057  0.99705455  0.14113576  1  -1.381048  0.003912  -0.422639  -0.396022  -0.024114  3.513543  -0.036
N  N182  1  0.49999966  0.34216381  0.57148856  1  -1.385728  0.021175  -0.413211  -0.422603  -0.004571  3.470365  -0.023
N  N183  1  0.50000114  0.11503034  0.44120036  1  -1.517542  0.047913  -0.436194  -0.496658  0.018028  3.461685  -0.01
N  N184  1  0.49999849  0.22641786  0.22961962  1  -1.437864  0.010777  -0.428221  -0.450917  -0.01281  3.424213  -0.027
N  N185  1  0.49999942  0.49696123  0.35875954  1  -1.380913  0.003859  -0.422697  -0.396643  -0.024205  3.514002  -0.036
N  N186  1  0.49999849  0.65777202  0.42848966  1  -1.386208  0.021176  -0.413007  -0.42227  -0.004686  3.46922  -0.023
N  N187  1  0.50000127  0.88494846  0.55856887  1  -1.518997  0.047933  -0.436261  -0.496391  0.018023  3.461936  -0.01
N  N188  1  0.50000137  0.77380808  0.77028142  1  -1.438067  0.010591  -0.428341  -0.450462  -0.012964  3.423877  -0.027
N  N189  1  0.49999958  0.50303132  0.64120324  1  -1.381302  0.003906  -0.42258  -0.396732  -0.024197  3.513282  -0.036
N  N190  1  0.69588780  0.49985468  0.00028618  1  -1.26919  0.055588  -0.31774  -0.267763  0.038572  3.490032  0.027
N  N191  1  0.30411220  0.00012340  0.49992499  1  -1.270307  0.055575  -0.31825  -0.268486  0.038597  3.491211  0.027
N  N192  1  0.30411146  0.49985403  0.00028618  1  -1.269165  0.055584  -0.317777  -0.267793  0.038574  3.490155  0.027
N  N193  1  0.69588853  0.00012471  0.49992558  1  -1.270296  0.055576  -0.318182  -0.268374  0.038596  3.491243  0.027
O  O194  1  0.49999450  0.05755680  0.28703566  1  -1.245701  0.036264  -0.552881  -0.726635  0.024859  2.277584  0.013
O  O195  1  0.49999886  0.59295358  0.87711112  1  -1.232854  0.041682  -0.518621  -0.721721  0.029409  2.015073  0.02
O  O196  1  0.50000024  0.94259219  0.71281729  1  -1.24322  0.036298  -0.553124  -0.726116  0.024919  2.27651  0.013
O  O197  1  0.50000014  0.40699017  0.12319128  1  -1.232088  0.041446  -0.519062  -0.721462  0.029353  2.016121  0.02
O  O198  1  0.49999901  0.44272045  0.78714708  1  -1.249932  0.036348  -0.553212  -0.726631  0.024948  2.277263  0.013
O  O199  1  0.50000302  0.90724058  0.37661377  1  -1.233263  0.041471  -0.51803  -0.721864  0.029353  2.014102  0.02
O  O200  1  0.50000255  0.55734251  0.21282105  1  -1.243165  0.03623  -0.55289  -0.726122  0.024865  2.278266  0.013
O  O201  1  0.49999939  0.09284445  0.62301949  1  -1.231124  0.041602  -0.519044  -0.722283  0.029406  2.015201  0.02
