# generated using pymatgen
data_AgPH17C11S2(NO)2
_symmetry_space_group_name_H-M   'P 1'
_cell_length_a   9.54622696
_cell_length_b   9.71861664
_cell_length_c   9.93498765
_cell_angle_alpha   70.89693123
_cell_angle_beta   89.47101901
_cell_angle_gamma   62.62097018
_symmetry_Int_Tables_number   1
_chemical_formula_structural   AgPH17C11S2(NO)2
_chemical_formula_sum   'Ag2 P2 H34 C22 S4 N4 O4'
_cell_volume   762.36802532
_cell_formula_units_Z   2
loop_
 _symmetry_equiv_pos_site_id
 _symmetry_equiv_pos_as_xyz
  1  'x, y, z'
loop_
 _atom_site_type_symbol
 _atom_site_label
 _atom_site_symmetry_multiplicity
 _atom_site_fract_x
 _atom_site_fract_y
 _atom_site_fract_z
 _atom_site_occupancy
 _atom_site_hle17_bader_spin_density
 _atom_site_hle17_ddec_charge
 _atom_site_hle17_ddec_spin_density
 _atom_site_hle17_ddec_sum_bond_order
 _atom_site_hle17_magmom
 _atom_site_hse06_10hf_bader_spin_density
 _atom_site_hse06_10hf_ddec_charge
 _atom_site_hse06_10hf_ddec_spin_density
 _atom_site_hse06_10hf_ddec_sum_bond_order
 _atom_site_hse06_10hf_magmom
 _atom_site_hse06_bader_spin_density
 _atom_site_hse06_ddec_charge
 _atom_site_hse06_ddec_spin_density
 _atom_site_hse06_ddec_sum_bond_order
 _atom_site_hse06_magmom
 _atom_site_pbe_bader_spin_density
 _atom_site_pbe_cm5_charge
 _atom_site_pbe_ddec_charge
 _atom_site_pbe_ddec_spin_density
 _atom_site_pbe_ddec_sum_bond_order
 _atom_site_pbe_magmom
Ag  Ag0  1  0.02508614  0.13390365  0.90089851  1  0  0.373013  0  1.87335  0  0  0.263776  0  2.381124  0  0  0.284197  0  2.338235  0  0  0.340845  0.24985  0  2.410962  0
Ag  Ag1  1  0.97491202  0.86609946  0.09910047  1  0  0.373001  0  1.873273  0  0  0.263761  0  2.381047  0  0  0.284177  0  2.338156  0  0  0.340832  0.249828  0  2.410885  0
P  P2  1  0.89992797  0.21470704  0.18515555  1  0  0.991624  0  4.844827  0  0  0.870906  0  5.358846  0  0  0.91603  0  5.335424  0  0  0.245337  0.840054  0  5.373052  0
P  P3  1  0.10006969  0.78529485  0.81484282  1  0  0.991561  0  4.844948  0  0  0.870852  0  5.359103  0  0  0.915982  0  5.335667  0  0  0.24528  0.839985  0  5.373312  0
H  H4  1  0.83058971  0.13110397  0.47190574  1  0  0.054765  0  0.951589  0  0  0.064456  0  1.023634  0  0  0.064816  0  1.023986  0  0  0.091702  0.063987  0  1.023499  0
H  H5  1  0.16941541  0.86889533  0.52809338  1  0  0.054803  0  0.951569  0  0  0.064487  0  1.02359  0  0  0.064848  0  1.023942  0  0  0.091711  0.06402  0  1.023456  0
H  H6  1  0.84826884  0.97217171  0.40934203  1  0  0.041285  0  0.941809  0  0  0.053567  0  1.012247  0  0  0.053816  0  1.011689  0  0  0.091362  0.053514  0  1.012418  0
H  H7  1  0.15173636  0.02782511  0.59065889  1  0  0.041229  0  0.941835  0  0  0.053518  0  1.012229  0  0  0.053765  0  1.011673  0  0  0.091316  0.053464  0  1.012404  0
H  H8  1  0.62220177  0.05419236  0.55269861  1  0  0.096591  0  0.977223  0  0  0.116871  0  1.043895  0  0  0.117253  0  1.045205  0  0  0.086289  0.116437  0  1.043318  0
H  H9  1  0.37780716  0.94580316  0.44730268  1  0  0.096577  0  0.977219  0  0  0.11684  0  1.043911  0  0  0.117221  0  1.045221  0  0  0.086271  0.116405  0  1.043336  0
H  H10  1  0.54826239  0.09476343  0.37306293  1  0  0.096373  0  0.969709  0  0  0.118119  0  1.03009  0  0  0.11899  0  1.030909  0  0  0.085288  0.117494  0  1.029435  0
H  H11  1  0.45174281  0.90523339  0.62693900  1  0  0.096389  0  0.969595  0  0  0.118105  0  1.030014  0  0  0.118978  0  1.03083  0  0  0.085297  0.117481  0  1.029359  0
H  H12  1  0.53042705  0.26073049  0.42569407  1  0  0.1044  0  0.985985  0  0  0.122251  0  1.050973  0  0  0.122617  0  1.053766  0  0  0.085065  0.121652  0  1.049668  0
H  H13  1  0.46957710  0.73926635  0.57430887  1  0  0.10436  0  0.986038  0  0  0.122198  0  1.051033  0  0  0.122561  0  1.053832  0  0  0.085052  0.1216  0  1.049729  0
H  H14  1  0.07950754  0.39163862  0.15773649  1  0  0.039715  0  0.961819  0  0  0.049749  0  1.037551  0  0  0.049958  0  1.037722  0  0  0.085032  0.049283  0  1.037703  0
H  H15  1  0.92049645  0.60836316  0.84226084  1  0  0.039732  0  0.96182  0  0  0.049751  0  1.037564  0  0  0.049961  0  1.037733  0  0  0.085027  0.049283  0  1.037718  0
H  H16  1  0.19616445  0.18483599  0.28479944  1  0  0.038596  0  0.950209  0  0  0.056529  0  1.010227  0  0  0.056786  0  1.010265  0  0  0.092452  0.056454  0  1.01009  0
H  H17  1  0.80384010  0.81516456  0.71519829  1  0  0.038633  0  0.950186  0  0  0.056545  0  1.010217  0  0  0.056804  0  1.010252  0  0  0.092448  0.056471  0  1.010081  0
H  H18  1  0.22871716  0.38380587  0.37003346  1  0  0.11033  0  0.960343  0  0  0.134452  0  1.017463  0  0  0.134864  0  1.019294  0  0  0.092351  0.134052  0  1.016501  0
H  H19  1  0.77128367  0.61619597  0.62996591  1  0  0.110386  0  0.960306  0  0  0.134459  0  1.017479  0  0  0.134871  0  1.019309  0  0  0.092345  0.134061  0  1.016513  0
H  H20  1  0.12792420  0.29425933  0.48935839  1  0  0.107805  0  0.943071  0  0  0.130041  0  1.002216  0  0  0.131749  0  1.001832  0  0  0.090835  0.12877  0  1.00235  0
H  H21  1  0.87207831  0.70573879  0.51063812  1  0  0.107809  0  0.943112  0  0  0.130048  0  1.002243  0  0  0.131756  0  1.001858  0  0  0.090851  0.128778  0  1.002375  0
H  H22  1  0.01860160  0.50099987  0.35920551  1  0  0.1009  0  0.956958  0  0  0.11907  0  1.026668  0  0  0.120431  0  1.026496  0  0  0.086486  0.118292  0  1.025923  0
H  H23  1  0.98140036  0.49899948  0.64079565  1  0  0.100854  0  0.956945  0  0  0.119032  0  1.026646  0  0  0.120393  0  1.026474  0  0  0.086459  0.118253  0  1.025904  0
H  H24  1  0.19505400  0.38685528  0.88632458  1  0  0.090896  0  0.972031  0  0  0.096217  0  1.046935  0  0  0.098604  0  1.044157  0  0  0.123597  0.094524  0  1.048661  0
H  H25  1  0.80494374  0.61314414  0.11367660  1  0  0.090881  0  0.972074  0  0  0.096204  0  1.046969  0  0  0.098589  0  1.044198  0  0  0.123602  0.094511  0  1.048689  0
H  H26  1  0.39465738  0.91950011  0.84144772  1  0  0.107885  0  0.957008  0  0  0.119511  0  1.012709  0  0  0.122282  0  1.011086  0  0  0.116653  0.117797  0  1.013555  0
H  H27  1  0.60534839  0.08049547  0.15855460  1  0  0.107889  0  0.95701  0  0  0.1195  0  1.012731  0  0  0.122268  0  1.011113  0  0  0.116658  0.117784  0  1.013577  0
H  H28  1  0.61529628  0.03892397  0.79432243  1  0  0.109429  0  0.985225  0  0  0.118278  0  1.052265  0  0  0.120499  0  1.05161  0  0  0.110023  0.115107  0  1.055221  0
H  H29  1  0.38470237  0.96108036  0.20567717  1  0  0.10948  0  0.985191  0  0  0.118321  0  1.052229  0  0  0.120541  0  1.051575  0  0  0.110042  0.115148  0  1.055189  0
H  H30  1  0.61120378  0.28915112  0.86991260  1  0  0.086417  0  0.942436  0  0  0.098739  0  1.010829  0  0  0.099551  0  1.010238  0  0  0.102471  0.097681  0  1.012339  0
H  H31  1  0.38879218  0.71085450  0.13008460  1  0  0.086428  0  0.94247  0  0  0.098719  0  1.01086  0  0  0.099521  0  1.010279  0  0  0.102435  0.097656  0  1.012373  0
H  H32  1  0.41621471  0.45513233  0.84810180  1  0  0.098665  0  0.931782  0  0  0.108408  0  1.000276  0  0  0.110206  0  0.998624  0  0  0.110843  0.107649  0  1.00063  0
H  H33  1  0.58378141  0.54486835  0.15189798  1  0  0.09875  0  0.93174  0  0  0.108464  0  1.000221  0  0  0.11026  0  0.99857  0  0  0.110837  0.107702  0  1.000578  0
H  H34  1  0.24452368  0.52138020  0.57659061  1  0  0.098746  0  0.953136  0  0  0.110531  0  1.013436  0  0  0.113177  0  1.012714  0  0  0.102538  0.108687  0  1.013907  0
H  H35  1  0.75547088  0.47861927  0.42340856  1  0  0.09878  0  0.95307  0  0  0.110537  0  1.013412  0  0  0.113183  0  1.012689  0  0  0.102577  0.108694  0  1.01388  0
H  H36  1  0.74507210  0.35957660  0.68248033  1  0  0.083298  0  0.99012  0  0  0.094188  0  1.059173  0  0  0.097117  0  1.0567  0  0  0.084513  0.092027  0  1.061315  0
H  H37  1  0.25492092  0.64042166  0.31751824  1  0  0.083156  0  0.990153  0  0  0.094083  0  1.05919  0  0  0.097011  0  1.05672  0  0  0.084477  0.091922  0  1.061332  0
C  C38  1  0.76998355  0.10120033  0.40139710  1  0  0.175961  0  3.572589  0  0  0.120736  0  3.841293  0  0  0.129528  0  3.847488  0  0  -0.068513  0.114431  0  3.83718  0
C  C39  1  0.23002320  0.89879771  0.59860241  1  0  0.175821  0  3.572715  0  0  0.1207  0  3.841276  0  0  0.129495  0  3.847469  0  0  -0.068508  0.114397  0  3.837163  0
C  C40  1  0.60752467  0.13024274  0.43895448  1  0  -0.316269  0  3.7009  0  0  -0.392384  0  3.942358  0  0  -0.395481  0  3.953116  0  0  -0.250296  -0.389958  0  3.935151  0
C  C41  1  0.39248159  0.86975407  0.56104744  1  0  -0.316135  0  3.700816  0  0  -0.392222  0  3.942248  0  0  -0.395315  0  3.952999  0  0  -0.250257  -0.389795  0  3.935039  0
C  C42  1  0.09423664  0.30793530  0.26912066  1  0  0.172821  0  3.612962  0  0  0.119972  0  3.874776  0  0  0.128147  0  3.881735  0  0  -0.069883  0.114692  0  3.869181  0
C  C43  1  0.90576419  0.69206654  0.73087669  1  0  0.172782  0  3.612885  0  0  0.119997  0  3.874648  0  0  0.128175  0  3.8816  0  0  -0.069878  0.114708  0  3.869053  0
C  C44  1  0.11787200  0.37570258  0.37870962  1  0  -0.316579  0  3.693157  0  0  -0.393432  0  3.934102  0  0  -0.396315  0  3.943629  0  0  -0.247945  -0.39139  0  3.927154  0
C  C45  1  0.88212827  0.62430050  0.62128835  1  0  -0.316594  0  3.693169  0  0  -0.393417  0  3.934126  0  0  -0.3963  0  3.943652  0  0  -0.247923  -0.391378  0  3.927183  0
C  C46  1  0.27536292  0.27569465  0.86559123  1  0  0.140372  0  3.674151  0  0  0.083501  0  3.937905  0  0  0.09594  0  3.952645  0  0  0.132632  0.075557  0  3.9266  0
C  C47  1  0.72463384  0.72430230  0.13441174  1  0  0.140298  0  3.674127  0  0  0.083425  0  3.937894  0  0  0.095863  0  3.952641  0  0  0.132606  0.075484  0  3.926588  0
C  C48  1  0.38478850  0.03545204  0.84069499  1  0  -0.016609  0  3.761674  0  0  -0.046882  0  4.025921  0  0  -0.045487  0  4.045891  0  0  -0.012901  -0.048153  0  4.012169  0
C  C49  1  0.61521353  0.96454484  0.15930594  1  0  -0.016592  0  3.761774  0  0  -0.046864  0  4.026022  0  0  -0.045467  0  4.045996  0  0  -0.01288  -0.048134  0  4.012268  0
C  C50  1  0.49394231  0.09235728  0.81626312  1  0  -0.061198  0  3.684041  0  0  -0.099649  0  3.939398  0  0  -0.098433  0  3.96003  0  0  -0.000916  -0.099863  0  3.925909  0
C  C51  1  0.50605705  0.90764087  0.18373844  1  0  -0.061315  0  3.684026  0  0  -0.099756  0  3.939381  0  0  -0.09854  0  3.960015  0  0  -0.000958  -0.09997  0  3.925891  0
C  C52  1  0.49026495  0.35727801  0.80638430  1  0  -0.042065  0  3.629536  0  0  -0.104228  0  3.869955  0  0  -0.09978  0  3.880156  0  0  -0.047574  -0.107391  0  3.863251  0
C  C53  1  0.50972786  0.64272766  0.19361392  1  0  -0.042294  0  3.629733  0  0  -0.104288  0  3.869906  0  0  -0.099835  0  3.880115  0  0  -0.047493  -0.107446  0  3.863199  0
C  C54  1  0.49472161  0.43087142  0.64771508  1  0  0.072662  0  3.732424  0  0  0.090449  0  3.970991  0  0  0.090101  0  3.994822  0  0  -0.011654  0.091062  0  3.95519  0
C  C55  1  0.50527022  0.56913180  0.35228495  1  0  0.072573  0  3.732644  0  0  0.090295  0  3.971231  0  0  0.089949  0  3.995062  0  0  -0.011745  0.090912  0  3.955426  0
C  C56  1  0.35722362  0.51074167  0.54356073  1  0  -0.10338  0  3.728186  0  0  -0.124603  0  3.977202  0  0  -0.126254  0  3.997616  0  0  -0.089801  -0.123444  0  3.962886  0
C  C57  1  0.64276821  0.48926155  0.45643929  1  0  -0.103241  0  3.72817  0  0  -0.124436  0  3.977191  0  0  -0.126089  0  3.997606  0  0  -0.08975  -0.123279  0  3.962871  0
C  C58  1  0.63711122  0.42117030  0.60228991  1  0  -0.115367  0  3.757202  0  0  -0.128734  0  3.995258  0  0  -0.131819  0  4.01727  0  0  -0.092641  -0.126538  0  3.980564  0
C  C59  1  0.36288060  0.57883292  0.39771011  1  0  -0.115074  0  3.757128  0  0  -0.128474  0  3.995189  0  0  -0.13156  0  4.017209  0  0  -0.092585  -0.126278  0  3.980496  0
S  S60  1  0.82256588  0.37271983  0.98203300  1  0  -0.551946  0  2.023938  0  0  -0.500706  0  2.386192  0  0  -0.518934  0  2.368968  0  0  -0.206593  -0.488738  0  2.39747  0
S  S61  1  0.17743509  0.62727707  0.01796491  1  0  -0.5519  0  2.023879  0  0  -0.500643  0  2.386135  0  0  -0.518867  0  2.368905  0  0  -0.20657  -0.488673  0  2.397413  0
S  S62  1  0.08476264  0.98517029  0.22388767  1  0  -0.56804  0  2.269753  0  0  -0.509084  0  2.689266  0  0  -0.526544  0  2.667827  0  0  -0.210309  -0.498394  0  2.706453  0
S  S63  1  0.91523649  0.01483529  0.77610650  1  0  -0.568041  0  2.269743  0  0  -0.509058  0  2.689222  0  0  -0.52652  0  2.667785  0  0  -0.210287  -0.498364  0  2.7064  0
N  N64  1  0.24873781  0.15103529  0.87090794  1  0  -0.342349  0  3.330991  0  0  -0.271372  0  3.638876  0  0  -0.28922  0  3.654148  0  0  -0.375527  -0.257644  0  3.627118  0
N  N65  1  0.75126155  0.84896286  0.12909362  1  0  -0.342337  0  3.331087  0  0  -0.271352  0  3.638951  0  0  -0.289199  0  3.654224  0  0  -0.375533  -0.257623  0  3.627192  0
N  N66  1  0.42286812  0.24454086  0.83253708  1  0  -0.06008  0  3.590488  0  0  0.036482  0  3.801343  0  0  0.021112  0  3.829506  0  0  -0.242648  0.047192  0  3.781  0
N  N67  1  0.57712962  0.75545855  0.16746511  1  0  -0.059833  0  3.590327  0  0  0.036684  0  3.801122  0  0  0.021315  0  3.829286  0  0  -0.242618  0.047391  0  3.780777  0
O  O68  1  0.74749941  0.20975777  0.25111641  1  0  -0.444504  0  2.260885  0  0  -0.358081  0  2.508512  0  0  -0.37975  0  2.504152  0  0  -0.211827  -0.342589  0  2.511186  0
O  O69  1  0.25250416  0.79024032  0.74888311  1  0  -0.444403  0  2.260862  0  0  -0.358082  0  2.508536  0  0  -0.379756  0  2.504175  0  0  -0.211799  -0.342592  0  2.511212  0
O  O70  1  0.95100022  0.29071187  0.28673049  1  0  -0.454294  0  2.270731  0  0  -0.367771  0  2.523313  0  0  -0.389869  0  2.520494  0  0  -0.217327  -0.352272  0  2.524153  0
O  O71  1  0.04900378  0.70928992  0.71326886  1  0  -0.454281  0  2.270755  0  0  -0.367807  0  2.523341  0  0  -0.389924  0  2.52054  0  0  -0.217298  -0.35228  0  2.524157  0
