# generated using pymatgen
data_CuH20C20(NO2)2
_symmetry_space_group_name_H-M   'P 1'
_cell_length_a   7.56065315
_cell_length_b   9.43177257
_cell_length_c   15.98805398
_cell_angle_alpha   89.99997005
_cell_angle_beta   94.35185171
_cell_angle_gamma   89.99967447
_symmetry_Int_Tables_number   1
_chemical_formula_structural   CuH20C20(NO2)2
_chemical_formula_sum   'Cu2 H40 C40 N4 O8'
_cell_volume   1136.82680510
_cell_formula_units_Z   2
loop_
 _symmetry_equiv_pos_site_id
 _symmetry_equiv_pos_as_xyz
  1  'x, y, z'
loop_
 _atom_site_type_symbol
 _atom_site_label
 _atom_site_symmetry_multiplicity
 _atom_site_fract_x
 _atom_site_fract_y
 _atom_site_fract_z
 _atom_site_occupancy
 _atom_site_hle17_ddec_charge
 _atom_site_hle17_ddec_spin_density
 _atom_site_hle17_ddec_sum_bond_order
 _atom_site_hle17_magmom
 _atom_site_hse06_10hf_ddec_charge
 _atom_site_hse06_10hf_ddec_spin_density
 _atom_site_hse06_10hf_ddec_sum_bond_order
 _atom_site_hse06_10hf_magmom
 _atom_site_hse06_ddec_charge
 _atom_site_hse06_ddec_spin_density
 _atom_site_hse06_ddec_sum_bond_order
 _atom_site_hse06_magmom
 _atom_site_pbe_cm5_charge
 _atom_site_pbe_ddec_charge
 _atom_site_pbe_ddec_spin_density
 _atom_site_pbe_ddec_sum_bond_order
 _atom_site_pbe_magmom
Cu  Cu0  1  0.99999624  0.00000497  0.99999988  1  0.922378  -0.689054  1.834715  -0.511  0.909548  -0.785819  2.243381  -0.634  1.001343  -0.854224  2.173456  -0.728  0.710541  0.848195  -0.73567  2.301881  -0.572
Cu  Cu1  1  0.50000433  0.50000129  0.49999605  1  0.922366  -0.689083  1.834907  -0.511  0.909493  -0.785828  2.243547  -0.634  1.001326  -0.85423  2.173578  -0.728  0.710541  0.848212  -0.735661  2.301943  -0.572
H  H2  1  0.85325828  0.34816278  0.16298688  1  0.126949  0.000607  0.937287  0.0  0.147331  9.2e-05  0.993762  0.0  0.14991  8.4e-05  0.992285  0.0  0.095619  0.145322  8.5e-05  0.995056  0.0
H  H3  1  0.35325437  0.15185279  0.66298602  1  0.127054  0.000606  0.93723  0.0  0.147429  9.1e-05  0.993712  0.0  0.150007  8.3e-05  0.992236  0.0  0.095683  0.145422  8.5e-05  0.995002  0.0
H  H4  1  0.14674059  0.65184404  0.83701981  1  0.126959  0.000597  0.937383  0.0  0.147342  9.1e-05  0.99384  0.0  0.14992  8.4e-05  0.992362  0.0  0.095628  0.145326  8.5e-05  0.995135  0.0
H  H5  1  0.64675037  0.84814554  0.33700404  1  0.127065  0.000603  0.937217  0.0  0.147423  9.2e-05  0.993716  0.0  0.150003  8.4e-05  0.992237  0.0  0.095657  0.145413  8.5e-05  0.995005  0.0
H  H6  1  0.06797080  0.39442194  0.21087030  1  0.117678  -6.6e-05  0.974263  0.0  0.136115  -0.000216  1.038518  0.0  0.136952  -0.000105  1.040618  0.0  0.09128  0.135604  -0.000303  1.036823  0.0
H  H7  1  0.56796741  0.10558847  0.71086867  1  0.117758  -6.5e-05  0.974347  0.0  0.136232  -0.000216  1.038536  0.0  0.137069  -0.000105  1.040636  0.0  0.091317  0.135717  -0.000303  1.036843  0.0
H  H8  1  0.93203206  0.60557639  0.78913594  1  0.117716  -7.4e-05  0.974257  0.0  0.136135  -0.000216  1.038507  0.0  0.136968  -0.000105  1.040614  0.0  0.091286  0.13562  -0.000303  1.036815  0.0
H  H9  1  0.43203996  0.89441622  0.28912214  1  0.117651  -6.9e-05  0.974303  0.0  0.136088  -0.000216  1.038549  0.0  0.136921  -0.000105  1.040658  0.0  0.091244  0.135574  -0.000303  1.03686  0.0
H  H10  1  0.94704384  0.25430320  0.25224302  1  0.123365  0.000174  0.935293  0.0  0.144813  -0.000153  0.993755  0.0  0.146579  -7.7e-05  0.993791  0.0  0.098217  0.143822  -0.000224  0.993245  0.0
H  H11  1  0.44704457  0.24570555  0.75224108  1  0.123376  0.000174  0.935341  0.0  0.14485  -0.000152  0.993778  0.0  0.14662  -7.6e-05  0.993809  0.0  0.098219  0.143855  -0.000224  0.993261  0.0
H  H12  1  0.05295503  0.74570043  0.74776368  1  0.123425  0.000173  0.935254  0.0  0.144844  -0.000152  0.993738  0.0  0.146612  -7.6e-05  0.993772  0.0  0.098229  0.143852  -0.000224  0.993225  0.0
H  H13  1  0.55295750  0.75429067  0.24774950  1  0.123305  0.000173  0.935415  0.0  0.144746  -0.000152  0.993893  0.0  0.146511  -7.7e-05  0.993932  0.0  0.098198  0.14376  -0.000224  0.99337  0.0
H  H14  1  0.53977545  0.91589663  0.10617525  1  0.13533  0.000726  0.924142  0.001  0.157235  0.000208  0.9773  0.0  0.159865  0.000179  0.976101  0.0  0.100449  0.15526  0.00022  0.978358  0.0
H  H15  1  0.03979675  0.58410628  0.60619052  1  0.135386  0.000736  0.924239  0.001  0.157288  0.000209  0.977364  0.0  0.159921  0.000179  0.976161  0.0  0.100531  0.155313  0.000221  0.978421  0.0
H  H16  1  0.46020527  0.08410807  0.89381815  1  0.13536  0.000719  0.924072  0.001  0.157265  0.000209  0.977223  0.0  0.159896  0.000179  0.976023  0.0  0.100478  0.155289  0.00022  0.978286  0.0
H  H17  1  0.96021296  0.41590796  0.39380976  1  0.135488  0.000737  0.92404  0.001  0.15735  0.000209  0.977225  0.0  0.159982  0.000179  0.976023  0.0  0.10052  0.155378  0.000221  0.97828  0.0
H  H18  1  0.56324406  0.04974865  0.18627177  1  0.109624  -0.000915  0.974146  -0.001  0.127925  -0.000905  1.03838  -0.001  0.128729  -0.000621  1.039537  -0.001  0.087226  0.127319  -0.001132  1.037716  -0.001
H  H19  1  0.06322809  0.45024695  0.68628592  1  0.109584  -0.000915  0.974192  -0.001  0.127879  -0.000905  1.03843  -0.001  0.128681  -0.000621  1.039592  -0.001  0.08723  0.127274  -0.001132  1.037753  -0.001
H  H20  1  0.43676590  0.95025180  0.81372102  1  0.109539  -0.000921  0.974182  -0.001  0.127857  -0.000905  1.038415  -0.001  0.128662  -0.000621  1.03957  -0.001  0.087212  0.12725  -0.001132  1.037741  -0.001
H  H21  1  0.93675499  0.54976623  0.31371635  1  0.109612  -0.000914  0.974106  -0.001  0.127888  -0.000905  1.038374  -0.001  0.128689  -0.000621  1.039535  -0.001  0.087243  0.127286  -0.001132  1.037701  -0.001
H  H22  1  0.59787123  0.08955131  0.07988646  1  0.155187  0.00095  0.932012  0.001  0.173536  0.000465  0.99192  0.0  0.177641  0.000457  0.989161  0.0  0.10432  0.17056  0.000431  0.993894  0.0
H  H23  1  0.09789131  0.41045057  0.57990406  1  0.155169  0.000951  0.931974  0.001  0.173531  0.000465  0.991864  0.0  0.177643  0.000457  0.989102  0.0  0.104364  0.170554  0.000432  0.993841  0.0
H  H24  1  0.40212022  0.91044809  0.92010365  1  0.155111  0.000943  0.931983  0.001  0.17347  0.000464  0.991903  0.0  0.177576  0.000457  0.989143  0.0  0.104301  0.170489  0.000431  0.993875  0.0
H  H25  1  0.90212345  0.58955837  0.42010395  1  0.155142  0.000955  0.932075  0.001  0.173517  0.000465  0.991956  0.0  0.177626  0.000457  0.989194  0.0  0.104326  0.170538  0.000431  0.993932  0.0
H  H26  1  0.49029832  0.37089418  0.16238955  1  0.102954  8.3e-05  0.937715  0.0  0.116323  4.3e-05  0.990284  0.0  0.120111  3.4e-05  0.988768  0.0  0.105261  0.113501  4.7e-05  0.991749  0.0
H  H27  1  0.99028189  0.12909323  0.66237545  1  0.102913  8.2e-05  0.937478  0.0  0.11626  4.3e-05  0.990093  0.0  0.120038  3.4e-05  0.988586  0.0  0.105227  0.113436  4.8e-05  0.991563  0.0
H  H28  1  0.50971840  0.62909143  0.83763919  1  0.102989  7.8e-05  0.937427  0.0  0.116349  4.3e-05  0.990041  0.0  0.120119  3.4e-05  0.988541  0.0  0.105253  0.113517  4.8e-05  0.99151  0.0
H  H29  1  0.00971508  0.87090299  0.33760864  1  0.102923  8.3e-05  0.937464  0.0  0.116228  4.4e-05  0.990141  0.0  0.120016  3.4e-05  0.988627  0.0  0.105193  0.113404  4.7e-05  0.991608  0.0
H  H30  1  0.15012030  0.03498439  0.79360413  1  0.067429  -5.6e-05  0.942804  0.0  0.080553  -6.2e-05  1.000822  0.0  0.082637  -3.2e-05  0.999764  0.0  0.110289  0.079251  -9e-05  1.001124  0.0
H  H31  1  0.65011758  0.46500124  0.29361780  1  0.067536  -5.9e-05  0.942834  0.0  0.080659  -6.2e-05  1.000881  0.0  0.082747  -3.2e-05  0.999807  0.0  0.110281  0.07936  -9.1e-05  1.001173  0.0
H  H32  1  0.84986996  0.96501819  0.20638218  1  0.067511  -6.2e-05  0.942643  0.0  0.080646  -6.2e-05  1.000666  0.0  0.082734  -3.2e-05  0.999603  0.0  0.110313  0.079342  -9.1e-05  1.00098  0.0
H  H33  1  0.34988853  0.53497483  0.70641049  1  0.067466  -5.8e-05  0.942896  0.0  0.080607  -6.1e-05  1.000874  0.0  0.082678  -3.2e-05  0.999844  0.0  0.110289  0.079308  -9e-05  1.001159  0.0
H  H34  1  0.88949873  0.31093405  0.94249403  1  0.079528  9.8e-05  0.925677  0.0  0.087473  0.000116  0.985075  0.0  0.091139  0.000102  0.981718  0.0  0.111744  0.08475  0.000107  0.987549  0.0
H  H35  1  0.38947150  0.18905151  0.44250442  1  0.079385  9.4e-05  0.925381  0.0  0.08731  0.000116  0.984878  0.0  0.090974  0.000102  0.981526  0.0  0.111668  0.084592  0.000108  0.987349  0.0
H  H36  1  0.11051022  0.68907276  0.05748933  1  0.079382  9.4e-05  0.925543  0.0  0.087352  0.000116  0.984956  0.0  0.091015  0.000102  0.981601  0.0  0.111703  0.084625  0.000107  0.987427  0.0
H  H37  1  0.61049766  0.81092668  0.55751663  1  0.079505  8.6e-05  0.925675  0.0  0.087505  0.000116  0.984997  0.0  0.091171  0.000102  0.98164  0.0  0.111772  0.084782  0.000107  0.987477  0.0
H  H38  1  0.21645687  0.08381083  0.31763674  1  0.094966  6.2e-05  0.966393  0.0  0.104696  2.1e-05  1.028708  0.0  0.107626  1.5e-05  1.028504  0.0  0.09979  0.102678  2.1e-05  1.028853  0.0
H  H39  1  0.71646964  0.41617661  0.81763757  1  0.09496  5e-05  0.966601  0.0  0.104689  2.1e-05  1.028888  0.0  0.107618  1.5e-05  1.028684  0.0  0.099808  0.102671  2.1e-05  1.029031  0.0
H  H40  1  0.78352859  0.91617054  0.68237375  1  0.094918  5.6e-05  0.966655  0.0  0.104663  2.1e-05  1.028946  0.0  0.107595  1.5e-05  1.028747  0.0  0.099793  0.102642  2.1e-05  1.029097  0.0
H  H41  1  0.28353662  0.58382914  0.18234693  1  0.095044  4.7e-05  0.966503  0.0  0.104782  2.1e-05  1.028781  0.0  0.107715  1.5e-05  1.028579  0.0  0.099827  0.102762  2.1e-05  1.028923  0.0
C  C42  1  0.97716646  0.30681926  0.19350908  1  -0.398638  -0.011165  3.6899  -0.013  -0.477484  -0.006653  3.925118  -0.008  -0.484318  -0.004373  3.930395  -0.006  -0.245023  -0.472476  -0.008511  3.920581  -0.01
C  C43  1  0.47717151  0.19319257  0.69350922  1  -0.398754  -0.011155  3.690023  -0.013  -0.477651  -0.006645  3.92527  -0.008  -0.484487  -0.00437  3.930541  -0.006  -0.245064  -0.472641  -0.008504  3.920723  -0.01
C  C44  1  0.02283371  0.69318225  0.80649830  1  -0.398649  -0.011137  3.689849  -0.013  -0.477438  -0.006649  3.925061  -0.008  -0.484269  -0.004372  3.930336  -0.006  -0.244958  -0.472427  -0.008509  3.920516  -0.01
C  C45  1  0.52284111  0.80680789  0.30648369  1  -0.398551  -0.011147  3.689891  -0.013  -0.477417  -0.006651  3.925141  -0.008  -0.484252  -0.00437  3.930419  -0.006  -0.244982  -0.472407  -0.008508  3.920602  -0.01
C  C46  1  0.05784493  0.20161517  0.13607122  1  0.463952  0.010223  3.754617  0.009  0.451447  0.003654  4.031275  0.003  0.481463  0.004094  4.036881  0.003  0.119947  0.43135  0.003015  4.025341  0.003
C  C47  1  0.55785322  0.29839533  0.63607378  1  0.463886  0.010233  3.754358  0.009  0.451366  0.003658  4.031044  0.003  0.481387  0.004098  4.036641  0.003  0.120004  0.431268  0.003022  4.025112  0.003
C  C48  1  0.94215131  0.79838740  0.86393474  1  0.463948  0.010209  3.754439  0.009  0.451406  0.003656  4.03114  0.003  0.481425  0.004099  4.036739  0.003  0.119938  0.43131  0.003019  4.025191  0.003
C  C49  1  0.44215542  0.70160407  0.36391896  1  0.463614  0.010217  3.754887  0.009  0.451139  0.003656  4.031479  0.003  0.481157  0.004092  4.037088  0.003  0.119883  0.431043  0.003017  4.025549  0.003
C  C50  1  0.23682907  0.15952619  0.15334436  1  -0.349916  -0.004485  3.756022  -0.007  -0.349593  -0.001835  4.017752  -0.004  -0.376688  -0.00046  4.045018  -0.002  -0.076805  -0.330835  -0.003155  3.998208  -0.005
C  C51  1  0.73683589  0.34047822  0.65334183  1  -0.34982  -0.004492  3.756153  -0.007  -0.349445  -0.001829  4.017948  -0.004  -0.376533  -0.000458  4.045203  -0.002  -0.076836  -0.33069  -0.003147  3.998402  -0.005
C  C52  1  0.76316437  0.84047002  0.84666586  1  -0.349738  -0.004486  3.756063  -0.007  -0.349438  -0.001832  4.017775  -0.004  -0.376528  -0.000461  4.045036  -0.002  -0.076848  -0.330685  -0.003152  3.998226  -0.005
C  C53  1  0.26317563  0.65952117  0.34664415  1  -0.349504  -0.00449  3.756205  -0.007  -0.349332  -0.00183  4.017991  -0.004  -0.376416  -0.000458  4.045257  -0.002  -0.0767  -0.330576  -0.00315  3.998456  -0.005
C  C54  1  0.32341541  0.06188477  0.10236986  1  0.48017  0.009868  3.730528  0.009  0.467979  0.003277  4.00414  0.003  0.498884  0.003784  4.009068  0.003  0.126855  0.447005  0.00261  3.999721  0.003
C  C55  1  0.82342905  0.43811505  0.60237948  1  0.480117  0.009886  3.730005  0.009  0.467772  0.003279  4.00387  0.003  0.498682  0.003787  4.008798  0.003  0.126751  0.4468  0.002617  3.999446  0.003
C  C56  1  0.67657714  0.93811992  0.89762718  1  0.479724  0.009872  3.730575  0.009  0.467554  0.003276  4.00418  0.003  0.498461  0.003787  4.009106  0.003  0.126605  0.446581  0.002613  3.999755  0.003
C  C57  1  0.17657957  0.56189282  0.39761388  1  0.479901  0.009898  3.730237  0.009  0.467817  0.003277  4.003754  0.003  0.498705  0.003786  4.008706  0.003  0.126706  0.446849  0.002614  3.999332  0.003
C  C58  1  0.51693507  0.02753662  0.12107981  1  -0.40495  -0.011336  3.66768  -0.013  -0.485035  -0.006612  3.905192  -0.008  -0.492295  -0.004275  3.90866  -0.005  -0.246796  -0.479759  -0.00853  3.902783  -0.009
C  C59  1  0.01694167  0.47246771  0.62108930  1  -0.404888  -0.011333  3.667872  -0.013  -0.484917  -0.006607  3.905371  -0.008  -0.492189  -0.004271  3.908851  -0.005  -0.246848  -0.479643  -0.008522  3.902956  -0.009
C  C60  1  0.48306416  0.97246914  0.87891627  1  -0.404672  -0.011303  3.66766  -0.013  -0.484776  -0.006609  3.905138  -0.008  -0.492048  -0.004273  3.908633  -0.005  -0.246721  -0.479502  -0.008526  3.902721  -0.009
C  C61  1  0.98306141  0.52754441  0.37891070  1  -0.404987  -0.011349  3.667669  -0.013  -0.485085  -0.006608  3.90519  -0.008  -0.492355  -0.004273  3.908697  -0.005  -0.246878  -0.47982  -0.008525  3.902781  -0.009
C  C62  1  0.33785457  0.21932489  0.22892980  1  0.145225  0.002539  3.811867  0.002  0.163769  0.001275  4.03294  0.001  0.171375  0.001091  4.057823  0.001  0.006179  0.158452  0.001464  4.016605  0.001
C  C63  1  0.83786076  0.28066738  0.72891976  1  0.145333  0.002522  3.81171  0.002  0.16384  0.001272  4.032833  0.001  0.171436  0.001092  4.057739  0.001  0.006163  0.158535  0.001464  4.016459  0.001
C  C64  1  0.66213855  0.78065860  0.77108979  1  0.145333  0.002533  3.812101  0.002  0.163932  0.001273  4.033113  0.001  0.171528  0.001091  4.058019  0.001  0.006317  0.158623  0.001464  4.016732  0.001
C  C65  1  0.16215097  0.71933625  0.27105997  1  0.145225  0.002587  3.811978  0.002  0.163857  0.001274  4.032918  0.001  0.171465  0.001092  4.057794  0.001  0.006241  0.158518  0.001464  4.016637  0.001
C  C66  1  0.46357522  0.32758635  0.22346786  1  -0.187231  -0.00127  3.734089  -0.001  -0.204779  -0.000418  3.978784  0.0  -0.212975  -0.000288  3.999369  0.0  -0.092335  -0.19988  -0.000622  3.965734  -0.001
C  C67  1  0.96356997  0.17240538  0.72346675  1  -0.187215  -0.001245  3.734805  -0.001  -0.204744  -0.000417  3.979466  0.0  -0.212925  -0.000288  4.000059  0.0  -0.092231  -0.199856  -0.000621  3.96642  -0.001
C  C68  1  0.53643127  0.67240032  0.77654918  1  -0.187181  -0.001254  3.734962  -0.001  -0.204781  -0.000417  3.979622  0.0  -0.212952  -0.000288  4.000212  0.0  -0.09225  -0.199878  -0.000621  3.96655  -0.001
C  C69  1  0.03643091  0.82760249  0.27651940  1  -0.187096  -0.001302  3.734477  -0.001  -0.204607  -0.000418  3.979116  0.0  -0.2128  -0.000288  3.999702  0.0  -0.092255  -0.199705  -0.000621  3.96607  -0.001
C  C70  1  0.05369692  0.12075002  0.79651286  1  0.120681  0.001359  3.76562  0.001  0.096796  0.000566  4.030721  0.0  0.103119  0.000586  4.048986  0.0  0.037568  0.092585  0.000663  4.018214  0.0
C  C71  1  0.55369874  0.37923920  0.29652926  1  0.120177  0.001415  3.765059  0.001  0.096232  0.000567  4.030259  0.0  0.102555  0.000586  4.048525  0.0  0.037329  0.092021  0.000663  4.01777  0.0
C  C72  1  0.94631075  0.87924513  0.20346920  1  0.12016  0.001465  3.765624  0.001  0.096243  0.000567  4.030813  0.0  0.102562  0.000586  4.049088  0.0  0.037366  0.092032  0.000662  4.018313  0.0
C  C73  1  0.44629800  0.62073581  0.70350112  1  0.120473  0.001396  3.765469  0.001  0.096611  0.000565  4.030558  0.0  0.102931  0.000586  4.048819  0.0  0.037525  0.092406  0.000663  4.018051  0.0
C  C74  1  0.90903986  0.27419968  0.87902927  1  0.129761  0.001729  3.7466  0.001  0.107564  0.000945  4.004695  0.001  0.114338  0.000889  4.020639  0.0  0.040725  0.103161  0.000962  3.994132  0.001
C  C75  1  0.40901948  0.22579537  0.37902556  1  0.129773  0.001788  3.746777  0.001  0.107514  0.000945  4.005015  0.001  0.114285  0.000887  4.020976  0.0  0.040616  0.10312  0.000962  3.994444  0.001
C  C76  1  0.09097035  0.72580713  0.12095602  1  0.129683  0.001817  3.746012  0.001  0.107444  0.000946  4.004215  0.001  0.114216  0.000889  4.020165  0.0  0.040585  0.103056  0.000963  3.993628  0.001
C  C77  1  0.59095794  0.77418600  0.62098709  1  0.129628  0.001825  3.747037  0.001  0.107403  0.000944  4.005156  0.001  0.114173  0.000888  4.021106  0.0  0.040673  0.103002  0.000962  3.9946  0.001
C  C78  1  0.31187377  0.16858366  0.30958112  1  -0.178876  -0.001226  3.723375  -0.001  -0.191774  -0.000404  3.959333  0.0  -0.199875  -0.000279  3.980516  0.0  -0.091874  -0.187055  -0.000614  3.945761  -0.001
C  C79  1  0.81187676  0.33141715  0.80957592  1  -0.178931  -0.001179  3.723071  -0.001  -0.191826  -0.000403  3.958976  0.0  -0.199926  -0.000279  3.980159  0.0  -0.091938  -0.187107  -0.000614  3.945396  -0.001
C  C80  1  0.68811817  0.83140513  0.69043404  1  -0.178972  -0.001219  3.723257  -0.001  -0.191943  -0.000404  3.959213  0.0  -0.20005  -0.00028  3.980409  0.0  -0.092117  -0.187218  -0.000614  3.945627  -0.001
C  C81  1  0.18813203  0.66858966  0.19041244  1  -0.178899  -0.001221  3.723096  -0.001  -0.191841  -0.000404  3.959006  0.0  -0.199947  -0.000279  3.980192  0.0  -0.09189  -0.187117  -0.000614  3.945424  -0.001
N  N82  1  0.02855764  0.16980552  0.87354810  1  -0.337513  0.001009  3.14992  -0.001  -0.311282  0.001691  3.439135  0.0  -0.325007  0.001943  3.451884  0.0  -0.329813  -0.30224  0.001276  3.431353  0.0
N  N83  1  0.52853215  0.33018165  0.37355833  1  -0.336947  0.00098  3.149864  -0.001  -0.310614  0.00169  3.439028  0.0  -0.324345  0.001943  3.451789  0.0  -0.329403  -0.301582  0.001274  3.431252  0.0
N  N84  1  0.97144453  0.83020554  0.12643935  1  -0.336958  0.000954  3.149685  -0.001  -0.310678  0.001691  3.438894  0.0  -0.324406  0.001943  3.451651  0.0  -0.329486  -0.301637  0.001276  3.431108  0.0
N  N85  1  0.47145156  0.66979760  0.62646460  1  -0.337225  0.000977  3.149884  -0.001  -0.311011  0.001691  3.439078  0.0  -0.324737  0.001943  3.451834  0.0  -0.329673  -0.301988  0.001274  3.431305  0.0
O  O86  1  0.95280299  0.15806258  0.07481466  1  -0.530692  -0.07568  2.101493  -0.105  -0.500606  -0.050825  2.378147  -0.077  -0.540398  -0.03762  2.370224  -0.062  -0.305755  -0.473352  -0.059721  2.383099  -0.085
O  O87  1  0.45279771  0.34196003  0.57481179  1  -0.530785  -0.075672  2.101263  -0.105  -0.500704  -0.050827  2.37795  -0.077  -0.540487  -0.037622  2.369987  -0.062  -0.305879  -0.473495  -0.059727  2.382976  -0.085
O  O88  1  0.04719998  0.84194847  0.92518847  1  -0.530794  -0.075655  2.101569  -0.105  -0.500698  -0.05082  2.378256  -0.077  -0.540472  -0.037619  2.370298  -0.062  -0.305816  -0.473458  -0.05972  2.383237  -0.085
O  O89  1  0.54719644  0.65804997  0.42517719  1  -0.530692  -0.075659  2.101772  -0.105  -0.500504  -0.050819  2.37831  -0.077  -0.540291  -0.037615  2.370364  -0.062  -0.305748  -0.473263  -0.059718  2.383254  -0.085
O  O90  1  0.24958865  0.99697960  0.03886352  1  -0.526175  -0.078783  2.136199  -0.109  -0.497737  -0.05136  2.418084  -0.078  -0.53944  -0.038014  2.412212  -0.063  -0.30232  -0.469069  -0.060166  2.422102  -0.086
O  O91  1  0.74959010  0.50304152  0.53885963  1  -0.5262  -0.078828  2.135276  -0.109  -0.497738  -0.051379  2.417253  -0.078  -0.53946  -0.038029  2.411386  -0.063  -0.302273  -0.469077  -0.060197  2.421256  -0.086
O  O92  1  0.75041308  0.00304843  0.96113705  1  -0.526069  -0.078824  2.135859  -0.109  -0.497648  -0.051376  2.417747  -0.078  -0.539356  -0.038028  2.411874  -0.063  -0.302201  -0.468984  -0.060187  2.421776  -0.086
O  O93  1  0.25041454  0.49697802  0.46113356  1  -0.526232  -0.078831  2.13555  -0.109  -0.497784  -0.051378  2.417316  -0.078  -0.5395  -0.038026  2.411462  -0.063  -0.302324  -0.469118  -0.060193  2.421322  -0.086
