# generated using pymatgen
data_CaH11C5NCl2O3
_symmetry_space_group_name_H-M   'P 1'
_cell_length_a   7.04580159
_cell_length_b   11.53528005
_cell_length_c   12.11133140
_cell_angle_alpha   90.00002572
_cell_angle_beta   90.00018180
_cell_angle_gamma   90.00011029
_symmetry_Int_Tables_number   1
_chemical_formula_structural   CaH11C5NCl2O3
_chemical_formula_sum   'Ca4 H44 C20 N4 Cl8 O12'
_cell_volume   984.35202654
_cell_formula_units_Z   4
loop_
 _symmetry_equiv_pos_site_id
 _symmetry_equiv_pos_as_xyz
  1  'x, y, z'
loop_
 _atom_site_type_symbol
 _atom_site_label
 _atom_site_symmetry_multiplicity
 _atom_site_fract_x
 _atom_site_fract_y
 _atom_site_fract_z
 _atom_site_occupancy
 _atom_site_hle17_bader_spin_density
 _atom_site_hle17_ddec_charge
 _atom_site_hle17_ddec_spin_density
 _atom_site_hle17_ddec_sum_bond_order
 _atom_site_hle17_magmom
 _atom_site_hse06_10hf_bader_spin_density
 _atom_site_hse06_10hf_ddec_charge
 _atom_site_hse06_10hf_ddec_spin_density
 _atom_site_hse06_10hf_ddec_sum_bond_order
 _atom_site_hse06_10hf_magmom
 _atom_site_hse06_bader_spin_density
 _atom_site_hse06_ddec_charge
 _atom_site_hse06_ddec_spin_density
 _atom_site_hse06_ddec_sum_bond_order
 _atom_site_hse06_magmom
 _atom_site_pbe_bader_spin_density
 _atom_site_pbe_cm5_charge
 _atom_site_pbe_ddec_charge
 _atom_site_pbe_ddec_spin_density
 _atom_site_pbe_ddec_sum_bond_order
 _atom_site_pbe_magmom
Ca  Ca0  1  0.44493827  0.78062207  0.42154382  1  0  1.516924  0  1.121129  0  0  1.396036  0  1.458947  0  0  1.436505  0  1.419147  0  0  0.755542  1.365562  0  1.487086  0
Ca  Ca1  1  0.05505835  0.21937508  0.92154122  1  0  1.516951  0  1.121068  0  0  1.396013  0  1.458976  0  0  1.436481  0  1.419174  0  0  0.75552  1.365535  0  1.487111  0
Ca  Ca2  1  0.55506738  0.28062379  0.07845685  1  0  1.51694  0  1.121117  0  0  1.39603  0  1.458969  0  0  1.436503  0  1.419165  0  0  0.755537  1.365557  0  1.487101  0
Ca  Ca3  1  0.94494701  0.71937639  0.57846178  1  0  1.516943  0  1.121061  0  0  1.396046  0  1.458886  0  0  1.436518  0  1.419082  0  0  0.755527  1.365572  0  1.487021  0
H  H4  1  0.44969368  0.52176488  0.34705072  1  0  0.421419  0  0.881881  0  0  0.393016  0  0.942164  0  0  0.40315  0  0.927421  0  0  0.270841  0.385774  0  0.952686  0
H  H5  1  0.05030395  0.47823397  0.84705070  1  0  0.421481  0  0.881813  0  0  0.393067  0  0.942114  0  0  0.403203  0  0.927367  0  0  0.27085  0.385817  0  0.952639  0
H  H6  1  0.55030689  0.02176490  0.15294984  1  0  0.42148  0  0.881812  0  0  0.393064  0  0.942113  0  0  0.4032  0  0.927369  0  0  0.270852  0.385815  0  0.952639  0
H  H7  1  0.94969087  0.97823618  0.65294911  1  0  0.421554  0  0.881709  0  0  0.393064  0  0.942111  0  0  0.403221  0  0.927354  0  0  0.270836  0.385813  0  0.952638  0
H  H8  1  0.26421467  0.55625810  0.41333642  1  0  0.405302  0  0.906485  0  0  0.372785  0  0.975575  0  0  0.383148  0  0.960592  0  0  0.270613  0.365391  0  0.986249  0
H  H9  1  0.23578049  0.44373991  0.91333755  1  0  0.405401  0  0.90635  0  0  0.372899  0  0.975411  0  0  0.38326  0  0.96043  0  0  0.270672  0.365504  0  0.986086  0
H  H10  1  0.73578318  0.05625830  0.08666333  1  0  0.405358  0  0.906417  0  0  0.372845  0  0.975498  0  0  0.383207  0  0.960515  0  0  0.270644  0.365451  0  0.986172  0
H  H11  1  0.76421422  0.94374014  0.58666142  1  0  0.405392  0  0.906371  0  0  0.372875  0  0.975456  0  0  0.383241  0  0.960468  0  0  0.270644  0.365482  0  0.986131  0
H  H12  1  0.27554609  0.68821512  0.79999254  1  0  0.08613  0  0.974254  0  0  0.091536  0  1.040121  0  0  0.09438  0  1.038575  0  0  0.107124  0.089379  0  1.04145  0
H  H13  1  0.22446264  0.31178631  0.29999206  1  0  0.08604  0  0.974382  0  0  0.091459  0  1.040272  0  0  0.094305  0  1.038718  0  0  0.107118  0.089301  0  1.041604  0
H  H14  1  0.72444924  0.18821363  0.70000549  1  0  0.086201  0  0.974229  0  0  0.091554  0  1.040105  0  0  0.094396  0  1.038563  0  0  0.107141  0.089396  0  1.041436  0
H  H15  1  0.77554594  0.81178227  0.20001357  1  0  0.08616  0  0.974331  0  0  0.091554  0  1.040237  0  0  0.094399  0  1.038683  0  0  0.107164  0.089398  0  1.041567  0
H  H16  1  0.29073547  0.92242009  0.73726292  1  0  0.092433  0  0.949364  0  0  0.103521  0  1.017482  0  0  0.105372  0  1.017071  0  0  0.097337  0.102101  0  1.017906  0
H  H17  1  0.20926582  0.07757957  0.23726149  1  0  0.092511  0  0.949434  0  0  0.103575  0  1.017564  0  0  0.105424  0  1.017156  0  0  0.097365  0.102154  0  1.017985  0
H  H18  1  0.70925917  0.42242034  0.76273852  1  0  0.092413  0  0.949318  0  0  0.103528  0  1.017477  0  0  0.105378  0  1.017066  0  0  0.097347  0.102106  0  1.017898  0
H  H19  1  0.79073919  0.57757645  0.26273909  1  0  0.092449  0  0.949421  0  0  0.103569  0  1.017523  0  0  0.105422  0  1.017115  0  0  0.09738  0.102149  0  1.017944  0
H  H20  1  0.22725682  0.87428254  0.87096987  1  0  0.084978  0  0.950156  0  0  0.095637  0  1.01943  0  0  0.097549  0  1.018949  0  0  0.088419  0.094202  0  1.019856  0
H  H21  1  0.27274520  0.12571718  0.37096940  1  0  0.084975  0  0.950169  0  0  0.095629  0  1.01945  0  0  0.097542  0  1.018968  0  0  0.088399  0.094191  0  1.019878  0
H  H22  1  0.77273483  0.37428194  0.62902907  1  0  0.08492  0  0.950151  0  0  0.095617  0  1.01946  0  0  0.097529  0  1.018978  0  0  0.088394  0.094182  0  1.019883  0
H  H23  1  0.72726280  0.62571566  0.12903285  1  0  0.085004  0  0.950177  0  0  0.095639  0  1.019514  0  0  0.097551  0  1.019035  0  0  0.088405  0.094203  0  1.019939  0
H  H24  1  0.49978964  0.99578302  0.91357735  1  0  0.094768  0  0.944599  0  0  0.110529  0  1.005878  0  0  0.11226  0  1.005404  0  0  0.104967  0.109196  0  1.006331  0
H  H25  1  0.00020836  0.00422020  0.41357633  1  0  0.094901  0  0.944481  0  0  0.110618  0  1.005765  0  0  0.112358  0  1.005279  0  0  0.105015  0.109285  0  1.00622  0
H  H26  1  0.50019955  0.49578381  0.58642659  1  0  0.094851  0  0.944539  0  0  0.110595  0  1.005785  0  0  0.112314  0  1.005327  0  0  0.104998  0.109262  0  1.006235  0
H  H27  1  0.99979359  0.50421637  0.08642505  1  0  0.094817  0  0.944574  0  0  0.110561  0  1.005837  0  0  0.11229  0  1.005369  0  0  0.104979  0.109229  0  1.006285  0
H  H28  1  0.62247648  0.95137321  0.79207719  1  0  0.079535  0  0.932952  0  0  0.095633  0  0.994617  0  0  0.097055  0  0.994328  0  0  0.093856  0.094465  0  0.995032  0
H  H29  1  0.87752204  0.04863140  0.29207275  1  0  0.079585  0  0.932913  0  0  0.095627  0  0.99459  0  0  0.097048  0  0.994306  0  0  0.093838  0.094459  0  0.994999  0
H  H30  1  0.37751257  0.45136872  0.70792756  1  0  0.079588  0  0.932983  0  0  0.095625  0  0.99468  0  0  0.097047  0  0.994393  0  0  0.09384  0.094459  0  0.995085  0
H  H31  1  0.12248430  0.54862746  0.20792617  1  0  0.079606  0  0.932944  0  0  0.09564  0  0.994664  0  0  0.097063  0  0.994373  0  0  0.09386  0.094469  0  0.995079  0
H  H32  1  0.76463082  0.82444880  0.92929590  1  0  0.079266  0  0.94412  0  0  0.089322  0  1.013323  0  0  0.090946  0  1.012296  0  0  0.100668  0.088032  0  1.014207  0
H  H33  1  0.73537271  0.17555848  0.42929125  1  0  0.079298  0  0.943859  0  0  0.089276  0  1.013117  0  0  0.090899  0  1.012097  0  0  0.100642  0.087985  0  1.014  0
H  H34  1  0.23536209  0.32444754  0.57070220  1  0  0.079325  0  0.944134  0  0  0.089351  0  1.013328  0  0  0.090973  0  1.012315  0  0  0.100669  0.088059  0  1.014212  0
H  H35  1  0.26462977  0.67555291  0.07070524  1  0  0.079239  0  0.943978  0  0  0.089278  0  1.01321  0  0  0.090901  0  1.012187  0  0  0.100637  0.087988  0  1.014094  0
H  H36  1  0.54269882  0.80667452  0.99968349  1  0  0.074189  0  0.939559  0  0  0.08668  0  1.005463  0  0  0.088077  0  1.004769  0  0  0.098093  0.085495  0  1.00618  0
H  H37  1  0.95730794  0.19333193  0.49967926  1  0  0.07411  0  0.939699  0  0  0.086625  0  1.005549  0  0  0.088043  0  1.004833  0  0  0.098077  0.085438  0  1.006268  0
H  H38  1  0.45729971  0.30667522  0.50031790  1  0  0.074243  0  0.939518  0  0  0.086646  0  1.005488  0  0  0.088078  0  1.004757  0  0  0.098094  0.085465  0  1.006196  0
H  H39  1  0.04269460  0.69332606  0.00031889  1  0  0.074144  0  0.939585  0  0  0.086638  0  1.005499  0  0  0.08805  0  1.004788  0  0  0.09809  0.085452  0  1.006216  0
H  H40  1  0.67995714  0.69797671  0.79681160  1  0  0.283867  0  0.92341  0  0  0.263699  0  0.990997  0  0  0.271991  0  0.984757  0  0  0.286704  0.25777  0  0.995539  0
H  H41  1  0.82004709  0.30202703  0.29680303  1  0  0.28385  0  0.923404  0  0  0.263677  0  0.990996  0  0  0.271965  0  0.984766  0  0  0.286681  0.257758  0  0.99553  0
H  H42  1  0.32003396  0.19797561  0.70318892  1  0  0.283938  0  0.923417  0  0  0.263751  0  0.991011  0  0  0.272032  0  0.984784  0  0  0.28672  0.257831  0  0.995544  0
H  H43  1  0.17996005  0.80202490  0.20319104  1  0  0.283849  0  0.923425  0  0  0.263681  0  0.991004  0  0  0.271967  0  0.984777  0  0  0.28669  0.257756  0  0.995542  0
H  H44  1  0.54004563  0.64283278  0.89374052  1  0  0.285041  0  0.917323  0  0  0.267121  0  0.981457  0  0  0.274811  0  0.976206  0  0  0.276732  0.261636  0  0.985293  0
H  H45  1  0.95995629  0.35717101  0.39373223  1  0  0.285112  0  0.917295  0  0  0.267179  0  0.98145  0  0  0.274866  0  0.976203  0  0  0.276777  0.261704  0  0.985282  0
H  H46  1  0.45994671  0.14283267  0.60626080  1  0  0.285117  0  0.917341  0  0  0.267174  0  0.981493  0  0  0.274856  0  0.976252  0  0  0.276737  0.261697  0  0.985335  0
H  H47  1  0.04004250  0.85716606  0.10626351  1  0  0.284999  0  0.917358  0  0  0.267069  0  0.981519  0  0  0.27476  0  0.976264  0  0  0.276713  0.261587  0  0.985356  0
C  C48  1  0.42836301  0.73329080  0.65556679  1  0  0.684654  0  3.855667  0  0  0.633207  0  4.157934  0  0  0.667633  0  4.149143  0  0  0.233008  0.609667  0  4.163167  0
C  C49  1  0.07167189  0.26670448  0.15556518  1  0  0.684837  0  3.855573  0  0  0.633229  0  4.15817  0  0  0.667663  0  4.149369  0  0  0.232909  0.609685  0  4.16341  0
C  C50  1  0.57164239  0.23328747  0.84443375  1  0  0.684933  0  3.855326  0  0  0.633399  0  4.157653  0  0  0.667827  0  4.148857  0  0  0.233112  0.609857  0  4.162888  0
C  C51  1  0.92836209  0.76670330  0.34443548  1  0  0.684786  0  3.855405  0  0  0.633382  0  4.157644  0  0  0.667809  0  4.148848  0  0  0.233048  0.609841  0  4.162885  0
C  C52  1  0.39199703  0.74725146  0.77836498  1  0  0.003791  0  3.498686  0  0  -0.014163  0  3.733767  0  0  -0.015455  0  3.743428  0  0  0.01018  -0.013295  0  3.727235  0
C  C53  1  0.10801016  0.25274996  0.27836344  1  0  0.00397  0  3.498703  0  0  -0.014075  0  3.733993  0  0  -0.015365  0  3.743649  0  0  0.010172  -0.013199  0  3.727457  0
C  C54  1  0.60799564  0.24724898  0.72163473  1  0  0.003559  0  3.49888  0  0  -0.014164  0  3.733779  0  0  -0.01546  0  3.743435  0  0  0.010134  -0.013287  0  3.727244  0
C  C55  1  0.89200249  0.75274780  0.22163639  1  0  0.003774  0  3.4988  0  0  -0.014253  0  3.734029  0  0  -0.015539  0  3.743685  0  0  0.010142  -0.013383  0  3.727499  0
C  C56  1  0.34131039  0.87366103  0.80912293  1  0  -0.140482  0  3.611815  0  0  -0.183148  0  3.867235  0  0  -0.184561  0  3.879031  0  0  -0.154914  -0.181919  0  3.858989  0
C  C57  1  0.15869129  0.12634040  0.30911813  1  0  -0.140631  0  3.612  0  0  -0.183253  0  3.867372  0  0  -0.184666  0  3.879167  0  0  -0.154922  -0.182023  0  3.859121  0
C  C58  1  0.65868694  0.37365945  0.69087766  1  0  -0.140274  0  3.611662  0  0  -0.183177  0  3.867192  0  0  -0.184591  0  3.878996  0  0  -0.154922  -0.181949  0  3.858943  0
C  C59  1  0.84131103  0.62633904  0.19088000  1  0  -0.140475  0  3.611925  0  0  -0.183205  0  3.867415  0  0  -0.184614  0  3.879197  0  0  -0.154957  -0.181974  0  3.859165  0
C  C60  1  0.52524283  0.92279303  0.85771645  1  0  -0.126202  0  3.638369  0  0  -0.165911  0  3.896451  0  0  -0.167675  0  3.908966  0  0  -0.161168  -0.164504  0  3.887773  0
C  C61  1  0.97475605  0.07721075  0.35771303  1  0  -0.126354  0  3.638439  0  0  -0.165937  0  3.89635  0  0  -0.167709  0  3.90887  0  0  -0.16118  -0.16453  0  3.887669  0
C  C62  1  0.47474755  0.42279295  0.64228746  1  0  -0.126354  0  3.638417  0  0  -0.165888  0  3.896363  0  0  -0.167646  0  3.908888  0  0  -0.161154  -0.164484  0  3.887683  0
C  C63  1  0.02524754  0.57720580  0.14228673  1  0  -0.126319  0  3.638582  0  0  -0.16589  0  3.896518  0  0  -0.167657  0  3.909043  0  0  -0.161135  -0.164479  0  3.887838  0
C  C64  1  0.61040703  0.81995554  0.91891869  1  0  0.034474  0  3.513558  0  0  -0.022281  0  3.77052  0  0  -0.018319  0  3.77976  0  0  -0.064895  -0.024829  0  3.76429  0
C  C65  1  0.88959645  0.18005001  0.41891351  1  0  0.034534  0  3.513566  0  0  -0.022125  0  3.770364  0  0  -0.018185  0  3.779615  0  0  -0.064798  -0.024662  0  3.764127  0
C  C66  1  0.38958587  0.31995533  0.58108270  1  0  0.034358  0  3.513722  0  0  -0.022305  0  3.770582  0  0  -0.018375  0  3.779821  0  0  -0.064895  -0.024846  0  3.764352  0
C  C67  1  0.11040604  0.68004426  0.08108464  1  0  0.034529  0  3.513556  0  0  -0.022227  0  3.770479  0  0  -0.018277  0  3.779719  0  0  -0.064868  -0.024771  0  3.764244  0
N  N68  1  0.56279534  0.71792589  0.84654674  1  0  -0.289898  0  3.299202  0  0  -0.225526  0  3.49973  0  0  -0.239701  0  3.508055  0  0  -0.476831  -0.215769  0  3.49401  0
N  N69  1  0.93720916  0.28207701  0.34654168  1  0  -0.290049  0  3.299303  0  0  -0.225659  0  3.499853  0  0  -0.239832  0  3.508187  0  0  -0.476915  -0.215928  0  3.494132  0
N  N70  1  0.43719724  0.21792577  0.65345462  1  0  -0.290096  0  3.29953  0  0  -0.225724  0  3.499962  0  0  -0.239888  0  3.508302  0  0  -0.476879  -0.21599  0  3.494241  0
N  N71  1  0.06279507  0.78207385  0.15345651  1  0  -0.289882  0  3.299259  0  0  -0.225474  0  3.499789  0  0  -0.239652  0  3.50813  0  0  -0.476832  -0.215726  0  3.494067  0
Cl  Cl72  1  0.45523474  0.86572183  0.21313901  1  0  -0.659633  0  0.844666  0  0  -0.609632  0  1.071442  0  0  -0.625536  0  1.051724  0  0  -0.272644  -0.597735  0  1.085105  0
Cl  Cl73  1  0.04475790  0.13428043  0.71313802  1  0  -0.659633  0  0.844621  0  0  -0.609616  0  1.071444  0  0  -0.625516  0  1.051751  0  0  -0.272634  -0.597716  0  1.085104  0
Cl  Cl74  1  0.54477117  0.36572190  0.28686004  1  0  -0.659602  0  0.844666  0  0  -0.609596  0  1.071432  0  0  -0.625505  0  1.051722  0  0  -0.272631  -0.597702  0  1.0851  0
Cl  Cl75  1  0.95523300  0.63427751  0.78686248  1  0  -0.659627  0  0.84462  0  0  -0.609642  0  1.071417  0  0  -0.625548  0  1.051697  0  0  -0.272656  -0.597746  0  1.085079  0
Cl  Cl76  1  0.50797782  0.99694718  0.51249346  1  0  -0.668834  0  0.743762  0  0  -0.611399  0  0.953448  0  0  -0.627728  0  0.935943  0  0  -0.286918  -0.599219  0  0.965561  0
Cl  Cl77  1  0.99201917  0.00305383  0.01249747  1  0  -0.668843  0  0.743804  0  0  -0.611399  0  0.953499  0  0  -0.62773  0  0.935992  0  0  -0.286921  -0.599219  0  0.965603  0
Cl  Cl78  1  0.49201990  0.49694555  0.98750388  1  0  -0.66883  0  0.743787  0  0  -0.611396  0  0.953469  0  0  -0.627728  0  0.935961  0  0  -0.286911  -0.599219  0  0.965574  0
Cl  Cl79  1  0.00798134  0.50305423  0.48750390  1  0  -0.66883  0  0.743797  0  0  -0.611399  0  0.95349  0  0  -0.627729  0  0.935985  0  0  -0.286912  -0.59922  0  0.965592  0
O  O80  1  0.38268092  0.58832674  0.38097097  1  0  -0.891442  0  1.842715  0  0  -0.836017  0  2.020906  0  0  -0.85638  0  1.989477  0  0  -0.642165  -0.82126  0  2.042935  0
O  O81  1  0.11731264  0.41167213  0.88097188  1  0  -0.891597  0  1.84256  0  0  -0.836165  0  2.020751  0  0  -0.856528  0  1.989321  0  0  -0.642219  -0.821401  0  2.042805  0
O  O82  1  0.61731844  0.08832681  0.11902879  1  0  -0.891551  0  1.842607  0  0  -0.836124  0  2.020819  0  0  -0.856489  0  1.989388  0  0  -0.642207  -0.82136  0  2.042872  0
O  O83  1  0.88268197  0.91167251  0.61902708  1  0  -0.891647  0  1.842447  0  0  -0.83615  0  2.020764  0  0  -0.856547  0  1.989254  0  0  -0.64218  -0.821377  0  2.042828  0
O  O84  1  0.59380892  0.71837838  0.61735313  1  0  -0.695076  0  1.977517  0  0  -0.636196  0  2.22006  0  0  -0.663065  0  2.211077  0  0  -0.335669  -0.617187  0  2.225644  0
O  O85  1  0.90618013  0.28162268  0.11734224  1  0  -0.695335  0  1.976844  0  0  -0.636368  0  2.219459  0  0  -0.663249  0  2.210474  0  0  -0.335705  -0.61735  0  2.225043  0
O  O86  1  0.40618082  0.21837660  0.88265152  1  0  -0.695218  0  1.977158  0  0  -0.636323  0  2.219748  0  0  -0.663196  0  2.210763  0  0  -0.33572  -0.617311  0  2.225332  0
O  O87  1  0.09382694  0.78162313  0.38265099  1  0  -0.695224  0  1.977087  0  0  -0.636351  0  2.219602  0  0  -0.663224  0  2.210618  0  0  -0.335749  -0.617338  0  2.225192  0
O  O88  1  0.28161872  0.74148383  0.59382447  1  0  -0.755219  0  2.033872  0  0  -0.694428  0  2.29216  0  0  -0.724426  0  2.283422  0  0  -0.398864  -0.672936  0  2.297347  0
O  O89  1  0.21837468  0.25851837  0.09382891  1  0  -0.755137  0  2.034481  0  0  -0.694276  0  2.292857  0  0  -0.72427  0  2.284117  0  0  -0.398746  -0.672791  0  2.298046  0
O  O90  1  0.71837393  0.24147983  0.90617441  1  0  -0.755276  0  2.033977  0  0  -0.694463  0  2.29232  0  0  -0.724457  0  2.283578  0  0  -0.398903  -0.672973  0  2.297506  0
O  O91  1  0.78163657  0.75851444  0.40617587  1  0  -0.755226  0  2.034071  0  0  -0.694444  0  2.292345  0  0  -0.724443  0  2.283609  0  0  -0.398836  -0.672953  0  2.297534  0
