# generated using pymatgen
data_Zn4H55C90N19O3
_symmetry_space_group_name_H-M   'P 1'
_cell_length_a   18.85761841
_cell_length_b   19.55437337
_cell_length_c   20.49367294
_cell_angle_alpha   107.96670040
_cell_angle_beta   104.51390885
_cell_angle_gamma   113.61114365
_symmetry_Int_Tables_number   1
_chemical_formula_structural   Zn4H55C90N19O3
_chemical_formula_sum   'Zn4 H55 C90 N19 O3'
_cell_volume   5948.93334462
_cell_formula_units_Z   1
loop_
 _symmetry_equiv_pos_site_id
 _symmetry_equiv_pos_as_xyz
  1  'x, y, z'
loop_
 _atom_site_type_symbol
 _atom_site_label
 _atom_site_symmetry_multiplicity
 _atom_site_fract_x
 _atom_site_fract_y
 _atom_site_fract_z
 _atom_site_occupancy
 _atom_site_pbe_bader_charge
 _atom_site_pbe_bader_spin_density
 _atom_site_pbe_cm5_charge
 _atom_site_pbe_ddec_charge
 _atom_site_pbe_ddec_spin_density
 _atom_site_pbe_ddec_sum_bond_order
 _atom_site_pbe_magmom
Zn  Zn0  1  0.11721673  0.09554711  0.50154422  1  1.195434  0  0.746571  0.631956  0  2.393587  0
Zn  Zn1  1  0.88795708  0.88548475  0.50127329  1  1.197974  0  0.745765  0.642458  0  2.394354  0
Zn  Zn2  1  0.00324652  0.88774259  0.40229482  1  1.187876  0  0.743177  0.606133  0  2.472885  0
Zn  Zn3  1  0.01081108  0.08753699  0.60549988  1  1.188774  0  0.752344  0.624324  0  2.430644  0
H  H4  1  0.19553900  0.14071591  0.38532849  1  0.125837  0  0.117914  0.113418  0  1.016568  0
H  H5  1  0.82900870  0.49605503  0.57530621  1  0.086192  0  0.107029  0.110859  0  1.000718  0
H  H6  1  0.71463786  0.85811560  0.53169320  1  0.07329  0  0.121119  0.107859  0  0.993444  0
H  H7  1  0.84581409  0.38080836  0.58811362  1  0.062597  0  0.107351  0.11172  0  0.98485  0
H  H8  1  0.90022676  0.28477208  0.55357889  1  0.040252  0  0.104027  0.108539  0  1.004383  0
H  H9  1  0.11805759  0.36208084  0.50012663  1  0.097808  0  0.104467  0.115515  0  1.030921  0
H  H10  1  0.16492349  0.61395391  0.48315083  1  0.072192  0  0.109395  0.114382  0  0.992225  0
H  H11  1  0.24946085  0.84120147  0.54559251  1  0.076149  0  0.097778  0.099393  0  1.015405  0
H  H12  1  0.38886310  0.10973695  0.68691103  1  0.043556  0  0.10213  0.104821  0  1.004347  0
H  H13  1  0.54731499  0.18998968  0.74707050  1  0.050933  0  0.105736  0.107029  0  0.986388  0
H  H14  1  0.68122627  0.19747177  0.74823339  1  0.079409  0  0.104863  0.11333  0  1.001477  0
H  H15  1  0.84924642  0.71478086  0.50922473  1  0.096473  0  0.120973  0.110188  0  1.010596  0
H  H16  1  0.89382791  0.89980434  0.26335219  1  0.085608  0  0.119722  0.109474  0  0.996219  0
H  H17  1  0.61564439  0.85747906  0.56524653  1  0.055146  0  0.103165  0.10788  0  1.011364  0
H  H18  1  0.46311479  0.77257862  0.53461288  1  0.054103  0  0.10635  0.110762  0  0.986305  0
H  H19  1  0.32837083  0.76593717  0.52933280  1  0.047967  0  0.10157  0.100563  0  0.999975  0
H  H20  1  0.22191526  0.40726187  0.82775916  1  0.039156  0  0.096272  0.100379  0  1.063316  0
H  H21  1  0.78085381  0.89164110  0.16159189  1  0.038723  0  0.098425  0.099361  0  1.002102  0
H  H22  1  0.61903572  0.81181147  0.27141483  1  0.08029  0  0.098456  0.101738  0  1.033131  0
H  H23  1  0.42794184  0.67640714  0.02301824  1  0.087811  0  0.095528  0.092392  0  1.06957  0
H  H24  1  0.47504538  0.59661244  0.80850975  1  0.056444  0  0.099846  0.098969  0  0.995914  0
H  H25  1  0.65440079  0.81217559  0.03943251  1  0.038041  0  0.0996  0.099313  0  1.000858  0
H  H26  1  0.12310549  0.84351143  0.50496607  1  0.055313  0  0.109933  0.091089  0  1.043157  0
H  H27  1  0.37418372  0.45338059  0.70365784  1  0.04367  0  0.099112  0.105117  0  1.003234  0
H  H28  1  0.91941860  0.17912026  0.56575189  1  0.100415  0  0.121813  0.111469  0  1.002452  0
H  H29  1  0.53736745  0.69058328  0.93392315  1  0.030373  0  0.094731  0.090146  0  1.01038  0
H  H30  1  0.49251326  0.73612532  0.14975041  1  0.030913  0  0.097369  0.096044  0  1.000252  0
H  H31  1  0.18811451  0.90423732  0.21344714  1  0.066028  0  0.09615  0.094616  0  1.00881  0
H  H32  1  0.23629893  0.08772783  0.83381054  1  0.031255  0  0.097138  0.095966  0  1.005573  0
H  H33  1  0.04365349  0.82490288  0.73232251  1  0.064426  0  0.09851  0.099822  0  1.002785  0
H  H34  1  0.18097002  0.89786415  0.98926098  1  0.03186  0  0.097037  0.094471  0  1.008586  0
H  H35  1  0.23092535  0.14531388  0.16047576  1  0.061345  0  0.099232  0.097383  0  0.998559  0
H  H36  1  0.28793389  0.08826027  0.95653041  1  0.065623  0  0.098831  0.097391  0  1.004176  0
H  H37  1  0.15394049  0.10120295  0.73886584  1  0.098811  0  0.116733  0.103793  0  1.007057  0
H  H38  1  0.19089571  0.13655447  0.26449360  1  0.069467  0  0.103128  0.107585  0  0.997704  0
H  H39  1  0.25220865  0.08792231  0.05341089  1  0.033357  0  0.096325  0.092561  0  1.011852  0
H  H40  1  0.22582289  0.91193305  0.10824360  1  0.069256  0  0.099174  0.098921  0  1.003491  0
H  H41  1  0.09687718  0.82535796  0.85503124  1  0.024639  0  0.099081  0.097217  0  0.999302  0
H  H42  1  0.88160327  0.12663729  0.67714193  1  0.134661  0  0.114992  0.111654  0  1.035577  0
H  H43  1  0.07408543  0.87017293  0.26434929  1  0.093072  0  0.116819  0.10502  0  0.999248  0
H  H44  1  0.28327475  0.30085282  0.61438935  1  0.078208  0  0.121466  0.113025  0  0.992312  0
H  H45  1  0.74279739  0.47081474  0.44352892  1  0.035292  0  0.098076  0.09612  0  0.998032  0
H  H46  1  0.71116873  0.54685938  0.46927678  1  0.050763  0  0.109401  0.117163  0  0.96824  0
H  H47  1  0.76117607  0.54438565  0.40527556  1  0.051011  0  0.096977  0.094843  0  0.999549  0
H  H48  1  0.98734454  0.82983361  0.61761266  1  0.113408  0  0.113659  0.099885  0  1.029857  0
H  H49  1  0.25443160  0.44941758  0.95090699  1  0.045965  0  0.099756  0.095429  0  0.988229  0
H  H50  1  0.18629514  0.47954286  0.90474090  1  0.041955  0  0.101413  0.099319  0  0.983783  0
H  H51  1  0.25142640  0.53896971  0.00532442  1  0.068103  0  0.111022  0.114613  0  0.970774  0
H  H52  1  0.68670984  0.95932098  0.35320642  1  0.058487  0  0.099344  0.097673  0  1.003643  0
H  H53  1  0.76754270  0.01575054  0.44977565  1  0.073077  0  0.095837  0.099249  0  1.003242  0
H  H54  1  0.65922284  0.94083080  0.42652040  1  0.059373  0  0.106846  0.113534  0  0.975938  0
H  H55  1  0.27319373  0.11597892  0.62647985  1  0.081977  0  0.117314  0.10412  0  1.005856  0
H  H56  1  0.13554286  0.27794836  0.74598734  1  0.070055  0  0.11731  0.106518  0  1.000602  0
H  H57  1  0.00152522  0.71417359  0.38296637  1  0.080752  0  0.118013  0.104832  0  0.994553  0
H  H58  1  0.06919745  0.67156824  0.46227851  1  0.043798  0  0.099166  0.099949  0  1.013224  0
C  C59  1  0.16119302  0.07312763  0.36491396  1  0.404463  0  0.009961  -0.045786  0  3.96897  0
C  C60  1  0.22546583  0.04960419  0.59084569  1  0.407088  0  0.010315  -0.042131  0  3.954794  0
C  C61  1  0.16334607  0.26983055  0.70584355  1  0.40602  0  0.002278  -0.060295  0  4.001201  0
C  C62  1  0.76645404  0.92324587  0.56576565  1  0.436884  0  0.015489  -0.035918  0  3.985048  0
C  C63  1  0.96309063  0.72500492  0.41185200  1  0.358728  0  0.005741  -0.057215  0  3.996795  0
C  C64  1  0.23483363  0.32935354  0.70374821  1  0.016275  0  -0.036535  -0.034658  0  4.079487  0
C  C65  1  0.93390457  0.69006398  0.45726459  1  -0.006095  0  -0.037319  -0.031137  0  4.082202  0
C  C66  1  0.23123340  0.97807903  0.58299907  1  0.000331  0  -0.035983  -0.041606  0  4.062747  0
C  C67  1  0.09141079  0.96234191  0.70657604  1  0.007078  0  -0.034427  -0.037945  0  4.071592  0
C  C68  1  0.02807418  0.63196561  0.48076616  1  -0.05442  0  -0.089331  -0.169966  0  3.951333  0
C  C69  1  0.95617294  0.63655132  0.48330293  1  0.02678  0  -0.01361  -0.006914  0  4.060725  0
C  C70  1  0.76720484  0.99356344  0.61337026  1  -0.003715  0  -0.038795  -0.051355  0  4.075929  0
C  C71  1  0.90790442  0.58889986  0.51264661  1  0.515131  0  0.085795  0.156948  0  3.975392  0
C  C72  1  0.92604480  0.53339289  0.53336242  1  -0.010144  0  -0.013853  -0.018933  0  4.041728  0
C  C73  1  0.99395878  0.52372475  0.52285125  1  -0.007987  0  0.003041  0.01213  0  3.947541  0
C  C74  1  0.86681874  0.90138452  0.30443045  1  0.407396  0  0.010516  -0.027755  0  3.97543  0
C  C75  1  0.04795280  0.57669612  0.49960059  1  0.033794  0  -0.013084  0.067238  0  4.084946  0
C  C76  1  0.87579696  0.48318425  0.56117916  1  -0.084147  0  -0.091348  -0.122679  0  4.026366  0
C  C77  1  0.88552170  0.41999208  0.56848218  1  -0.009015  0  -0.087422  -0.130618  0  4.001777  0
C  C78  1  0.94629173  0.40207878  0.54904267  1  -0.023822  0  -0.0063  0.0835  0  4.049636  0
C  C79  1  0.00448651  0.45851726  0.53106808  1  0.027555  0  0.004343  0.005391  0  3.929254  0
C  C80  1  0.06936116  0.44520720  0.51691958  1  0.002765  0  0.000491  0.048569  0  4.009754  0
C  C81  1  0.78538049  0.88826576  0.29623437  1  0.021523  0  -0.040907  -0.146695  0  4.054547  0
C  C82  1  0.13079851  0.50731733  0.50421757  1  0.112007  0  0.005999  0.015523  0  4.073869  0
C  C83  1  0.11924935  0.56963578  0.49504138  1  -0.024063  0  -0.068842  -0.146509  0  3.928463  0
C  C84  1  0.94764759  0.32943546  0.54327941  1  0.010764  0  -0.084451  -0.17774  0  3.923278  0
C  C85  1  0.00541387  0.31144042  0.52110653  1  0.012403  0  -0.006969  0.094789  0  4.067506  0
C  C86  1  0.95673115  0.17487358  0.53361481  1  0.384226  0  0.010414  -0.061749  0  3.963984  0
C  C87  1  0.06903401  0.37216418  0.51235178  1  -0.047324  0  -0.0849  -0.176122  0  3.908144  0
C  C88  1  0.30983017  0.90105195  0.58227167  1  -0.096167  0  -0.087276  -0.178702  0  3.921075  0
C  C89  1  0.30919750  0.97599724  0.61152310  1  0.060344  0  -0.005519  0.097903  0  4.070991  0
C  C90  1  0.38781058  0.05131375  0.66093590  1  -0.030551  0  -0.085702  -0.177683  0  3.926183  0
C  C91  1  0.46607465  0.05509444  0.67320945  1  -0.010441  0  -0.009866  0.07594  0  4.065583  0
C  C92  1  0.99941749  0.23113967  0.50855804  1  0.056384  0  -0.011663  -0.034692  0  4.000582  0
C  C93  1  0.46594580  0.98001779  0.63658710  1  -0.019633  0  0.000903  0.002757  0  3.921433  0
C  C94  1  0.38651415  0.90144774  0.59384699  1  0.000988  0  -0.009401  0.073932  0  4.058135  0
C  C95  1  0.54661435  0.13291452  0.71638718  1  -0.017745  0  -0.084251  -0.118331  0  4.001083  0
C  C96  1  0.62097598  0.13712189  0.71711199  1  0.003084  0  -0.091863  -0.13899  0  4.00694  0
C  C97  1  0.62121767  0.06334209  0.67581062  1  -0.058815  0  0.004397  0.05891  0  4.002629  0
C  C98  1  0.78787647  0.89637859  0.36805689  1  1.017959  0  0.182648  0.298633  0  4.042442  0
C  C99  1  0.54326888  0.98405930  0.63840195  1  -0.007271  0  0.000317  -0.002827  0  3.937881  0
C  C100  1  0.54244793  0.90913954  0.59919312  1  -0.006107  0  -0.004779  0.088526  0  4.058923  0
C  C101  1  0.46312988  0.83008273  0.56225511  1  0.021216  0  -0.09  -0.136464  0  4.00189  0
C  C102  1  0.38849932  0.82654011  0.55950478  1  -0.04635  0  -0.084321  -0.117678  0  4.002121  0
C  C103  1  0.23846017  0.28142560  0.63876100  1  0.418476  0  0.006824  -0.056308  0  3.976502  0
C  C104  1  0.69554705  0.06682742  0.66843055  1  0.121512  0  -0.004893  -0.06073  0  4.021573  0
C  C105  1  0.69448339  0.99276733  0.62711521  1  0.004992  0  0.002937  0.068598  0  4.042739  0
C  C106  1  0.61785889  0.91543510  0.59569074  1  -0.025117  0  -0.091931  -0.19364  0  3.955178  0
C  C107  1  0.29155074  0.41803101  0.75911538  1  0.035438  0  -0.015013  0.106862  0  4.084935  0
C  C108  1  0.27712174  0.44909276  0.82299932  1  -0.02429  0  -0.121741  -0.289243  0  4.022907  0
C  C109  1  0.33250478  0.53093149  0.88117864  1  0.438172  0  0.085363  0.219813  0  4.012614  0
C  C110  1  0.03703483  0.19213030  0.47145414  1  0.496703  0  0.097053  0.08386  0  4.08221  0
C  C111  1  0.40855236  0.58633885  0.87941325  1  0.060953  0  -0.024146  0.00485  0  4.021009  0
C  C112  1  0.41848456  0.55512527  0.81242803  1  -0.070305  0  -0.093462  -0.114853  0  4.019216  0
C  C113  1  0.36213574  0.47388618  0.75340849  1  -0.060301  0  -0.110149  -0.167796  0  4.033371  0
C  C114  1  0.88420621  0.72430497  0.47502705  1  0.431502  0  0.008498  -0.050876  0  4.003307  0
C  C115  1  0.64592019  0.81199114  0.09016304  1  -0.020406  0  -0.094127  -0.127332  0  3.980338  0
C  C116  1  0.71769219  0.85692820  0.15953798  1  -0.025043  0  -0.098421  -0.141781  0  3.999709  0
C  C117  1  0.62749908  0.81437846  0.22142150  1  -0.12049  0  -0.104008  -0.149479  0  4.017019  0
C  C118  1  0.55605561  0.77095409  0.15246102  1  -0.022736  0  -0.095928  -0.130596  0  4.004586  0
C  C119  1  0.56297521  0.76462617  0.08417680  1  0.010102  0  -0.017914  0.107339  0  4.053539  0
C  C120  1  0.47986510  0.66502670  0.94361502  1  -0.12504  0  -0.100334  -0.123906  0  4.020719  0
C  C121  1  0.48561922  0.70226672  0.01431776  1  0.037868  0  -0.104038  -0.148854  0  4.015037  0
C  C122  1  0.85112923  0.06039453  0.63894395  1  0.399582  0  0.005471  -0.054821  0  3.975829  0
C  C123  1  0.71081195  0.85624785  0.22647514  1  0.011044  0  -0.01421  0.097778  0  4.041617  0
C  C124  1  0.18339398  0.01810240  0.24509888  1  0.02782  0  -0.013751  0.081649  0  4.056415  0
C  C125  1  0.14896167  0.91074851  0.52846415  1  0.434394  0  0.008277  -0.04037  0  3.959186  0
C  C126  1  0.19576342  0.95645525  0.20094406  1  -0.124707  0  -0.099079  -0.140692  0  4.021525  0
C  C127  1  0.21735170  0.96097680  0.14181241  1  -0.01264  0  -0.095546  -0.131074  0  3.996064  0
C  C128  1  0.22757974  0.02749020  0.12406154  1  -0.02813  0  -0.018915  0.103237  0  4.065298  0
C  C129  1  0.22196184  0.09242709  0.17229765  1  -0.059025  0  -0.092823  -0.129393  0  3.998075  0
C  C130  1  0.19954569  0.08759715  0.23099373  1  -0.06347  0  -0.095018  -0.13334  0  3.996663  0
C  C131  1  0.23370723  0.03042095  0.90762224  1  -0.088715  0  -0.093901  -0.128139  0  3.999185  0
C  C132  1  0.20446017  0.03000549  0.83821668  1  -0.02253  0  -0.097465  -0.135741  0  4.008655  0
C  C133  1  0.09781401  0.88299338  0.78101121  1  -0.044691  0  -0.097547  -0.136256  0  4.003955  0
C  C134  1  0.09981917  0.93522122  0.30370448  1  0.399639  0  0.004227  -0.061074  0  4.005748  0
C  C135  1  0.12780677  0.88310576  0.85032285  1  -0.033026  0  -0.093579  -0.129981  0  3.997296  0
C  C136  1  0.10602374  0.03565024  0.69966033  1  0.392022  0  0.007554  -0.04757  0  3.965912  0
C  C137  1  0.19278912  0.95792090  0.91639578  1  0.003717  0  -0.018783  0.101841  0  4.064769  0
C  C138  1  0.23391354  0.02798313  0.05491923  1  -0.027344  0  -0.098106  -0.140679  0  4.020949  0
C  C139  1  0.20629617  0.95929590  0.98998471  1  -0.044102  0  -0.096906  -0.137271  0  4.014563  0
C  C140  1  0.13266689  0.95750993  0.77415643  1  -0.008423  0  -0.011969  0.082195  0  4.050413  0
C  C141  1  0.15168334  0.00932751  0.30180167  1  0.016527  0  -0.036934  -0.039271  0  4.099494  0
C  C142  1  0.75914981  0.53544053  0.45540662  1  0.410778  0  -0.134889  -0.17296  0  3.912116  0
C  C143  1  0.20374203  0.50341745  0.50060048  1  0.784353  0  0.171662  0.237652  0  4.040917  0
C  C144  1  0.76946793  0.14804085  0.70084272  1  0.830759  0  0.17536  0.255893  0  4.073888  0
C  C145  1  0.24827421  0.50306003  0.95064497  1  0.406905  0  -0.13052  -0.170483  0  3.936842  0
C  C146  1  0.70935039  0.95569832  0.40631958  1  0.359253  0  -0.134609  -0.160748  0  3.881482  0
C  C147  1  0.02017591  0.89729754  0.63776889  1  0.410002  0  0.007988  -0.042032  0  3.952991  0
C  C148  1  0.09021087  0.21855363  0.43571952  1  0.825346  0  0.178706  0.214845  0  4.058242  0
N  N149  1  0.11875092  0.03963977  0.40137136  1  -0.791956  0  -0.27625  -0.18002  0  3.560982  0
N  N150  1  0.91194283  0.91372973  0.37381688  1  -0.802993  0  -0.291125  -0.188851  0  3.654863  0
N  N151  1  0.97073230  0.11019484  0.51572802  1  -0.736779  0  -0.265431  -0.167832  0  3.560702  0
N  N152  1  0.86340620  0.91105396  0.41350005  1  -0.798397  0  -0.286661  -0.288131  0  3.581103  0
N  N153  1  0.01950417  0.11980740  0.47708722  1  -0.701539  0  -0.252348  -0.203956  0  3.48291  0
N  N154  1  0.89524568  0.03157928  0.60891383  1  -0.802082  0  -0.27145  -0.174324  0  3.548274  0
N  N155  1  0.08023109  0.95360726  0.36319507  1  -0.821931  0  -0.275044  -0.177023  0  3.562187  0
N  N156  1  0.17446418  0.20044637  0.60543790  1  -0.814335  0  -0.270418  -0.187231  0  3.536131  0
N  N157  1  0.26443046  0.50119573  0.49922049  1  -1.104601  0  -0.327673  -0.37522  0  2.671458  0
N  N158  1  0.82882045  0.21595056  0.72714944  1  -1.184975  0  -0.345009  -0.41213  0  2.690483  0
N  N159  1  0.13659162  0.23943566  0.40774978  1  -1.117484  0  -0.304459  -0.350244  0  2.710144  0
N  N160  1  0.88603278  0.77680374  0.44492679  1  -0.764908  0  -0.274597  -0.1852  0  3.508792  0
N  N161  1  0.09955625  0.94035916  0.50512328  1  -0.762164  0  -0.281069  -0.179237  0  3.618712  0
N  N162  1  0.04728617  0.01486400  0.63267352  1  -0.805831  0  -0.291051  -0.186589  0  3.684261  0
N  N163  1  0.99449378  0.93006213  0.59452799  1  -0.783701  0  -0.278944  -0.185567  0  3.623229  0
N  N164  1  0.14662848  0.02563876  0.54352299  1  -0.811622  0  -0.281406  -0.184772  0  3.645873  0
N  N165  1  0.12772507  0.19350266  0.64738661  1  -0.795762  0  -0.276557  -0.184117  0  3.567289  0
N  N166  1  0.93524255  0.77722890  0.40512906  1  -0.78524  0  -0.273948  -0.179284  0  3.51054  0
N  N167  1  0.84250906  0.94624466  0.56349708  1  -0.785066  0  -0.267912  -0.172498  0  3.553838  0
O  O168  1  0.84008064  0.59552447  0.52105395  1  -1.083295  0  -0.210093  -0.199711  0  2.541618  0
O  O169  1  0.31829422  0.56039430  0.94347312  1  -1.071296  0  -0.179809  -0.145703  0  2.606506  0
O  O170  1  0.72647827  0.88811122  0.39374867  1  -1.093489  0  -0.203225  -0.212376  0  2.559617  0
