# generated using pymatgen
data_NaH18AuC18S6(N3O)2
_symmetry_space_group_name_H-M   'P 1'
_cell_length_a   8.49309970
_cell_length_b   8.72855046
_cell_length_c   8.99553108
_cell_angle_alpha   107.16347042
_cell_angle_beta   94.50974417
_cell_angle_gamma   97.80698517
_symmetry_Int_Tables_number   1
_chemical_formula_structural   NaH18AuC18S6(N3O)2
_chemical_formula_sum   'Na1 H18 Au1 C18 S6 N6 O2'
_cell_volume   626.27383569
_cell_formula_units_Z   1
loop_
 _symmetry_equiv_pos_site_id
 _symmetry_equiv_pos_as_xyz
  1  'x, y, z'
loop_
 _atom_site_type_symbol
 _atom_site_label
 _atom_site_symmetry_multiplicity
 _atom_site_fract_x
 _atom_site_fract_y
 _atom_site_fract_z
 _atom_site_occupancy
 _atom_site_hle17_bader_spin_density
 _atom_site_hle17_ddec_charge
 _atom_site_hle17_ddec_spin_density
 _atom_site_hle17_ddec_sum_bond_order
 _atom_site_hle17_magmom
 _atom_site_hse06_10hf_bader_spin_density
 _atom_site_hse06_10hf_ddec_charge
 _atom_site_hse06_10hf_ddec_spin_density
 _atom_site_hse06_10hf_ddec_sum_bond_order
 _atom_site_hse06_10hf_magmom
 _atom_site_hse06_bader_spin_density
 _atom_site_hse06_ddec_charge
 _atom_site_hse06_ddec_spin_density
 _atom_site_hse06_ddec_sum_bond_order
 _atom_site_hse06_magmom
 _atom_site_pbe_bader_spin_density
 _atom_site_pbe_cm5_charge
 _atom_site_pbe_ddec_charge
 _atom_site_pbe_ddec_spin_density
 _atom_site_pbe_ddec_sum_bond_order
 _atom_site_pbe_magmom
Na  Na0  1  0.50000163  0.00000173  0.49999505  1  0  0.852646  0  0.455113  0  0  0.778669  0  0.646345  0  0  0.790366  0  0.626073  0  0  0.614073  0.770303  0  0.660564  0
H  H1  1  0.53249772  0.40652054  0.76565545  1  0  0.122918  0  0.952364  0  0  0.134013  0  1.012453  0  0  0.137421  0  1.010676  0  0  0.104339  0.131588  0  1.013765  0
H  H2  1  0.46749492  0.59348381  0.23435524  1  0  0.122966  0  0.95231  0  0  0.134018  0  1.012459  0  0  0.137412  0  1.010717  0  0  0.104361  0.131593  0  1.013771  0
H  H3  1  0.14990701  0.67047364  0.50393602  1  0  0.12485  0  0.949121  0  0  0.135072  0  1.009359  0  0  0.138609  0  1.006962  0  0  0.106858  0.132565  0  1.011117  0
H  H4  1  0.85009632  0.32953038  0.49605654  1  0  0.124838  0  0.949206  0  0  0.135035  0  1.009466  0  0  0.138572  0  1.007068  0  0  0.106858  0.132529  0  1.011221  0
H  H5  1  0.70479394  0.24222877  0.90972070  1  0  0.012909  0  0.998474  0  0  0.013348  0  1.090585  0  0  0.01647  0  1.083461  0  0  0.094731  0.010885  0  1.095706  0
H  H6  1  0.29520307  0.75775195  0.09024490  1  0  0.012731  0  0.998451  0  0  0.013254  0  1.090462  0  0  0.016449  0  1.08329  0  0  0.094694  0.010791  0  1.095587  0
H  H7  1  0.89956973  0.30041855  0.09500499  1  0  0.100603  0  0.967607  0  0  0.116164  0  1.040748  0  0  0.11639  0  1.041704  0  0  0.098456  0.115869  0  1.040198  0
H  H8  1  0.10040564  0.69958091  0.90498297  1  0  0.100576  0  0.96769  0  0  0.116145  0  1.040771  0  0  0.116369  0  1.041734  0  0  0.098451  0.115851  0  1.040215  0
H  H9  1  0.06775735  0.20348037  0.04150739  1  0  0.091526  0  0.956214  0  0  0.10683  0  1.028545  0  0  0.10764  0  1.028102  0  0  0.090943  0.106176  0  1.02894  0
H  H10  1  0.93222145  0.79651934  0.95850759  1  0  0.091483  0  0.956149  0  0  0.106811  0  1.028477  0  0  0.107619  0  1.028035  0  0  0.090913  0.106159  0  1.028866  0
H  H11  1  0.07874026  0.41273109  0.06172544  1  0  0.09861  0  0.937178  0  0  0.118396  0  0.999994  0  0  0.119019  0  1.000033  0  0  0.097814  0.117866  0  1.000057  0
H  H12  1  0.92124436  0.58726116  0.93828016  1  0  0.098543  0  0.937307  0  0  0.118327  0  1.000123  0  0  0.118956  0  1.00015  0  0  0.097787  0.117765  0  1.000217  0
H  H13  1  0.98935491  0.19823576  0.62796024  1  0  0.105028  0  0.956838  0  0  0.121173  0  1.025321  0  0  0.122565  0  1.024338  0  0  0.104848  0.12  0  1.026226  0
H  H14  1  0.01067816  0.80177654  0.37204698  1  0  0.10507  0  0.956738  0  0  0.121227  0  1.025221  0  0  0.122636  0  1.024243  0  0  0.104885  0.120071  0  1.026103  0
H  H15  1  0.13167040  0.35383412  0.77035759  1  0  0.099409  0  0.940599  0  0  0.121672  0  1.000589  0  0  0.121099  0  1.002804  0  0  0.101171  0.121969  0  0.999136  0
H  H16  1  0.86835360  0.64616754  0.22966597  1  0  0.099267  0  0.940608  0  0  0.12158  0  1.000573  0  0  0.121002  0  1.002787  0  0  0.101134  0.121877  0  0.999121  0
H  H17  1  0.12668927  0.14583958  0.75867122  1  0  0.094972  0  0.960723  0  0  0.112612  0  1.032781  0  0  0.113141  0  1.033097  0  0  0.091628  0.112119  0  1.032662  0
H  H18  1  0.87332706  0.85415838  0.24133849  1  0  0.094911  0  0.960698  0  0  0.112594  0  1.032758  0  0  0.113127  0  1.033076  0  0  0.091636  0.1121  0  1.032642  0
Au  Au19  1  0.50000170  0.00000506  0.00000060  1  0  0.2712  0  3.377625  0  0  0.2486  0  4.001749  0  0  0.261894  0  3.981885  0  0  0.484725  0.239732  0  4.014955  0
C  C20  1  0.33320318  0.70331560  0.69564873  1  0  0.046547  0  3.796905  0  0  0.059229  0  4.05655  0  0  0.061147  0  4.079329  0  0  -0.015088  0.057704  0  4.041141  0
C  C21  1  0.66679061  0.29668127  0.30434554  1  0  0.046284  0  3.796962  0  0  0.058992  0  4.056607  0  0  0.060912  0  4.079391  0  0  -0.015163  0.057464  0  4.041192  0
C  C22  1  0.44133199  0.62794229  0.77196115  1  0  0.050104  0  3.792101  0  0  0.061086  0  4.052596  0  0  0.064642  0  4.075512  0  0  -0.017082  0.058538  0  4.037057  0
C  C23  1  0.55866066  0.37206202  0.22804620  1  0  0.050253  0  3.792119  0  0  0.061205  0  4.05263  0  0  0.064753  0  4.075558  0  0  -0.01706  0.058672  0  4.037068  0
C  C24  1  0.45083451  0.46409774  0.70893952  1  0  -0.189231  0  3.687847  0  0  -0.213014  0  3.938959  0  0  -0.216927  0  3.956251  0  0  -0.101755  -0.210383  0  3.927419  0
C  C25  1  0.54915183  0.53590421  0.29106667  1  0  -0.189258  0  3.687726  0  0  -0.213016  0  3.938889  0  0  -0.216928  0  3.956175  0  0  -0.10176  -0.210391  0  3.927344  0
C  C26  1  0.34924422  0.37165320  0.57103943  1  0  0.184637  0  3.827236  0  0  0.182957  0  4.077739  0  0  0.18777  0  4.097676  0  0  0.101683  0.179724  0  4.064276  0
C  C27  1  0.65074554  0.62835482  0.42896982  1  0  0.184725  0  3.827202  0  0  0.183055  0  4.077665  0  0  0.187875  0  4.09759  0  0  0.101749  0.179819  0  4.064204  0
C  C28  1  0.23751129  0.44695530  0.49742759  1  0  0.168485  0  3.821489  0  0  0.168004  0  4.075033  0  0  0.171477  0  4.095188  0  0  0.101511  0.165551  0  4.061435  0
C  C29  1  0.76248826  0.55304762  0.50257103  1  0  0.168505  0  3.821315  0  0  0.168065  0  4.074793  0  0  0.171536  0  4.094949  0  0  0.101542  0.165609  0  4.061197  0
C  C30  1  0.23154767  0.61357332  0.56098177  1  0  -0.157574  0  3.678235  0  0  -0.184459  0  3.93161  0  0  -0.186299  0  3.94729  0  0  -0.093518  -0.18314  0  3.921122  0
C  C31  1  0.76845455  0.38642472  0.43901905  1  0  -0.157528  0  3.677918  0  0  -0.184412  0  3.931297  0  0  -0.186252  0  3.946979  0  0  -0.093541  -0.183091  0  3.920808  0
C  C32  1  0.77769728  0.22165298  0.81106172  1  0  0.385047  0  3.869347  0  0  0.313033  0  4.162649  0  0  0.341045  0  4.160389  0  0  0.156825  0.294373  0  4.163695  0
C  C33  1  0.22231680  0.77833137  0.18892181  1  0  0.385107  0  3.869507  0  0  0.313056  0  4.162803  0  0  0.341012  0  4.160509  0  0  0.15679  0.294392  0  4.163858  0
C  C34  1  0.99807519  0.29493764  0.02294616  1  0  -0.173795  0  3.6845  0  0  -0.277447  0  3.941022  0  0  -0.27344  0  3.9511  0  0  -0.141075  -0.279851  0  3.934042  0
C  C35  1  0.00191008  0.70505822  0.97705716  1  0  -0.17368  0  3.684581  0  0  -0.277313  0  3.941098  0  0  -0.27331  0  3.951165  0  0  -0.141044  -0.279693  0  3.934143  0
C  C36  1  0.05255498  0.23658254  0.74712749  1  0  -0.170489  0  3.656553  0  0  -0.271032  0  3.901722  0  0  -0.267759  0  3.912805  0  0  -0.14148  -0.272893  0  3.894186  0
C  C37  1  0.94746928  0.76342020  0.25288417  1  0  -0.170324  0  3.656461  0  0  -0.270998  0  3.901891  0  0  -0.267744  0  3.91292  0  0  -0.141496  -0.27287  0  3.894347  0
S  S38  1  0.32560747  0.91194149  0.76781263  1  0  -0.234558  0  2.312476  0  0  -0.230669  0  2.704302  0  0  -0.240512  0  2.699253  0  0  -0.151569  -0.223382  0  2.707545  0
S  S39  1  0.67439488  0.08806381  0.23218465  1  0  -0.234454  0  2.312644  0  0  -0.230544  0  2.704442  0  0  -0.240392  0  2.699405  0  0  -0.151557  -0.223262  0  2.70769  0
S  S40  1  0.56289216  0.73886696  0.94797482  1  0  -0.200527  0  2.300124  0  0  -0.195511  0  2.68398  0  0  -0.208451  0  2.682786  0  0  -0.14524  -0.18604  0  2.684464  0
S  S41  1  0.43710472  0.26114085  0.05202383  1  0  -0.200608  0  2.300106  0  0  -0.195569  0  2.683961  0  0  -0.2085  0  2.682754  0  0  -0.145257  -0.186104  0  2.68444  0
S  S42  1  0.19701479  0.16577623  0.34883613  1  0  0.433283  0  3.040989  0  0  0.42034  0  3.433019  0  0  0.432753  0  3.435601  0  0  0.374552  0.410914  0  3.431898  0
S  S43  1  0.80298614  0.83422792  0.65116517  1  0  0.433319  0  3.041087  0  0  0.420374  0  3.433129  0  0  0.432784  0  3.435714  0  0  0.374561  0.41095  0  3.432003  0
N  N44  1  0.14440585  0.34125656  0.36955130  1  0  -0.388483  0  2.886789  0  0  -0.355299  0  3.171128  0  0  -0.363408  0  3.182079  0  0  -0.309206  -0.349571  0  3.16385  0
N  N45  1  0.85559253  0.65874638  0.63044834  1  0  -0.388441  0  2.886802  0  0  -0.355284  0  3.17115  0  0  -0.36339  0  3.182096  0  0  -0.309156  -0.349555  0  3.163871  0
N  N46  1  0.33761422  0.21028200  0.49624495  1  0  -0.475248  0  2.946141  0  0  -0.434168  0  3.235116  0  0  -0.442607  0  3.243432  0  0  -0.389115  -0.428423  0  3.229851  0
N  N47  1  0.66238176  0.78972104  0.50376121  1  0  -0.47541  0  2.946392  0  0  -0.434345  0  3.235385  0  0  -0.442784  0  3.243697  0  0  -0.389251  -0.428599  0  3.230118  0
N  N48  1  0.93594491  0.25201003  0.85812889  1  0  -0.103679  0  3.522321  0  0  0.004706  0  3.746501  0  0  -0.016141  0  3.772545  0  0  -0.289775  0.018724  0  3.72833  0
N  N49  1  0.06406227  0.74798911  0.14186596  1  0  -0.10372  0  3.522242  0  0  0.00465  0  3.74656  0  0  -0.016199  0  3.772633  0  0  -0.289785  0.018668  0  3.728385  0
O  O50  1  0.71434667  0.17372420  0.67173487  1  0  -0.587223  0  2.029186  0  0  -0.540655  0  2.285706  0  0  -0.561758  0  2.277849  0  0  -0.379834  -0.52588  0  2.290512  0
O  O51  1  0.28567368  0.82626845  0.32823700  1  0  -0.587122  0  2.029764  0  0  -0.540557  0  2.286278  0  0  -0.56166  0  2.278455  0  0  -0.379712  -0.525782  0  2.291086  0
