# generated using pymatgen
data_NaH5C8(NO)4
_symmetry_space_group_name_H-M   'P 1'
_cell_length_a   3.63389009
_cell_length_b   10.10749440
_cell_length_c   14.64818858
_cell_angle_alpha   107.72912317
_cell_angle_beta   94.65556389
_cell_angle_gamma   91.49154046
_symmetry_Int_Tables_number   1
_chemical_formula_structural   NaH5C8(NO)4
_chemical_formula_sum   'Na2 H10 C16 N8 O8'
_cell_volume   510.04763643
_cell_formula_units_Z   2
loop_
 _symmetry_equiv_pos_site_id
 _symmetry_equiv_pos_as_xyz
  1  'x, y, z'
loop_
 _atom_site_type_symbol
 _atom_site_label
 _atom_site_symmetry_multiplicity
 _atom_site_fract_x
 _atom_site_fract_y
 _atom_site_fract_z
 _atom_site_occupancy
 _atom_site_hle17_bader_spin_density
 _atom_site_hle17_ddec_charge
 _atom_site_hle17_ddec_spin_density
 _atom_site_hle17_ddec_sum_bond_order
 _atom_site_hle17_magmom
 _atom_site_hse06_10hf_bader_spin_density
 _atom_site_hse06_10hf_ddec_charge
 _atom_site_hse06_10hf_ddec_spin_density
 _atom_site_hse06_10hf_ddec_sum_bond_order
 _atom_site_hse06_10hf_magmom
 _atom_site_hse06_bader_spin_density
 _atom_site_hse06_ddec_charge
 _atom_site_hse06_ddec_spin_density
 _atom_site_hse06_ddec_sum_bond_order
 _atom_site_hse06_magmom
 _atom_site_pbe_bader_spin_density
 _atom_site_pbe_cm5_charge
 _atom_site_pbe_ddec_charge
 _atom_site_pbe_ddec_spin_density
 _atom_site_pbe_ddec_sum_bond_order
 _atom_site_pbe_magmom
Na  Na0  1  0.49999868  0.99999848  0.99999835  1  0  0.89735  0  0.388386  0  0  0.850521  0  0.54948  0  0  0.860599  0  0.526946  0  0  0.673706  0.843089  0  0.56555  0
Na  Na1  1  0.50000385  0.99999944  0.49999864  1  0  0.904059  0  0.359424  0  0  0.85979  0  0.511621  0  0  0.869837  0  0.488553  0  0  0.635301  0.852323  0  0.528121  0
H  H2  1  0.11335877  0.60814320  0.48674969  1  0  0.337693  0  0.910696  0  0  0.313501  0  0.975257  0  0  0.32402  0  0.966581  0  0  0.31263  0.306138  0  0.981303  0
H  H3  1  0.88662822  0.39184355  0.51324926  1  0  0.337705  0  0.910594  0  0  0.313505  0  0.975161  0  0  0.324023  0  0.966486  0  0  0.312667  0.306136  0  0.98121  0
H  H4  1  0.99223426  0.88793932  0.11367035  1  0  0.418457  0  0.877469  0  0  0.390678  0  0.936667  0  0  0.399547  0  0.923509  0  0  0.298255  0.384596  0  0.945577  0
H  H5  1  0.00776282  0.11206104  0.88632558  1  0  0.418379  0  0.877577  0  0  0.390601  0  0.936777  0  0  0.399469  0  0.92362  0  0  0.298226  0.384521  0  0.945686  0
H  H6  1  0.04121641  0.77765932  0.01540288  1  0  0.415393  0  0.888436  0  0  0.383258  0  0.955112  0  0  0.393271  0  0.940333  0  0  0.289564  0.376171  0  0.965597  0
H  H7  1  0.95879687  0.22233786  0.98459677  1  0  0.415329  0  0.888518  0  0  0.383227  0  0.955138  0  0  0.393236  0  0.940358  0  0  0.289569  0.376141  0  0.965626  0
H  H8  1  0.05848355  0.01661987  0.66310788  1  0  0.420925  0  0.877231  0  0  0.392717  0  0.936938  0  0  0.402139  0  0.923023  0  0  0.297243  0.38612  0  0.946606  0
H  H9  1  0.94152127  0.98337628  0.33689002  1  0  0.420886  0  0.877271  0  0  0.392672  0  0.936991  0  0  0.402093  0  0.923076  0  0  0.297228  0.386071  0  0.946663  0
H  H10  1  0.98139978  0.85843893  0.60865491  1  0  0.427988  0  0.86393  0  0  0.398999  0  0.923575  0  0  0.409006  0  0.908622  0  0  0.297737  0.391996  0  0.934006  0
H  H11  1  0.01861079  0.14155935  0.39134014  1  0  0.427937  0  0.864001  0  0  0.398963  0  0.923621  0  0  0.408968  0  0.90867  0  0  0.297738  0.391956  0  0.934055  0
C  C12  1  0.21308892  0.42178146  0.37285981  1  0  0.570136  0  3.84561  0  0  0.509448  0  4.154242  0  0  0.539618  0  4.156547  0  0  0.236241  0.489087  0  4.152185  0
C  C13  1  0.78690909  0.57820531  0.62713798  1  0  0.570263  0  3.846039  0  0  0.509534  0  4.15462  0  0  0.539701  0  4.156921  0  0  0.236164  0.489175  0  4.152567  0
C  C14  1  0.37246763  0.40347541  0.28238247  1  0  -0.248599  0  3.899315  0  0  -0.234006  0  4.157303  0  0  -0.250528  0  4.178303  0  0  -0.043185  -0.223495  0  4.143121  0
C  C15  1  0.62754558  0.59652183  0.71761309  1  0  -0.248678  0  3.899575  0  0  -0.233987  0  4.157414  0  0  -0.250489  0  4.178409  0  0  -0.043165  -0.223488  0  4.143264  0
C  C16  1  0.46957911  0.53561454  0.27602788  1  0  -0.036461  0  3.801885  0  0  -0.049646  0  4.054296  0  0  -0.042211  0  4.07305  0  0  0.010179  -0.054027  0  4.042035  0
C  C17  1  0.53041646  0.46439294  0.72398117  1  0  -0.036354  0  3.8021  0  0  -0.04961  0  4.054517  0  0  -0.042199  0  4.073244  0  0  0.010151  -0.053985  0  4.042256  0
C  C18  1  0.37416238  0.64026861  0.36836895  1  0  0.572098  0  3.809634  0  0  0.527906  0  4.10112  0  0  0.555485  0  4.098757  0  0  0.259371  0.509097  0  4.102242  0
C  C19  1  0.62582925  0.35973168  0.63163097  1  0  0.571977  0  3.809715  0  0  0.527897  0  4.101038  0  0  0.555462  0  4.098708  0  0  0.2594  0.509083  0  4.102155  0
C  C20  1  0.63236438  0.57740266  0.20550908  1  0  -0.110188  0  3.924061  0  0  -0.090308  0  4.162311  0  0  -0.101672  0  4.183299  0  0  -0.006781  -0.083138  0  4.148103  0
C  C21  1  0.36762039  0.42260693  0.79449749  1  0  -0.110065  0  3.924445  0  0  -0.090292  0  4.162825  0  0  -0.101577  0  4.18368  0  0  -0.006718  -0.083134  0  4.148616  0
C  C22  1  0.72639516  0.71845540  0.21666826  1  0  0.316713  0  3.769362  0  0  0.287011  0  4.045619  0  0  0.299269  0  4.065844  0  0  0.20522  0.278823  0  4.032162  0
C  C23  1  0.27360480  0.28156466  0.78333608  1  0  0.316411  0  3.76927  0  0  0.286739  0  4.045591  0  0  0.298975  0  4.065792  0  0  0.205128  0.278558  0  4.032132  0
C  C24  1  0.73060656  0.47932118  0.12045369  1  0  0.296593  0  3.776668  0  0  0.273042  0  4.05263  0  0  0.283948  0  4.073388  0  0  0.195455  0.265762  0  4.038781  0
C  C25  1  0.26938405  0.52069047  0.87955481  1  0  0.29664  0  3.776894  0  0  0.273122  0  4.052854  0  0  0.284004  0  4.07357  0  0  0.195436  0.265847  0  4.039005  0
C  C26  1  0.43050108  0.27257754  0.21841538  1  0  0.329004  0  3.816071  0  0  0.305516  0  4.093381  0  0  0.318909  0  4.112231  0  0  0.186702  0.296762  0  4.080393  0
C  C27  1  0.56950995  0.72742385  0.78158104  1  0  0.329015  0  3.815984  0  0  0.305497  0  4.093245  0  0  0.31888  0  4.112101  0  0  0.186719  0.296745  0  4.080272  0
N  N28  1  0.21488295  0.56471483  0.42008805  1  0  -0.526555  0  3.259633  0  0  -0.472159  0  3.51531  0  0  -0.497485  0  3.517504  0  0  -0.402433  -0.454726  0  3.513293  0
N  N29  1  0.78511041  0.43527818  0.57991032  1  0  -0.526447  0  3.259961  0  0  -0.47204  0  3.515544  0  0  -0.49736  0  3.517746  0  0  -0.402399  -0.454603  0  3.513526  0
N  N30  1  0.81944080  0.39816436  0.05131448  1  0  -0.382255  0  2.634575  0  0  -0.350169  0  2.863734  0  0  -0.362675  0  2.876325  0  0  -0.273429  -0.341848  0  2.855529  0
N  N31  1  0.18059568  0.60184005  0.94869126  1  0  -0.382329  0  2.634925  0  0  -0.350202  0  2.864049  0  0  -0.362704  0  2.876637  0  0  -0.27345  -0.341884  0  2.855848  0
N  N32  1  0.82272504  0.83220557  0.22219839  1  0  -0.418748  0  2.675018  0  0  -0.380682  0  2.903484  0  0  -0.393934  0  2.912765  0  0  -0.280433  -0.371361  0  2.896419  0
N  N33  1  0.17725862  0.16779680  0.77780251  1  0  -0.418507  0  2.674507  0  0  -0.380448  0  2.902969  0  0  -0.393702  0  2.912264  0  0  -0.280321  -0.371126  0  2.895903  0
N  N34  1  0.48683629  0.16357652  0.16607035  1  0  -0.426668  0  2.565329  0  0  -0.39492  0  2.789012  0  0  -0.406179  0  2.799475  0  0  -0.337187  -0.386958  0  2.781105  0
N  N35  1  0.51316380  0.83642595  0.83392337  1  0  -0.426607  0  2.56522  0  0  -0.394868  0  2.788918  0  0  -0.40613  0  2.79939  0  0  -0.337166  -0.386911  0  2.781018  0
O  O36  1  0.43218609  0.76687613  0.39351129  1  0  -0.508085  0  1.932735  0  0  -0.462492  0  2.146566  0  0  -0.479344  0  2.140131  0  0  -0.288376  -0.450962  0  2.1509  0
O  O37  1  0.56778563  0.23311886  0.60649529  1  0  -0.508156  0  1.932662  0  0  -0.462588  0  2.146401  0  0  -0.479435  0  2.139974  0  0  -0.288411  -0.451056  0  2.150731  0
O  O38  1  0.09370621  0.33267677  0.40773476  1  0  -0.535196  0  2.005091  0  0  -0.472442  0  2.217642  0  0  -0.494731  0  2.211052  0  0  -0.261913  -0.457304  0  2.221859  0
O  O39  1  0.90628407  0.66731419  0.59226175  1  0  -0.535412  0  2.005145  0  0  -0.472614  0  2.21766  0  0  -0.494907  0  2.211072  0  0  -0.261952  -0.457485  0  2.221887  0
O  O40  1  0.00820613  0.87757803  0.04542093  1  0  -0.905916  0  1.799576  0  0  -0.863616  0  1.966967  0  0  -0.879674  0  1.936091  0  0  -0.682742  -0.852335  0  1.988619  0
O  O41  1  0.99178485  0.12241815  0.95457467  1  0  -0.905763  0  1.799776  0  0  -0.863475  0  1.967125  0  0  -0.879525  0  1.936271  0  0  -0.6827  -0.852197  0  1.988761  0
O  O42  1  0.01835822  0.94904451  0.59807162  1  0  -0.907007  0  1.753267  0  0  -0.866818  0  1.912933  0  0  -0.882026  0  1.880273  0  0  -0.666633  -0.856114  0  1.935604  0
O  O43  1  0.98166343  0.05095375  0.40192569  1  0  -0.906954  0  1.753359  0  0  -0.866762  0  1.913014  0  0  -0.88197  0  1.880357  0  0  -0.666636  -0.85606  0  1.935691  0
