# generated using pymatgen
data_Gd2CuH18C14S2(NO11)2
_symmetry_space_group_name_H-M   'P 1'
_cell_length_a   6.42948494
_cell_length_b   9.81010216
_cell_length_c   9.72968027
_cell_angle_alpha   96.29998311
_cell_angle_beta   91.19862245
_cell_angle_gamma   96.53232941
_symmetry_Int_Tables_number   1
_chemical_formula_structural   Gd2CuH18C14S2(NO11)2
_chemical_formula_sum   'Gd2 Cu1 H18 C14 S2 N2 O22'
_cell_volume   605.67595106
_cell_formula_units_Z   1
loop_
 _symmetry_equiv_pos_site_id
 _symmetry_equiv_pos_as_xyz
  1  'x, y, z'
loop_
 _atom_site_type_symbol
 _atom_site_label
 _atom_site_symmetry_multiplicity
 _atom_site_fract_x
 _atom_site_fract_y
 _atom_site_fract_z
 _atom_site_occupancy
 _atom_site_hle17_ddec_charge
 _atom_site_hle17_ddec_spin_density
 _atom_site_hle17_ddec_sum_bond_order
 _atom_site_hle17_magmom
 _atom_site_hse06_10hf_ddec_charge
 _atom_site_hse06_10hf_ddec_spin_density
 _atom_site_hse06_10hf_ddec_sum_bond_order
 _atom_site_hse06_10hf_magmom
 _atom_site_hse06_ddec_charge
 _atom_site_hse06_ddec_spin_density
 _atom_site_hse06_ddec_sum_bond_order
 _atom_site_hse06_magmom
 _atom_site_pbe_cm5_charge
 _atom_site_pbe_ddec_charge
 _atom_site_pbe_ddec_spin_density
 _atom_site_pbe_ddec_sum_bond_order
 _atom_site_pbe_magmom
Gd  Gd0  1  0.42929884  0.53577613  0.25505480  1  2.240305  9.8e-05  1.733906  0.0  2.160478  5.7e-05  2.079591  0.0  2.206988  7e-06  2.03063  0.0  1.47439  2.119821  0.00014  2.12675  0.0
Gd  Gd1  1  0.57068870  0.46422765  0.74494841  1  2.240316  9.7e-05  1.733921  0.0  2.160612  5.7e-05  2.079397  0.0  2.20703  8e-06  2.03058  0.0  1.47443  2.119957  0.00014  2.126581  0.0
Cu  Cu2  1  0.99999743  0.99999833  0.99999787  1  0.954199  0.730684  1.719856  0.555  0.935257  0.808466  2.095575  0.669  1.0088  0.866394  2.046786  0.747  0.762701  0.882942  0.765904  2.138462  0.616
H  H3  1  0.22047811  0.83716448  0.85559679  1  0.451333  -0.000664  0.778907  -0.001  0.4329  0.000158  0.835072  0.0  0.442559  6e-06  0.824849  0.0  0.333796  0.425896  0.00034  0.842458  0.0
H  H4  1  0.77958370  0.16287802  0.14441284  1  0.451467  -0.000663  0.778612  -0.001  0.433059  0.000158  0.834716  0.0  0.442715  5e-06  0.824505  0.0  0.33386  0.426062  0.00034  0.842091  0.0
H  H5  1  0.22259890  0.78942351  0.00641767  1  0.437952  -0.000253  0.862896  0.0  0.410049  0.000305  0.921903  0.001  0.421278  0.000152  0.905872  0.0  0.303356  0.401989  0.000435  0.933387  0.001
H  H6  1  0.77740801  0.21058806  0.99357773  1  0.437978  -0.000253  0.862889  0.0  0.410076  0.000305  0.921881  0.001  0.421307  0.000152  0.905848  0.0  0.303342  0.402019  0.000435  0.93336  0.001
H  H7  1  0.87824850  0.53503448  0.36361562  1  0.440493  -5e-06  0.829207  0.0  0.414599  -1e-06  0.894923  0.0  0.424012  -1e-06  0.88452  0.0  0.316694  0.407815  2e-06  0.902291  0.0
H  H8  1  0.12173731  0.46496938  0.63639165  1  0.440554  -6e-06  0.829153  0.0  0.414656  -1e-06  0.894887  0.0  0.424067  -1e-06  0.884455  0.0  0.316667  0.407875  2e-06  0.902254  0.0
H  H9  1  0.78076108  0.37631588  0.35356887  1  0.430765  3.5e-05  0.876602  0.0  0.395538  3.4e-05  0.94676  0.0  0.408179  2e-05  0.928636  0.0  0.296615  0.386575  6.9e-05  0.959588  0.0
H  H10  1  0.21924001  0.62368657  0.64643776  1  0.430776  3.5e-05  0.876594  0.0  0.395546  3.3e-05  0.946759  0.0  0.408189  2e-05  0.928633  0.0  0.296582  0.386582  6.9e-05  0.959587  0.0
H  H11  1  0.95973819  0.45703120  0.17983036  1  0.456173  5.1e-05  0.831171  0.0  0.42856  7.5e-05  0.887927  0.0  0.439755  5.4e-05  0.871581  0.0  0.309217  0.420472  0.000104  0.89974  0.0
H  H12  1  0.04026433  0.54297959  0.82018744  1  0.456104  5.1e-05  0.83127  0.0  0.428572  7.5e-05  0.887913  0.0  0.439766  5.4e-05  0.871569  0.0  0.309191  0.420481  0.000104  0.899731  0.0
H  H13  1  0.09166578  0.41855073  0.04309870  1  0.450146  3e-06  0.826145  0.0  0.423775  1e-05  0.888234  0.0  0.433009  4e-06  0.874534  0.0  0.315728  0.416995  1.7e-05  0.898329  0.0
H  H14  1  0.90832032  0.58136832  0.95694029  1  0.45042  3e-06  0.825923  0.0  0.424022  1e-05  0.887937  0.0  0.433263  4e-06  0.874223  0.0  0.3158  0.417235  1.7e-05  0.898039  0.0
H  H15  1  0.18149796  0.20929073  0.20844886  1  0.098406  0.001271  0.975773  0.003  0.098529  0.000839  1.050117  0.002  0.101211  0.000556  1.045625  0.001  0.12857  0.096453  0.001088  1.053363  0.002
H  H16  1  0.81853626  0.79069522  0.79153365  1  0.098271  0.001272  0.975787  0.003  0.098525  0.000839  1.050035  0.002  0.101215  0.000556  1.045523  0.001  0.128493  0.09645  0.001088  1.053278  0.002
H  H17  1  0.31461027  0.01903119  0.57307602  1  0.122484  0.000407  0.923733  0.001  0.130121  6.3e-05  0.986509  0.0  0.133722  -1.5e-05  0.982967  0.0  0.119128  0.127204  0.000128  0.98967  0.0
H  H18  1  0.68539614  0.98097211  0.42692163  1  0.122512  0.00041  0.92361  0.001  0.130029  6.3e-05  0.986514  0.0  0.133628  -1.5e-05  0.982976  0.0  0.119085  0.127112  0.000128  0.989673  0.0
H  H19  1  0.01790692  0.78606512  0.20557740  1  0.11364  0.001183  0.922085  0.002  0.118394  0.000829  0.985841  0.002  0.120695  0.000576  0.98272  0.001  0.134245  0.116554  0.001031  0.988056  0.002
H  H20  1  0.98207023  0.21393992  0.79442145  1  0.113648  0.001185  0.92218  0.002  0.118479  0.000829  0.98588  0.002  0.1208  0.000575  0.982746  0.001  0.134244  0.116635  0.001031  0.988089  0.002
C  C21  1  0.18006514  0.11899556  0.26374468  1  0.165771  -0.012722  3.615448  -0.008  0.124981  -0.00299  3.868704  -0.002  0.139805  -0.004737  3.882925  -0.003  0.068911  0.11569  -0.001716  3.858575  -0.001
C  C22  1  0.81994644  0.88099620  0.73625098  1  0.16598  -0.012765  3.615119  -0.008  0.125069  -0.002993  3.868376  -0.002  0.139893  -0.004745  3.882599  -0.003  0.069038  0.115783  -0.001716  3.858238  -0.001
C  C23  1  0.25942067  0.13137682  0.39943927  1  -0.117415  0.01033  3.714582  0.012  -0.092209  0.00368  3.949172  0.005  -0.108034  0.003114  3.972094  0.004  -0.007094  -0.082622  0.004223  3.934622  0.005
C  C24  1  0.74058636  0.86861504  0.60055418  1  -0.11749  0.010364  3.714209  0.012  -0.092219  0.003683  3.948831  0.005  -0.108043  0.00312  3.971755  0.004  -0.00712  -0.08263  0.004224  3.934263  0.005
C  C25  1  0.25598734  0.01270823  0.46643477  1  0.002543  -0.013757  3.654517  -0.009  -0.040056  -0.004547  3.906796  -0.003  -0.030361  -0.004934  3.921929  -0.003  -0.046575  -0.04663  -0.004374  3.897725  -0.002
C  C26  1  0.74401574  0.98729519  0.53356792  1  0.002517  -0.013806  3.65437  -0.009  -0.039943  -0.004549  3.906605  -0.003  -0.030253  -0.004949  3.921745  -0.003  -0.046561  -0.046517  -0.004376  3.89753  -0.002
C  C27  1  0.17449032  0.88566071  0.39573554  1  -0.118958  0.010545  3.711651  0.012  -0.096068  0.003803  3.956107  0.005  -0.111353  0.003221  3.979142  0.004  -0.006563  -0.086826  0.004358  3.941452  0.005
C  C28  1  0.82549980  0.11434095  0.60426857  1  -0.11892  0.010571  3.711254  0.012  -0.096071  0.003802  3.955716  0.005  -0.111358  0.003232  3.978761  0.004  -0.006513  -0.086834  0.004359  3.941067  0.005
C  C29  1  0.09210136  0.88229729  0.26116044  1  0.173632  -0.01109  3.580361  -0.007  0.133593  -0.0019  3.837608  -0.001  0.148435  -0.003586  3.85139  -0.002  0.076199  0.124449  -0.00052  3.827926  0.0
C  C30  1  0.90789540  0.11770008  0.73884657  1  0.173594  -0.011128  3.580477  -0.007  0.133497  -0.001901  3.837695  -0.001  0.148319  -0.0036  3.851505  -0.002  0.076196  0.12437  -0.000521  3.828008  0.0
C  C31  1  0.34098667  0.27097866  0.47030640  1  0.733384  0.000414  3.859328  0.0  0.684259  0.000367  4.154173  0.0  0.720693  0.000238  4.143438  0.0  0.238187  0.659499  0.000505  4.160441  0.001
C  C32  1  0.65900891  0.72901033  0.52968432  1  0.733788  0.000411  3.85829  0.0  0.68448  0.000368  4.153424  0.0  0.720911  0.000237  4.142691  0.0  0.238391  0.659717  0.000505  4.159684  0.001
C  C33  1  0.17915995  0.75521612  0.46302009  1  0.682867  0.000637  3.897481  0.0  0.626977  0.000525  4.202516  0.001  0.661322  0.000354  4.195379  0.0  0.224087  0.603814  0.0007  4.206165  0.001
C  C34  1  0.82083471  0.24479786  0.53698232  1  0.683063  0.000636  3.897345  0.0  0.627213  0.000526  4.202343  0.001  0.661559  0.000351  4.195197  0.0  0.224124  0.604051  0.0007  4.206004  0.001
S  S35  1  0.57899031  0.72633977  0.03605956  1  1.570432  -0.0003  5.87629  0.0  1.461132  -5.6e-05  6.41204  0.0  1.516689  -9.6e-05  6.375129  0.0  0.553841  1.422634  -6.9e-05  6.434778  0.0
S  S36  1  0.42099843  0.27365461  0.96393762  1  1.570027  -0.000307  5.876967  0.0  1.46077  -6e-05  6.412715  0.0  1.516328  -0.000103  6.375804  0.0  0.553719  1.422278  -6.9e-05  6.435463  0.0
N  N37  1  0.09716070  0.99732416  0.19665746  1  -0.304335  0.084593  3.286459  0.11  -0.260659  0.051218  3.58724  0.071  -0.293827  0.040274  3.607554  0.06  -0.344535  -0.238917  0.058126  3.573307  0.077
N  N38  1  0.90283878  0.00267106  0.80334738  1  -0.304399  0.084624  3.286466  0.11  -0.260759  0.051226  3.587375  0.071  -0.293931  0.040284  3.607701  0.06  -0.344606  -0.239027  0.058135  3.57345  0.077
O  O39  1  0.34293667  0.37448804  0.40243081  1  -0.748875  0.000425  2.078426  0.001  -0.713862  8.4e-05  2.351354  0.0  -0.738123  9.3e-05  2.336102  0.0  -0.408936  -0.696232  0.000104  2.363115  0.0
O  O40  1  0.65705811  0.62549680  0.59755638  1  -0.749052  0.000427  2.078229  0.001  -0.714022  8.3e-05  2.351305  0.0  -0.738268  9.4e-05  2.336063  0.0  -0.409061  -0.696391  0.000104  2.36306  0.0
O  O41  1  0.40059784  0.27770469  0.59643707  1  -0.715258  0.001696  2.031994  0.002  -0.676186  0.000545  2.284578  0.001  -0.702744  0.000329  2.275352  0.0  -0.384912  -0.656487  0.000765  2.290513  0.001
O  O42  1  0.59941969  0.72229616  0.40354427  1  -0.715462  0.001697  2.031466  0.002  -0.676327  0.000545  2.28419  0.001  -0.7029  0.000331  2.274962  0.0  -0.385044  -0.656634  0.000765  2.290124  0.001
O  O43  1  0.15742566  0.64035716  0.38386727  1  -0.73833  0.000525  2.014772  0.001  -0.687365  8.4e-05  2.263043  0.0  -0.712653  6.2e-05  2.251674  0.0  -0.384451  -0.66858  0.000143  2.271921  0.0
O  O44  1  0.84257209  0.35964648  0.61614965  1  -0.73844  0.000527  2.014952  0.001  -0.687481  8.5e-05  2.263171  0.0  -0.712758  6.1e-05  2.251795  0.0  -0.384417  -0.668686  0.000143  2.272054  0.0
O  O45  1  0.20701977  0.76678112  0.59285351  1  -0.597193  0.002419  1.95562  0.003  -0.540539  0.000671  2.171024  0.001  -0.56648  0.000398  2.163486  0.001  -0.295597  -0.521906  0.001112  2.175545  0.002
O  O46  1  0.79298028  0.23321614  0.40714949  1  -0.597273  0.002421  1.955753  0.003  -0.540631  0.000672  2.171115  0.001  -0.56657  0.000401  2.163576  0.001  -0.295621  -0.521994  0.001113  2.175641  0.002
O  O47  1  0.68366328  0.86721996  0.05176184  1  -0.698285  -0.000783  1.974891  0.001  -0.664248  -0.000979  2.239572  0.001  -0.685182  -0.001345  2.218665  0.0  -0.351703  -0.648666  -0.000462  2.253773  0.001
O  O48  1  0.31637256  0.13276188  0.94823163  1  -0.698184  -0.000788  1.97507  0.001  -0.664103  -0.000982  2.239652  0.001  -0.685039  -0.00133  2.218755  0.0  -0.351625  -0.648527  -0.000463  2.253862  0.001
O  O49  1  0.70011117  0.62738265  0.10283055  1  -0.797169  0.000126  1.981373  0.0  -0.749379  3.6e-05  2.241885  0.0  -0.770824  0.0  2.224283  0.0  -0.396811  -0.733263  7.4e-05  2.253029  0.0
O  O50  1  0.29984571  0.37258756  0.89716004  1  -0.796954  0.00013  1.981538  0.0  -0.749231  3.5e-05  2.242067  0.0  -0.770671  -7e-06  2.224479  0.0  -0.39671  -0.733112  7.4e-05  2.253205  0.0
O  O51  1  0.37308136  0.71880546  0.10967030  1  -0.809845  0.000935  2.024391  0.001  -0.756047  0.000517  2.274429  0.001  -0.778086  0.000203  2.256964  0.0  -0.403948  -0.739461  0.000989  2.286502  0.001
O  O52  1  0.62691651  0.28121678  0.89033818  1  -0.809747  0.000944  2.024344  0.002  -0.755969  0.000523  2.274396  0.001  -0.777987  0.000195  2.256911  0.0  -0.403979  -0.739382  0.000989  2.286486  0.001
O  O53  1  0.53333099  0.67415372  0.88749991  1  -0.807341  0.000646  2.042329  0.001  -0.759523  0.000535  2.308802  0.001  -0.781548  0.000343  2.291713  0.0  -0.421776  -0.742998  0.000771  2.320072  0.001
O  O54  1  0.46662992  0.32584859  0.11249914  1  -0.807303  0.000639  2.042625  0.001  -0.759514  0.000531  2.309114  0.0  -0.781556  0.000348  2.292026  0.0  -0.421835  -0.74298  0.00077  2.320366  0.001
O  O55  1  0.13375964  0.82678173  0.93595558  1  -0.788531  0.057387  1.935559  0.08  -0.757809  0.041491  2.157907  0.062  -0.787055  0.031344  2.128182  0.051  -0.559779  -0.737049  0.048386  2.179051  0.069
O  O56  1  0.86627348  0.17324057  0.06403357  1  -0.788728  0.05736  1.935197  0.08  -0.758042  0.041478  2.157552  0.062  -0.78728  0.031335  2.127817  0.051  -0.559829  -0.737292  0.048369  2.178706  0.069
O  O57  1  0.77590432  0.46631625  0.30981320  1  -0.890007  0.000321  1.924703  0.0  -0.841363  0.000166  2.125468  0.0  -0.862478  9.1e-05  2.09575  0.0  -0.610434  -0.825353  0.000303  2.146045  0.0
O  O58  1  0.22409287  0.53368212  0.69018981  1  -0.890079  0.000322  1.924626  0.0  -0.841482  0.000166  2.12539  0.0  -0.862583  9.1e-05  2.095651  0.0  -0.610408  -0.825465  0.000303  2.14597  0.0
O  O59  1  0.09835907  0.46814826  0.13619842  1  -0.915933  0.000217  1.897179  0.0  -0.876215  0.000156  2.098699  0.0  -0.893999  8.9e-05  2.065094  0.0  -0.651141  -0.862346  0.000282  2.122991  0.0
O  O60  1  0.90161580  0.53189610  0.86378163  1  -0.916035  0.000216  1.897059  0.0  -0.876424  0.000155  2.098381  0.0  -0.894194  8.9e-05  2.064767  0.0  -0.65124  -0.862602  0.000281  2.122786  0.0
