# generated using pymatgen
data_ZnH20C20S2(NO2)2
_symmetry_space_group_name_H-M   'P 1'
_cell_length_a   11.36542712
_cell_length_b   14.82084421
_cell_length_c   14.82084009
_cell_angle_alpha   89.97847168
_cell_angle_beta   89.99996562
_cell_angle_gamma   89.99998835
_symmetry_Int_Tables_number   1
_chemical_formula_structural   ZnH20C20S2(NO2)2
_chemical_formula_sum   'Zn4 H80 C80 S8 N8 O16'
_cell_volume   2496.49956238
_cell_formula_units_Z   4
loop_
 _symmetry_equiv_pos_site_id
 _symmetry_equiv_pos_as_xyz
  1  'x, y, z'
loop_
 _atom_site_type_symbol
 _atom_site_label
 _atom_site_symmetry_multiplicity
 _atom_site_fract_x
 _atom_site_fract_y
 _atom_site_fract_z
 _atom_site_occupancy
 _atom_site_pbe_bader_charge
 _atom_site_pbe_bader_spin_density
 _atom_site_pbe_cm5_charge
 _atom_site_pbe_ddec_charge
 _atom_site_pbe_ddec_spin_density
 _atom_site_pbe_ddec_sum_bond_order
 _atom_site_pbe_magmom
Zn  Zn0  1  0.24999992  0.11098790  0.88901238  1  1.336244  0  0.678812  0.801375  0  2.42442  0
Zn  Zn1  1  0.74999981  0.88901213  0.11098778  1  1.336245  0  0.67881  0.801361  0  2.424425  0
Zn  Zn2  1  0.50000025  0.61119445  0.61119455  1  1.335914  0  0.678579  0.801089  0  2.424024  0
Zn  Zn3  1  0.99999917  0.38880554  0.38880550  1  1.335917  0  0.678588  0.801099  0  2.424013  0
H  H4  1  0.57393928  0.62817354  0.91127218  1  0.073245  0  0.095598  0.15261  0  0.985352  0
H  H5  1  0.07393818  0.37182720  0.08872739  1  0.07323  0  0.095604  0.152626  0  0.98531  0
H  H6  1  0.17594387  0.12833411  0.58901534  1  0.072835  0  0.09598  0.153145  0  0.984788  0
H  H7  1  0.67594353  0.87166527  0.41098417  1  0.072822  0  0.095973  0.153136  0  0.98478  0
H  H8  1  0.92606183  0.08872798  0.37182709  1  0.073456  0  0.095605  0.152624  0  0.985348  0
H  H9  1  0.42606105  0.91127202  0.62817299  1  0.073227  0  0.095603  0.152626  0  0.985291  0
H  H10  1  0.32405694  0.41098419  0.87166549  1  0.072822  0  0.095982  0.153149  0  0.984762  0
H  H11  1  0.82405601  0.58901583  0.12833464  1  0.072827  0  0.095983  0.153153  0  0.984778  0
H  H12  1  0.43508571  0.58988146  0.95478031  1  0.033588  0  0.08951  0.138997  0  1.018515  0
H  H13  1  0.93508577  0.41011855  0.04521976  1  0.033593  0  0.089521  0.139037  0  1.018477  0
H  H14  1  0.31479393  0.09003406  0.54550743  1  0.037799  0  0.089749  0.139531  0  1.017461  0
H  H15  1  0.81479266  0.90996597  0.45449203  1  0.037819  0  0.089749  0.139538  0  1.017459  0
H  H16  1  0.06491512  0.04521996  0.41011872  1  0.033681  0  0.089525  0.139039  0  1.018471  0
H  H17  1  0.56491462  0.95477943  0.58988152  1  0.033687  0  0.089521  0.139024  0  1.018491  0
H  H18  1  0.18520600  0.45449275  0.90996624  1  0.037807  0  0.089742  0.139521  0  1.017479  0
H  H19  1  0.68520687  0.54550730  0.09003462  1  0.037814  0  0.089739  0.139534  0  1.017462  0
H  H20  1  0.45672765  0.70568507  0.93419899  1  0.079828  0  0.091153  0.139765  0  1.01897  0
H  H21  1  0.95672685  0.29431561  0.06580108  1  0.079826  0  0.091164  0.139783  0  1.019  0
H  H22  1  0.29317835  0.20585221  0.56607965  1  0.082518  0  0.091165  0.139851  0  1.019648  0
H  H23  1  0.79317889  0.79414782  0.43392049  1  0.082513  0  0.091161  0.139856  0  1.019629  0
H  H24  1  0.04327322  0.06580128  0.29431508  1  0.079827  0  0.091154  0.139756  0  1.019002  0
H  H25  1  0.54327175  0.93419879  0.70568450  1  0.079834  0  0.091157  0.139779  0  1.018966  0
H  H26  1  0.20682160  0.43391986  0.79414670  1  0.082504  0  0.09116  0.139838  0  1.019631  0
H  H27  1  0.70682150  0.56608018  0.20585280  1  0.08251  0  0.09116  0.139842  0  1.019637  0
H  H28  1  0.10260554  0.69639895  0.71098067  1  0.057828  0  0.096018  0.148487  0  0.994414  0
H  H29  1  0.60260544  0.30360110  0.28901956  1  0.057593  0  0.096  0.148455  0  0.994423  0
H  H30  1  0.64713681  0.19676289  0.78909765  1  0.055628  0  0.095816  0.147936  0  0.995263  0
H  H31  1  0.14713814  0.80323716  0.21090188  1  0.056041  0  0.095831  0.147957  0  0.995307  0
H  H32  1  0.39739450  0.28902026  0.30360114  1  0.057835  0  0.096021  0.148489  0  0.994409  0
H  H33  1  0.89739486  0.71097975  0.69639895  1  0.057586  0  0.096017  0.148487  0  0.994403  0
H  H34  1  0.85286334  0.21090246  0.80323720  1  0.056288  0  0.095835  0.14795  0  0.995308  0
H  H35  1  0.35286293  0.78909823  0.19676291  1  0.055882  0  0.095825  0.147952  0  0.995256  0
H  H36  1  0.08240305  0.58219073  0.74053217  1  0.028299  0  0.089298  0.134831  0  1.027724  0
H  H37  1  0.58240207  0.41781000  0.25946807  1  0.028372  0  0.089304  0.134847  0  1.027676  0
H  H38  1  0.66764728  0.08262713  0.75974761  1  0.033373  0  0.08932  0.134629  0  1.028081  0
H  H39  1  0.16764681  0.91737292  0.24025259  1  0.033399  0  0.089325  0.134649  0  1.028045  0
H  H40  1  0.41759696  0.25946810  0.41781007  1  0.028167  0  0.089301  0.134835  0  1.027688  0
H  H41  1  0.91759739  0.74053191  0.58219001  1  0.02828  0  0.089314  0.134856  0  1.027665  0
H  H42  1  0.83235284  0.24025249  0.91737367  1  0.03337  0  0.08931  0.134608  0  1.028069  0
H  H43  1  0.33235341  0.75974820  0.08262713  1  0.033381  0  0.089333  0.134648  0  1.028075  0
H  H44  1  0.10742371  0.61208455  0.62499261  1  0.058806  0  0.091114  0.138471  0  1.033378  0
H  H45  1  0.60742264  0.38791550  0.37500762  1  0.058625  0  0.091136  0.138491  0  1.03329  0
H  H46  1  0.64255271  0.11251129  0.87521657  1  0.054779  0  0.091028  0.138151  0  1.033794  0
H  H47  1  0.14255321  0.88748943  0.12478432  1  0.054785  0  0.091002  0.138112  0  1.033851  0
H  H48  1  0.39257633  0.37500762  0.38791557  1  0.05879  0  0.091137  0.138487  0  1.033303  0
H  H49  1  0.89257766  0.62499172  0.61208453  1  0.058618  0  0.091124  0.138472  0  1.033323  0
H  H50  1  0.85744740  0.12478357  0.88748949  1  0.054942  0  0.090999  0.138089  0  1.033854  0
H  H51  1  0.35744791  0.87521644  0.11251129  1  0.054934  0  0.091009  0.138122  0  1.033897  0
H  H52  1  0.35044133  0.79376041  0.77233266  1  0.108702  0  0.1048  0.124339  0  1.025451  0
H  H53  1  0.85044131  0.20624029  0.22766813  1  0.108695  0  0.104813  0.124363  0  1.025446  0
H  H54  1  0.39977964  0.29391058  0.72787510  1  0.110324  0  0.104957  0.124432  0  1.02573  0
H  H55  1  0.89977857  0.70608943  0.27212432  1  0.110285  0  0.104972  0.124438  0  1.025697  0
H  H56  1  0.14955872  0.22766825  0.20623970  1  0.10869  0  0.104815  0.124361  0  1.025458  0
H  H57  1  0.64955899  0.77233248  0.79376050  1  0.108704  0  0.104813  0.124361  0  1.025456  0
H  H58  1  0.10022118  0.27212511  0.70608900  1  0.110299  0  0.104961  0.124433  0  1.025719  0
H  H59  1  0.60022008  0.72787494  0.29391055  1  0.110323  0  0.104953  0.124427  0  1.02574  0
H  H60  1  0.35250106  0.96082641  0.78339039  1  0.066601  0  0.112923  0.079391  0  1.038214  0
H  H61  1  0.85250109  0.03917360  0.21660972  1  0.066612  0  0.112943  0.079437  0  1.038204  0
H  H62  1  0.39771195  0.46099560  0.71676809  1  0.110301  0  0.113094  0.079075  0  1.038972  0
H  H63  1  0.89771091  0.53900374  0.28323133  1  0.110342  0  0.113115  0.079077  0  1.038936  0
H  H64  1  0.14749815  0.21660985  0.03917365  1  0.066607  0  0.112949  0.079428  0  1.038215  0
H  H65  1  0.64749829  0.78339020  0.96082656  1  0.066593  0  0.112933  0.079417  0  1.038213  0
H  H66  1  0.10228803  0.28323212  0.53900394  1  0.1103  0  0.113101  0.079083  0  1.038958  0
H  H67  1  0.60228769  0.71676726  0.46099562  1  0.110308  0  0.113101  0.079092  0  1.038953  0
H  H68  1  0.10150909  0.96080730  0.98578789  1  0.110621  0  0.117959  0.087565  0  1.006194  0
H  H69  1  0.60150928  0.03919276  0.01421234  1  0.110936  0  0.11797  0.087581  0  1.006175  0
H  H70  1  0.64830621  0.46098034  0.51411420  1  0.112508  0  0.118013  0.087621  0  1.005756  0
H  H71  1  0.14830477  0.53901903  0.48588668  1  0.112805  0  0.118013  0.087657  0  1.005661  0
H  H72  1  0.39849095  0.01421244  0.03919272  1  0.110632  0  0.117971  0.087585  0  1.006173  0
H  H73  1  0.89849015  0.98578824  0.96080737  1  0.111034  0  0.117969  0.087584  0  1.006188  0
H  H74  1  0.85169407  0.48588516  0.53902034  1  0.11283  0  0.118007  0.087631  0  1.005726  0
H  H75  1  0.35169353  0.51411418  0.46097977  1  0.1125  0  0.118013  0.087631  0  1.005746  0
H  H76  1  0.08779648  0.79371174  0.98478425  1  0.096975  0  0.112631  0.132818  0  0.977581  0
H  H77  1  0.58779574  0.20628764  0.01521598  1  0.096982  0  0.112609  0.132798  0  0.977599  0
H  H78  1  0.66207167  0.29390397  0.51514418  1  0.099303  0  0.112586  0.132742  0  0.977569  0
H  H79  1  0.16206930  0.70609540  0.48485737  1  0.099336  0  0.112599  0.132755  0  0.977529  0
H  H80  1  0.41220440  0.01521608  0.20628832  1  0.096971  0  0.112626  0.132811  0  0.977591  0
H  H81  1  0.91220461  0.98478393  0.79371176  1  0.09697  0  0.112622  0.132814  0  0.977591  0
H  H82  1  0.83792857  0.48485653  0.70609677  1  0.099301  0  0.112586  0.132733  0  0.977571  0
H  H83  1  0.33792904  0.51514416  0.29390402  1  0.099308  0  0.112592  0.132747  0  0.977569  0
C  C84  1  0.47844617  0.63788664  0.90903433  1  -0.11042  0  -0.252522  -0.496496  0  3.940543  0
C  C85  1  0.97844533  0.36211336  0.09096505  1  -0.110414  0  -0.25256  -0.496587  0  3.940543  0
C  C86  1  0.27145809  0.13803691  0.59122323  1  -0.118162  0  -0.2531  -0.497982  0  3.941095  0
C  C87  1  0.77145688  0.86196245  0.40877625  1  -0.118165  0  -0.253075  -0.497987  0  3.941067  0
C  C88  1  0.02155381  0.09096525  0.36211353  1  -0.110727  0  -0.252539  -0.49655  0  3.940533  0
C  C89  1  0.52155504  0.90903415  0.63788673  1  -0.110497  0  -0.252533  -0.496548  0  3.94049  0
C  C90  1  0.22854272  0.40877630  0.86196269  1  -0.118136  0  -0.253068  -0.497962  0  3.94106  0
C  C91  1  0.72854266  0.59122374  0.13803747  1  -0.118156  0  -0.253091  -0.498008  0  3.94102  0
C  C92  1  0.43706281  0.62608491  0.81262772  1  0.844213  0  0.126424  0.454931  0  4.018107  0
C  C93  1  0.93706277  0.37391509  0.18737168  1  0.844226  0  0.126457  0.454976  0  4.018114  0
C  C94  1  0.31291009  0.12614296  0.68758369  1  0.789891  0  0.126939  0.456724  0  4.01893  0
C  C95  1  0.81290982  0.87385706  0.31241577  1  0.789879  0  0.126947  0.456771  0  4.018948  0
C  C96  1  0.06293631  0.18737184  0.37391525  1  0.844239  0  0.126441  0.454999  0  4.018022  0
C  C97  1  0.56293670  0.81262755  0.62608499  1  0.844233  0  0.126439  0.454962  0  4.018021  0
C  C98  1  0.18708982  0.31241585  0.87385665  1  0.789997  0  0.126951  0.456804  0  4.018864  0
C  C99  1  0.68709062  0.68758486  0.12614286  1  0.790043  0  0.127005  0.45687  0  4.018781  0
C  C100  1  0.31373793  0.63110387  0.79288096  1  -0.180629  0  -0.081231  -0.333714  0  3.978584  0
C  C101  1  0.81373700  0.36889616  0.20711917  1  -0.180806  0  -0.081244  -0.333709  0  3.978586  0
C  C102  1  0.43620505  0.13124421  0.70735014  1  -0.125752  0  -0.081236  -0.334766  0  3.978459  0
C  C103  1  0.93620392  0.86875714  0.29264994  1  -0.125722  0  -0.081261  -0.334801  0  3.978516  0
C  C104  1  0.18626296  0.20711929  0.36889628  1  -0.180815  0  -0.081274  -0.333821  0  3.97862  0
C  C105  1  0.68626334  0.79288076  0.63110458  1  -0.180836  0  -0.081253  -0.333719  0  3.97855  0
C  C106  1  0.06379661  0.29265074  0.86875542  1  -0.125892  0  -0.081229  -0.334778  0  3.978433  0
C  C107  1  0.56379565  0.70735067  0.13124482  1  -0.125884  0  -0.081277  -0.334905  0  3.978476  0
C  C108  1  0.26238837  0.61817902  0.70567781  1  0.811559  0  0.12662  0.457986  0  4.010535  0
C  C109  1  0.76238737  0.38182101  0.29432166  1  0.811041  0  0.126563  0.457868  0  4.010683  0
C  C110  1  0.48756076  0.11828524  0.79457569  1  0.810553  0  0.126738  0.458899  0  4.009255  0
C  C111  1  0.98756146  0.88171476  0.20542369  1  0.810577  0  0.126745  0.458891  0  4.009248  0
C  C112  1  0.23761165  0.29432174  0.38182180  1  0.811099  0  0.126563  0.457916  0  4.010672  0
C  C113  1  0.73761207  0.70567830  0.61817837  1  0.811127  0  0.126583  0.457908  0  4.010612  0
C  C114  1  0.01243823  0.20542453  0.88171508  1  0.810573  0  0.126725  0.458845  0  4.00918  0
C  C115  1  0.51243902  0.79457554  0.11828519  1  0.810549  0  0.126711  0.45889  0  4.00924  0
C  C116  1  0.13083151  0.62730942  0.69490009  1  -0.0896  0  -0.25297  -0.491964  0  3.938938  0
C  C117  1  0.63082962  0.37269131  0.30510080  1  -0.089183  0  -0.252958  -0.491918  0  3.938785  0
C  C118  1  0.61908331  0.12766999  0.80531350  1  -0.089438  0  -0.252754  -0.491108  0  3.940407  0
C  C119  1  0.11908376  0.87233007  0.19468672  1  -0.089892  0  -0.252736  -0.491106  0  3.940448  0
C  C120  1  0.36916940  0.30510083  0.37269138  1  -0.089022  0  -0.25299  -0.491962  0  3.938791  0
C  C121  1  0.86916981  0.69489986  0.62730873  1  -0.089137  0  -0.252988  -0.491965  0  3.938792  0
C  C122  1  0.88091681  0.19468662  0.87233011  1  -0.089857  0  -0.252726  -0.491019  0  3.940464  0
C  C123  1  0.38091646  0.80531406  0.12766931  1  -0.089459  0  -0.252739  -0.491097  0  3.94049  0
C  C124  1  0.22087907  0.77863655  0.87951839  1  -0.163389  0  0.004921  0.094212  0  4.037635  0
C  C125  1  0.72087912  0.22136349  0.12048178  1  -0.163389  0  0.004919  0.094282  0  4.037584  0
C  C126  1  0.52908674  0.27878720  0.62054729  1  -0.162078  0  0.005043  0.094551  0  4.036257  0
C  C127  1  0.02908445  0.72121152  0.37945365  1  -0.162095  0  0.005056  0.094548  0  4.036224  0
C  C128  1  0.27912095  0.12048257  0.22136421  1  -0.163385  0  0.004946  0.094299  0  4.037557  0
C  C129  1  0.77912120  0.87951814  0.77863593  1  -0.163413  0  0.004924  0.094264  0  4.037639  0
C  C130  1  0.97091347  0.37945280  0.72121285  1  -0.162088  0  0.005041  0.094548  0  4.036277  0
C  C131  1  0.47091392  0.62054720  0.27878721  1  -0.162057  0  0.005094  0.094628  0  4.036152  0
C  C132  1  0.29461234  0.82780458  0.82143011  1  -0.014297  0  -0.097608  -0.1911  0  3.962295  0
C  C133  1  0.79461237  0.17219545  0.17856936  1  -0.014298  0  -0.097632  -0.191154  0  3.962371  0
C  C134  1  0.45552591  0.32797657  0.67872640  1  -0.012876  0  -0.098752  -0.192072  0  3.963628  0
C  C135  1  0.95552393  0.67202275  0.32127434  1  -0.012866  0  -0.098772  -0.192065  0  3.963616  0
C  C136  1  0.20538770  0.17857015  0.17219551  1  -0.014307  0  -0.097648  -0.191165  0  3.962361  0
C  C137  1  0.70538793  0.82143057  0.82780467  1  -0.014286  0  -0.097612  -0.191123  0  3.962356  0
C  C138  1  0.04447493  0.32127379  0.67202368  1  -0.012862  0  -0.098775  -0.1921  0  3.963649  0
C  C139  1  0.54447558  0.67872627  0.32797590  1  -0.012915  0  -0.098794  -0.192132  0  3.963674  0
C  C140  1  0.29555818  0.92111129  0.82712143  1  0.485335  0  0.043202  0.107098  0  3.960351  0
C  C141  1  0.79555823  0.07888942  0.17287871  1  0.485313  0  0.043154  0.10699  0  3.96044  0
C  C142  1  0.45462404  0.42127800  0.67304050  1  0.437274  0  0.043348  0.107647  0  3.962077  0
C  C143  1  0.95462384  0.57872200  0.32695889  1  0.437202  0  0.043335  0.107645  0  3.962061  0
C  C144  1  0.20444189  0.17287883  0.07888945  1  0.485329  0  0.043157  0.10701  0  3.960433  0
C  C145  1  0.70444116  0.82712121  0.92111140  1  0.485331  0  0.043168  0.107023  0  3.960376  0
C  C146  1  0.04537594  0.32695902  0.57872223  1  0.437271  0  0.043373  0.107699  0  3.962066  0
C  C147  1  0.54537564  0.67304105  0.42127735  1  0.437275  0  0.043386  0.107703  0  3.962065  0
C  C148  1  0.15595054  0.92117040  0.93989914  1  0.41156  0  0.04487  0.093289  0  3.973643  0
C  C149  1  0.65595068  0.07883032  0.06010107  1  0.411547  0  0.044869  0.093303  0  3.973665  0
C  C150  1  0.59398708  0.42132889  0.56009207  1  0.403633  0  0.044707  0.093692  0  3.973491  0
C  C151  1  0.09398654  0.57866981  0.43990749  1  0.403645  0  0.044732  0.093708  0  3.973332  0
C  C152  1  0.34404862  0.06010117  0.07883032  1  0.411564  0  0.044874  0.093286  0  3.973627  0
C  C153  1  0.84404963  0.93989817  0.92116980  1  0.411463  0  0.044882  0.093292  0  3.973658  0
C  C154  1  0.90601318  0.43990732  0.57867112  1  0.403652  0  0.044737  0.093728  0  3.973584  0
C  C155  1  0.40601266  0.56009202  0.42132964  1  0.403619  0  0.044697  0.093679  0  3.973452  0
C  C156  1  0.14873393  0.82768193  0.93918058  1  -0.03444  0  -0.093926  -0.189462  0  3.961275  0
C  C157  1  0.64873404  0.17231744  0.06081963  1  -0.034448  0  -0.093897  -0.189486  0  3.961274  0
C  C158  1  0.60117204  0.32783409  0.56079515  1  -0.032952  0  -0.093956  -0.190149  0  3.960599  0
C  C159  1  0.10117060  0.67216530  0.43920440  1  -0.032944  0  -0.093977  -0.190182  0  3.960519  0
C  C160  1  0.35126609  0.06081906  0.17231813  1  -0.034434  0  -0.093932  -0.189491  0  3.961243  0
C  C161  1  0.85126629  0.93918096  0.82768198  1  -0.034444  0  -0.09394  -0.189513  0  3.961318  0
C  C162  1  0.89882820  0.43920491  0.67216596  1  -0.032946  0  -0.093954  -0.190135  0  3.960596  0
C  C163  1  0.39882775  0.56079510  0.32783481  1  -0.032937  0  -0.093977  -0.190177  0  3.960562  0
S  S164  1  0.21746698  0.66033384  0.88167950  1  0.147914  0  0.023904  0.01675  0  2.869908  0
S  S165  1  0.71746525  0.33966620  0.11832068  1  0.148085  0  0.023917  0.016745  0  2.869892  0
S  S166  1  0.53242935  0.16049270  0.61847179  1  0.148785  0  0.024245  0.017381  0  2.868755  0
S  S167  1  0.03242879  0.83950601  0.38152780  1  0.14883  0  0.024269  0.017423  0  2.868713  0
S  S168  1  0.28253389  0.11832146  0.33966628  1  0.148098  0  0.02393  0.016788  0  2.869927  0
S  S169  1  0.78253335  0.88167924  0.66033386  1  0.148113  0  0.023917  0.016755  0  2.869948  0
S  S170  1  0.96757083  0.38152762  0.83950670  1  0.148802  0  0.024253  0.017396  0  2.868761  0
S  S171  1  0.46757049  0.61847238  0.16049268  1  0.148798  0  0.024226  0.017388  0  2.868695  0
N  N172  1  0.22880923  0.96804500  0.88558637  1  -1.187768  0  -0.332074  -0.251094  0  3.540877  0
N  N173  1  0.72880934  0.03195571  0.11441447  1  -1.187746  0  -0.332038  -0.251022  0  3.540871  0
N  N174  1  0.52129467  0.46821210  0.61448977  1  -1.18731  0  -0.331646  -0.250973  0  3.541021  0
N  N175  1  0.02129330  0.53178730  0.38551049  1  -1.187332  0  -0.331699  -0.25104  0  3.541014  0
N  N176  1  0.27119172  0.11441458  0.03195504  1  -1.187761  0  -0.332069  -0.251058  0  3.540864  0
N  N177  1  0.77119094  0.88558612  0.96804511  1  -1.187764  0  -0.332071  -0.251063  0  3.540879  0
N  N178  1  0.97870559  0.38551031  0.53178857  1  -1.187332  0  -0.331709  -0.251075  0  3.541166  0
N  N179  1  0.47870590  0.61448969  0.46821216  1  -1.187301  0  -0.331683  -0.251043  0  3.541046  0
O  O180  1  0.51656182  0.61294281  0.75407343  1  -1.153081  0  -0.299646  -0.471837  0  2.285325  0
O  O181  1  0.01656148  0.38705658  0.24592683  1  -1.153069  0  -0.299671  -0.471865  0  2.285379  0
O  O182  1  0.23349730  0.11286483  0.74616925  1  -1.149218  0  -0.300055  -0.4728  0  2.286187  0
O  O183  1  0.73349707  0.88713520  0.25383092  1  -1.149236  0  -0.300068  -0.472832  0  2.286194  0
O  O184  1  0.98343756  0.24592669  0.38705647  1  -1.15309  0  -0.299658  -0.471865  0  2.285324  0
O  O185  1  0.48343772  0.75407330  0.61294359  1  -1.153088  0  -0.299674  -0.471886  0  2.285307  0
O  O186  1  0.26650258  0.25383032  0.88713477  1  -1.149228  0  -0.300062  -0.472832  0  2.28615  0
O  O187  1  0.76650339  0.74616971  0.11286471  1  -1.149258  0  -0.300071  -0.472838  0  2.286202  0
O  O188  1  0.31920017  0.59861592  0.63441291  1  -1.149436  0  -0.300333  -0.476384  0  2.304408  0
O  O189  1  0.81919911  0.40138343  0.36558654  1  -1.149379  0  -0.300311  -0.476329  0  2.304425  0
O  O190  1  0.43085015  0.09848013  0.86583449  1  -1.150125  0  -0.300536  -0.476852  0  2.302666  0
O  O191  1  0.93085002  0.90151987  0.13416491  1  -1.150136  0  -0.300557  -0.476864  0  2.30266  0
O  O192  1  0.18079986  0.36558662  0.40138423  1  -1.149428  0  -0.300291  -0.47633  0  2.304501  0
O  O193  1  0.68080032  0.63441275  0.59861596  1  -1.149396  0  -0.300314  -0.476353  0  2.304478  0
O  O194  1  0.06914969  0.13416576  0.90152018  1  -1.15011  0  -0.300551  -0.476863  0  2.302603  0
O  O195  1  0.56914960  0.86583431  0.09848006  1  -1.150123  0  -0.30053  -0.476835  0  2.302654  0
