# generated using pymatgen
data_NiH16(C12N5)2
_symmetry_space_group_name_H-M   'P 1'
_cell_length_a   9.52776519
_cell_length_b   16.27632164
_cell_length_c   16.27776066
_cell_angle_alpha   116.31341339
_cell_angle_beta   101.24018237
_cell_angle_gamma   101.22805216
_symmetry_Int_Tables_number   1
_chemical_formula_structural   NiH16(C12N5)2
_chemical_formula_sum   'Ni3 H48 C72 N30'
_cell_volume   2102.83110093
_cell_formula_units_Z   3
loop_
 _symmetry_equiv_pos_site_id
 _symmetry_equiv_pos_as_xyz
  1  'x, y, z'
loop_
 _atom_site_type_symbol
 _atom_site_label
 _atom_site_symmetry_multiplicity
 _atom_site_fract_x
 _atom_site_fract_y
 _atom_site_fract_z
 _atom_site_occupancy
 _atom_site_pbe_bader_charge
 _atom_site_pbe_bader_spin_density
 _atom_site_pbe_cm5_charge
 _atom_site_pbe_ddec_charge
 _atom_site_pbe_ddec_spin_density
 _atom_site_pbe_ddec_sum_bond_order
 _atom_site_pbe_magmom
Ni  Ni0  1  0.49999890  0.00000008  0.50000002  1  1.089123  1.49906  0.685488  0.462635  1.738045  2.86846  1.484
Ni  Ni1  1  0.00000215  0.50000211  0.50000095  1  1.082808  1.499007  0.684814  0.459952  1.737883  2.871153  1.484
Ni  Ni2  1  0.49999890  0.50000003  0.99999852  1  1.082158  1.49945  0.684462  0.458707  1.73825  2.871267  1.485
H  H3  1  0.50711950  0.13941876  0.40956255  1  0.144952  0.001954  0.115944  0.083583  0.000684  1.038839  0.002
H  H4  1  0.66396531  0.18651793  0.31971582  1  0.081661  0.001184  0.102248  0.107979  0.000538  1.021595  0.001
H  H5  1  0.86175751  0.10733145  0.27818752  1  0.058285  -4.7e-05  0.108053  0.103253  -8.6e-05  0.982695  0.0
H  H6  1  0.89510135  0.98462621  0.32895521  1  0.095507  0.001126  0.112701  0.127045  0.000527  0.987804  0.001
H  H7  1  0.85932282  0.64606364  0.61100530  1  0.091164  0.002127  0.115685  0.085656  0.000794  1.027466  0.001
H  H8  1  0.75298068  0.76943882  0.59618156  1  0.09501  0.001219  0.105435  0.11026  0.000573  1.015656  0.001
H  H9  1  0.96396057  0.74446157  0.37849628  1  0.108893  0.001123  0.105684  0.117378  0.000503  1.030654  0.001
H  H10  1  0.05199439  0.61644434  0.39628844  1  0.122115  0.002126  0.116951  0.088872  0.000775  1.027509  0.001
H  H11  1  0.09750214  0.59053087  0.72989287  1  0.133066  0.001961  0.114856  0.082519  0.000684  1.040343  0.002
H  H12  1  0.34411725  0.68036698  0.86686203  1  0.06608  0.001197  0.10214  0.107105  0.000539  1.021636  0.001
H  H13  1  0.58335567  0.72181002  0.82915823  1  0.066067  -4.5e-05  0.107687  0.102338  -8.5e-05  0.982796  0.0
H  H14  1  0.56587283  0.67098506  0.65566875  1  0.090232  0.001128  0.112847  0.12775  0.000527  0.985961  0.001
H  H15  1  0.24790192  0.38878817  0.03486436  1  0.096659  0.002121  0.115203  0.084788  0.000793  1.028304  0.001
H  H16  1  0.15656519  0.40357903  0.17312236  1  0.091879  0.001218  0.106995  0.113375  0.000573  1.014592  0.001
H  H17  1  0.58489097  0.62141648  0.36584379  1  0.134144  0.001099  0.1059  0.118313  0.000502  1.029535  0.001
H  H18  1  0.65496797  0.60362278  0.22000362  1  0.122294  0.00213  0.116818  0.088461  0.000777  1.02694  0.001
H  H19  1  0.36815250  0.27007551  0.86061502  1  0.151659  0.001953  0.114598  0.082664  0.000685  1.0402  0.002
H  H20  1  0.47800030  0.13308982  0.81357195  1  0.078652  0.001169  0.101995  0.107748  0.000534  1.020576  0.001
H  H21  1  0.75488185  0.17081569  0.89276194  1  0.094124  -3.1e-05  0.10625  0.100954  -8.4e-05  0.982117  0.0
H  H22  1  0.91071188  0.34431558  0.01539186  1  0.067078  0.001138  0.112648  0.127247  0.000528  0.986643  0.001
H  H23  1  0.21321770  0.96512662  0.35385702  1  0.10502  0.002113  0.11469  0.085641  0.000792  1.027491  0.001
H  H24  1  0.98360717  0.82700292  0.23042821  1  0.090432  0.001218  0.106472  0.112515  0.000572  1.015203  0.001
H  H25  1  0.21889710  0.63402220  0.25554375  1  0.087935  0.001142  0.105792  0.117773  0.000501  1.030278  0.001
H  H26  1  0.43494945  0.77977629  0.38351468  1  0.111983  0.002131  0.117202  0.088018  0.000772  1.02706  0.001
H  H27  1  0.49288044  0.86057973  0.59043801  1  0.144868  0.001954  0.11595  0.08358  0.000684  1.038846  0.002
H  H28  1  0.33603355  0.81348056  0.68028461  1  0.081648  0.001184  0.10223  0.107963  0.000538  1.021577  0.001
H  H29  1  0.13823958  0.89266776  0.72181242  1  0.05826  -4.7e-05  0.108047  0.10325  -8.6e-05  0.982684  0.0
H  H30  1  0.10489895  0.01537300  0.67104448  1  0.095516  0.001126  0.112727  0.12708  0.000527  0.987784  0.001
H  H31  1  0.14067498  0.35393485  0.38899317  1  0.091151  0.002127  0.1157  0.085674  0.000793  1.027494  0.001
H  H32  1  0.24701569  0.23055894  0.40381642  1  0.095028  0.001218  0.105426  0.110239  0.000573  1.015688  0.001
H  H33  1  0.03604046  0.25553909  0.62150413  1  0.108929  0.001123  0.105688  0.117375  0.000503  1.030692  0.001
H  H34  1  0.94800700  0.38355704  0.60371172  1  0.122097  0.002126  0.11696  0.088895  0.000775  1.02748  0.001
H  H35  1  0.90250104  0.40947196  0.27010814  1  0.133076  0.001961  0.11485  0.082521  0.000684  1.040344  0.002
H  H36  1  0.65588666  0.31963730  0.13313848  1  0.066061  0.001196  0.102169  0.107169  0.000539  1.02168  0.001
H  H37  1  0.41664715  0.27819208  0.17084118  1  0.065968  -4.5e-05  0.107685  0.102342  -8.5e-05  0.982847  0.0
H  H38  1  0.43412854  0.32901415  0.34432923  1  0.090282  0.001128  0.112853  0.127763  0.000527  0.986027  0.001
H  H39  1  0.75210053  0.61121321  0.96513654  1  0.096586  0.002121  0.115201  0.084767  0.000793  1.028305  0.001
H  H40  1  0.84343583  0.59642163  0.82687867  1  0.091873  0.001218  0.106993  0.113364  0.000573  1.014594  0.001
H  H41  1  0.41511112  0.37858418  0.63415736  1  0.134178  0.001099  0.105893  0.118266  0.000502  1.029558  0.001
H  H42  1  0.34503271  0.39637933  0.77999740  1  0.12231  0.00213  0.116828  0.088511  0.000777  1.026909  0.001
H  H43  1  0.63184495  0.72992443  0.13938466  1  0.151326  0.001954  0.1146  0.082668  0.000685  1.040209  0.002
H  H44  1  0.52199787  0.86690939  0.18642627  1  0.078678  0.001169  0.102021  0.107816  0.000534  1.020574  0.001
H  H45  1  0.24511774  0.82918424  0.10723553  1  0.09407  -3.1e-05  0.106246  0.100981  -8.4e-05  0.982077  0.0
H  H46  1  0.08928558  0.65568435  0.98460537  1  0.067051  0.001138  0.112636  0.127211  0.000528  0.986654  0.001
H  H47  1  0.78678153  0.03487260  0.64614623  1  0.104989  0.002113  0.114686  0.085627  0.000792  1.027483  0.001
H  H48  1  0.01639027  0.17299702  0.76957578  1  0.09049  0.001218  0.106497  0.112515  0.000572  1.015216  0.001
H  H49  1  0.78110392  0.36597629  0.74445570  1  0.087994  0.001142  0.105786  0.117768  0.000501  1.030289  0.001
H  H50  1  0.56505086  0.22022292  0.61648562  1  0.11198  0.00213  0.117204  0.088008  0.000772  1.027121  0.001
C  C51  1  0.59379447  0.10687493  0.38893028  1  0.417034  -0.002851  0.046717  0.096711  -0.003586  3.929853  -0.002
C  C52  1  0.68099718  0.13227432  0.33900657  1  -0.01744  0.004998  -0.092239  -0.141789  0.002902  3.986646  0.004
C  C53  1  0.79045634  0.08793557  0.31591804  1  0.002012  -0.005667  -0.072875  -0.037916  -0.006379  4.012253  -0.003
C  C54  1  0.80970346  0.02005654  0.34332324  1  -0.006596  0.004006  -0.080099  -0.154187  0.002381  3.939029  0.003
C  C55  1  0.71845172  0.99848090  0.39352574  1  0.463313  -0.003177  0.12625  0.17052  -0.004076  3.989211  -0.002
C  C56  1  0.73131469  0.93215145  0.42940485  1  0.95923  -0.000792  0.195029  0.204976  -0.002041  4.093244  0.001
C  C57  1  0.78643858  0.83602941  0.47294300  1  0.937141  0.003703  0.191022  0.232363  0.002225  4.095493  0.005
C  C58  1  0.87921132  0.66942139  0.55990887  1  0.493784  -0.002111  0.03687  0.080566  -0.002913  3.966566  -0.002
C  C59  1  0.82191198  0.73858601  0.55237593  1  -0.043621  0.004457  -0.086011  -0.174188  0.002582  3.980883  0.003
C  C60  1  0.85016560  0.76685148  0.48562872  1  -0.010725  -0.003838  0.015364  0.076158  -0.004474  4.018175  -0.002
C  C61  1  0.93817680  0.72390831  0.43037743  1  -0.024004  0.005194  -0.082832  -0.15723  0.003045  3.922764  0.004
C  C62  1  0.98816579  0.65346610  0.44090288  1  0.429226  -0.002262  0.040281  0.085303  -0.00318  3.940062  -0.002
C  C63  1  0.20475049  0.61114128  0.71797880  1  0.454329  -0.002857  0.047095  0.096862  -0.003594  3.9305  -0.002
C  C64  1  0.34186210  0.66105504  0.79331489  1  -0.008454  0.005055  -0.092698  -0.141249  0.002905  3.98625  0.004
C  C65  1  0.47432905  0.68406515  0.77203334  1  -0.045332  -0.005684  -0.071472  -0.035131  -0.006379  4.013091  -0.003
C  C66  1  0.46614993  0.65662718  0.67673955  1  0.003601  0.004006  -0.08178  -0.157213  0.00238  3.939553  0.003
C  C67  1  0.32471156  0.60650161  0.60496301  1  0.461512  -0.003148  0.127277  0.171149  -0.004071  3.98879  -0.002
C  C68  1  0.30171353  0.57060382  0.50272674  1  0.961506  -0.000832  0.196859  0.209032  -0.002042  4.089879  0.001
C  C69  1  0.31318171  0.52695420  0.36298167  1  0.964381  0.003677  0.191309  0.232514  0.002223  4.097263  0.005
C  C70  1  0.31888026  0.43990883  0.10932556  1  0.501759  -0.002116  0.036597  0.080387  -0.002906  3.964804  -0.002
C  C71  1  0.26919253  0.44742993  0.18604671  1  -0.048603  0.004482  -0.086124  -0.177009  0.00259  3.978671  0.003
C  C72  1  0.36414163  0.51421113  0.28107916  1  -0.037961  -0.003849  0.012931  0.073887  -0.004489  4.019907  -0.002
C  C73  1  0.50728004  0.56949895  0.29338366  1  -0.000112  0.005166  -0.083969  -0.159644  0.003032  3.923646  0.004
C  C74  1  0.54664372  0.55895391  0.21239964  1  0.414862  -0.002309  0.041999  0.087111  -0.003198  3.94079  -0.002
C  C75  1  0.48734091  0.28201815  0.89315187  1  0.480385  -0.002959  0.048023  0.096126  -0.003587  3.931929  -0.002
C  C76  1  0.54922473  0.20668063  0.86775100  1  -0.062312  0.00505  -0.09172  -0.141094  0.002884  3.986013  0.004
C  C77  1  0.70294767  0.22797270  0.91210474  1  -0.044386  -0.005687  -0.071819  -0.035401  -0.006376  4.011783  -0.003
C  C78  1  0.78994184  0.32329284  0.97996244  1  0.056672  0.003948  -0.078924  -0.152735  0.002371  3.935993  0.003
C  C79  1  0.72017480  0.39507566  0.00156763  1  0.454826  -0.003208  0.125321  0.168791  -0.0041  3.990858  -0.002
C  C80  1  0.79916362  0.49730477  0.06791925  1  0.962633  -0.000854  0.195103  0.204988  -0.002077  4.095686  0.001
C  C81  1  0.95016564  0.63704577  0.16398811  1  0.940048  0.0037  0.190039  0.232197  0.002225  4.096598  0.005
C  C82  1  0.20966538  0.89063474  0.33051045  1  0.44984  -0.002044  0.038599  0.080436  -0.002932  3.964784  -0.002
C  C83  1  0.08322127  0.81396915  0.26132786  1  -0.004933  0.004429  -0.085717  -0.174919  0.002588  3.979433  0.003
C  C84  1  0.08302072  0.71889596  0.23309350  1  -0.038981  -0.003817  0.013811  0.073784  -0.004445  4.017357  -0.002
C  C85  1  0.21379464  0.70650499  0.27609235  1  -0.046547  0.005245  -0.083743  -0.159023  0.00304  3.922364  0.004
C  C86  1  0.33422979  0.78744294  0.34649431  1  0.488344  -0.002288  0.040131  0.086057  -0.003139  3.94172  -0.002
C  C87  1  0.40620655  0.89312574  0.61107075  1  0.417096  -0.00285  0.046694  0.096704  -0.003586  3.929944  -0.002
C  C88  1  0.31900169  0.86772417  0.66099202  1  -0.016858  0.004999  -0.09222  -0.141781  0.002902  3.986676  0.004
C  C89  1  0.20954182  0.91206364  0.68408141  1  0.001473  -0.005667  -0.072931  -0.03801  -0.006379  4.012337  -0.003
C  C90  1  0.19029578  0.97994267  0.65667572  1  -0.006599  0.004007  -0.080035  -0.154092  0.002381  3.938954  0.003
C  C91  1  0.28155001  0.00151904  0.60647444  1  0.463264  -0.003177  0.126253  0.170549  -0.004076  3.98919  -0.002
C  C92  1  0.26868490  0.06784632  0.57059289  1  0.959274  -0.000792  0.195018  0.204923  -0.002041  4.093362  0.001
C  C93  1  0.21356173  0.16396981  0.52705669  1  0.937155  0.003703  0.191029  0.23238  0.002225  4.095482  0.005
C  C94  1  0.12078721  0.33057855  0.44009032  1  0.493786  -0.00211  0.036833  0.080507  -0.002913  3.966661  -0.002
C  C95  1  0.17808618  0.26141320  0.44762290  1  -0.043631  0.004458  -0.085991  -0.17414  0.002582  3.980946  0.003
C  C96  1  0.14983363  0.23314774  0.51437023  1  -0.010696  -0.003838  0.015373  0.076184  -0.004473  4.018171  -0.002
C  C97  1  0.06182316  0.27609235  0.56962347  1  -0.024029  0.005193  -0.082837  -0.157267  0.003045  3.922814  0.004
C  C98  1  0.01183523  0.34653456  0.55909754  1  0.42919  -0.002262  0.040247  0.085298  -0.00318  3.940045  -0.002
C  C99  1  0.79524910  0.38885866  0.28202113  1  0.454329  -0.002856  0.047133  0.096873  -0.003593  3.930626  -0.002
C  C100  1  0.65813858  0.33894707  0.20668428  1  -0.00836  0.005055  -0.092726  -0.141341  0.002905  3.986302  0.004
C  C101  1  0.52567127  0.31593624  0.22796608  1  -0.045359  -0.005683  -0.071491  -0.035161  -0.006378  4.013135  -0.003
C  C102  1  0.53385216  0.34337348  0.32325976  1  0.003555  0.004005  -0.08176  -0.157187  0.00238  3.939652  0.003
C  C103  1  0.67528947  0.39349905  0.39503679  1  0.46132  -0.003148  0.127288  0.171171  -0.004071  3.988713  -0.002
C  C104  1  0.69828929  0.42939829  0.49727391  1  0.961623  -0.000832  0.196876  0.209072  -0.002042  4.089889  0.001
C  C105  1  0.68681966  0.47304501  0.63701876  1  0.964374  0.003677  0.191342  0.232519  0.002223  4.097322  0.005
C  C106  1  0.68112005  0.56009255  0.89067571  1  0.501802  -0.002116  0.036656  0.080511  -0.002907  3.964836  -0.002
C  C107  1  0.73080813  0.55257001  0.81395396  1  -0.048596  0.004483  -0.086129  -0.177051  0.00259  3.978668  0.003
C  C108  1  0.63586188  0.48578809  0.71892151  1  -0.037941  -0.003849  0.012899  0.073905  -0.004489  4.01993  -0.002
C  C109  1  0.49272205  0.43050171  0.70661811  1  -0.000125  0.005166  -0.083956  -0.159593  0.003032  3.923698  0.004
C  C110  1  0.45335766  0.44104748  0.78760114  1  0.414847  -0.002309  0.041959  0.087002  -0.003198  3.940954  -0.002
C  C111  1  0.51265832  0.71798106  0.10684709  1  0.480713  -0.002959  0.048024  0.096125  -0.003586  3.931963  -0.002
C  C112  1  0.45077557  0.79331859  0.13224870  1  -0.062292  0.00505  -0.091712  -0.141144  0.002884  3.986004  0.004
C  C113  1  0.29705085  0.77202724  0.08789323  1  -0.044362  -0.005687  -0.071785  -0.035381  -0.006376  4.011778  -0.003
C  C114  1  0.21005811  0.67670782  0.02003663  1  0.056996  0.003948  -0.078952  -0.152729  0.002371  3.936055  0.003
C  C115  1  0.27982730  0.60492500  0.99843045  1  0.454543  -0.003208  0.125296  0.168755  -0.004101  3.99079  -0.002
C  C116  1  0.20083669  0.50269444  0.93207798  1  0.962561  -0.000855  0.195107  0.204978  -0.002077  4.095729  0.001
C  C117  1  0.04983431  0.36295272  0.83601060  1  0.940053  0.0037  0.190069  0.232233  0.002225  4.096494  0.005
C  C118  1  0.79033421  0.10936519  0.66949316  1  0.450185  -0.002044  0.0386  0.08051  -0.002931  3.964864  -0.002
C  C119  1  0.91677688  0.18603007  0.73867589  1  -0.005402  0.00443  -0.085729  -0.174962  0.002588  3.979539  0.003
C  C120  1  0.91697671  0.28110181  0.76690706  1  -0.039067  -0.003817  0.013783  0.073777  -0.004445  4.017394  -0.002
C  C121  1  0.78620459  0.29349422  0.72390844  1  -0.046494  0.005245  -0.083731  -0.158976  0.00304  3.922382  0.004
C  C122  1  0.66576873  0.21255700  0.65350673  1  0.488333  -0.002288  0.040127  0.085994  -0.003139  3.941855  -0.002
N  N123  1  0.68001073  0.86408325  0.51374582  1  -0.664254  0.004493  -0.232449  -0.274129  0.001634  3.213194  0.003
N  N124  1  0.64522075  0.92501339  0.48477690  1  -0.708885  0.070579  -0.254918  -0.202233  0.042906  3.647506  0.064
N  N125  1  0.82161021  0.87665299  0.41940355  1  -1.15037  0.000685  -0.34184  -0.408922  -0.00027  3.149673  0.0
N  N126  1  0.61158630  0.04139042  0.41544489  1  -1.199578  0.079605  -0.310049  -0.235147  0.04716  3.500283  0.072
N  N127  1  0.95895604  0.62545403  0.50406529  1  -1.214268  0.082676  -0.32377  -0.216003  0.048822  3.565693  0.074
N  N128  1  0.16609764  0.48602635  0.35027478  1  -0.664106  0.004471  -0.231532  -0.271978  0.001625  3.213115  0.003
N  N129  1  0.16035711  0.51505972  0.44021050  1  -0.711163  0.070634  -0.254315  -0.20158  0.042925  3.6507  0.064
N  N130  1  0.40186558  0.58063162  0.45717402  1  -1.181418  0.000707  -0.343751  -0.412751  -0.000256  3.148827  0.0
N  N131  1  0.19599512  0.58461193  0.62596801  1  -1.182837  0.079522  -0.3092  -0.234385  0.047112  3.500251  0.072
N  N132  1  0.45434557  0.49578119  0.12120194  1  -1.223298  0.082586  -0.323716  -0.214022  0.048721  3.564638  0.074
N  N133  1  0.81571333  0.64973703  0.13587426  1  -0.67232  0.004613  -0.231354  -0.273401  0.001723  3.211904  0.003
N  N134  1  0.72013248  0.55979189  0.07498825  1  -0.699762  0.070601  -0.253896  -0.198849  0.042912  3.648039  0.064
N  N135  1  0.94483531  0.54287325  0.12343363  1  -1.162516  0.000595  -0.341746  -0.409895  -0.000362  3.150181  0.0
N  N136  1  0.57045835  0.37404648  0.95863936  1  -1.225035  0.079606  -0.309767  -0.234566  0.047059  3.50374  0.072
N  N137  1  0.33322413  0.87868526  0.37449574  1  -1.208554  0.082647  -0.324476  -0.215213  0.048895  3.564776  0.074
N  N138  1  0.31998850  0.13591596  0.48625375  1  -0.664267  0.004493  -0.232463  -0.274168  0.001634  3.213212  0.003
N  N139  1  0.35477884  0.07498655  0.51522303  1  -0.708937  0.07058  -0.254909  -0.202172  0.042905  3.647517  0.064
N  N140  1  0.17839259  0.12334694  0.58059736  1  -1.150321  0.000685  -0.34185  -0.408938  -0.000269  3.149711  0.0
N  N141  1  0.38841186  0.95860879  0.58455517  1  -1.199582  0.079606  -0.310054  -0.235167  0.047161  3.500328  0.072
N  N142  1  0.04104498  0.37454663  0.49593451  1  -1.214223  0.082674  -0.323743  -0.215991  0.048821  3.565715  0.074
N  N143  1  0.83390338  0.51397431  0.64972564  1  -0.664135  0.004472  -0.231493  -0.271896  0.001625  3.213224  0.003
N  N144  1  0.83964393  0.48494311  0.55979087  1  -0.711183  0.070631  -0.25435  -0.201693  0.042923  3.650964  0.064
N  N145  1  0.59813793  0.41936760  0.54282665  1  -1.181448  0.000707  -0.343776  -0.412797  -0.000256  3.148808  0.0
N  N146  1  0.80400770  0.41539018  0.37403263  1  -1.182589  0.079521  -0.309268  -0.234404  0.047112  3.500323  0.072
N  N147  1  0.54565689  0.50422020  0.87879835  1  -1.223327  0.082588  -0.323724  -0.214023  0.048723  3.564892  0.074
N  N148  1  0.18428590  0.35026219  0.86412592  1  -0.672333  0.004614  -0.231366  -0.273419  0.001724  3.211925  0.003
N  N149  1  0.27986782  0.44020732  0.92501022  1  -0.699713  0.0706  -0.253887  -0.198832  0.042911  3.648101  0.064
N  N150  1  0.05516500  0.45712596  0.87656361  1  -1.162485  0.000594  -0.341767  -0.409911  -0.000363  3.150147  0.0
N  N151  1  0.42954160  0.62595418  0.04135971  1  -1.225057  0.079606  -0.30977  -0.234566  0.047059  3.503755  0.072
N  N152  1  0.66677510  0.12131395  0.62550690  1  -1.208506  0.082647  -0.324461  -0.215177  0.048895  3.564817  0.074
