# generated using pymatgen
data_HgH8C10S2(IN)2
_symmetry_space_group_name_H-M   'P 1'
_cell_length_a   8.61537449
_cell_length_b   8.61543726
_cell_length_c   10.99525610
_cell_angle_alpha   85.48393899
_cell_angle_beta   85.48412597
_cell_angle_gamma   72.13090275
_symmetry_Int_Tables_number   1
_chemical_formula_structural   HgH8C10S2(IN)2
_chemical_formula_sum   'Hg2 H16 C20 S4 I4 N4'
_cell_volume   773.06182041
_cell_formula_units_Z   2
loop_
 _symmetry_equiv_pos_site_id
 _symmetry_equiv_pos_as_xyz
  1  'x, y, z'
loop_
 _atom_site_type_symbol
 _atom_site_label
 _atom_site_symmetry_multiplicity
 _atom_site_fract_x
 _atom_site_fract_y
 _atom_site_fract_z
 _atom_site_occupancy
 _atom_site_hle17_bader_spin_density
 _atom_site_hle17_ddec_charge
 _atom_site_hle17_ddec_spin_density
 _atom_site_hle17_ddec_sum_bond_order
 _atom_site_hle17_magmom
 _atom_site_hse06_10hf_bader_spin_density
 _atom_site_hse06_10hf_ddec_charge
 _atom_site_hse06_10hf_ddec_spin_density
 _atom_site_hse06_10hf_ddec_sum_bond_order
 _atom_site_hse06_10hf_magmom
 _atom_site_hse06_bader_spin_density
 _atom_site_hse06_ddec_charge
 _atom_site_hse06_ddec_spin_density
 _atom_site_hse06_ddec_sum_bond_order
 _atom_site_hse06_magmom
 _atom_site_pbe_bader_spin_density
 _atom_site_pbe_cm5_charge
 _atom_site_pbe_ddec_charge
 _atom_site_pbe_ddec_spin_density
 _atom_site_pbe_ddec_sum_bond_order
 _atom_site_pbe_magmom
Hg  Hg0  1  0.01850292  0.98150037  0.75000052  1  0  0.558124  0  2.180834  0  0  0.424069  0  2.670356  0  0  0.46657  0  2.64767  0  0  0.399618  0.395866  0  2.685913  0
Hg  Hg1  1  0.98150059  0.01850182  0.24999907  1  0  0.558125  0  2.180821  0  0  0.424069  0  2.670329  0  0  0.46657  0  2.647644  0  0  0.399616  0.395868  0  2.685887  0
H  H2  1  0.03422923  0.74176597  0.53203342  1  0  0.068497  0  0.964994  0  0  0.073904  0  1.035846  0  0  0.076966  0  1.03263  0  0  0.095571  0.071438  0  1.038658  0
H  H3  1  0.25821994  0.96577795  0.96797603  1  0  0.068523  0  0.965054  0  0  0.073912  0  1.035917  0  0  0.076973  0  1.032705  0  0  0.09559  0.071447  0  1.038729  0
H  H4  1  0.96578201  0.25821784  0.46797314  1  0  0.068545  0  0.965052  0  0  0.073882  0  1.035959  0  0  0.076941  0  1.032748  0  0  0.095558  0.071417  0  1.038771  0
H  H5  1  0.74176396  0.03423532  0.03202404  1  0  0.068546  0  0.965081  0  0  0.073979  0  1.03589  0  0  0.077043  0  1.032673  0  0  0.095618  0.071514  0  1.038703  0
H  H6  1  0.21405641  0.58489946  0.36634976  1  0  0.10227  0  0.993404  0  0  0.107106  0  1.06244  0  0  0.110863  0  1.061227  0  0  0.090592  0.104326  0  1.06367  0
H  H7  1  0.41508881  0.78595429  0.13365950  1  0  0.102164  0  0.993551  0  0  0.107021  0  1.062536  0  0  0.11078  0  1.061321  0  0  0.090578  0.104242  0  1.063767  0
H  H8  1  0.78595884  0.41509042  0.63365714  1  0  0.102197  0  0.993517  0  0  0.107036  0  1.06253  0  0  0.110796  0  1.061312  0  0  0.09058  0.104256  0  1.063761  0
H  H9  1  0.58489440  0.21406505  0.86634482  1  0  0.102234  0  0.993408  0  0  0.107062  0  1.062438  0  0  0.11082  0  1.061226  0  0  0.09058  0.104283  0  1.063669  0
H  H10  1  0.39668860  0.92546359  0.62742643  1  0  0.071328  0  0.956556  0  0  0.077282  0  1.029135  0  0  0.079938  0  1.026323  0  0  0.09753  0.075342  0  1.031212  0
H  H11  1  0.07453397  0.60331268  0.87257568  1  0  0.071338  0  0.956564  0  0  0.077268  0  1.029167  0  0  0.079924  0  1.026356  0  0  0.097538  0.075328  0  1.031244  0
H  H12  1  0.60331401  0.07453371  0.37257530  1  0  0.07137  0  0.956515  0  0  0.07729  0  1.029123  0  0  0.079947  0  1.026312  0  0  0.097546  0.075352  0  1.031202  0
H  H13  1  0.92546903  0.39668342  0.12742338  1  0  0.071349  0  0.956536  0  0  0.077217  0  1.029185  0  0  0.07987  0  1.026378  0  0  0.097537  0.07528  0  1.031265  0
H  H14  1  0.59648052  0.77174574  0.46908991  1  0  0.110891  0  0.957302  0  0  0.118899  0  1.023552  0  0  0.122819  0  1.021441  0  0  0.095364  0.115782  0  1.025775  0
H  H15  1  0.22826496  0.40352280  0.03091062  1  0  0.110936  0  0.957283  0  0  0.118916  0  1.023537  0  0  0.122835  0  1.021429  0  0  0.095381  0.115822  0  1.025742  0
H  H16  1  0.40352358  0.22826622  0.53090730  1  0  0.110944  0  0.957276  0  0  0.118906  0  1.023546  0  0  0.122824  0  1.021439  0  0  0.095374  0.115816  0  1.025745  0
H  H17  1  0.77174555  0.59647937  0.96908768  1  0  0.110905  0  0.957368  0  0  0.118911  0  1.023615  0  0  0.122832  0  1.021504  0  0  0.095376  0.115787  0  1.025842  0
C  C18  1  0.15967572  0.74552516  0.51452716  1  0  0.124606  0  3.756409  0  0  0.09672  0  4.009198  0  0  0.104492  0  4.026657  0  0  0.03396  0.091558  0  3.997416  0
C  C19  1  0.25446484  0.84033209  0.98547584  1  0  0.124486  0  3.756495  0  0  0.09661  0  4.009299  0  0  0.104383  0  4.026756  0  0  0.033943  0.091448  0  3.997518  0
C  C20  1  0.84033570  0.25446598  0.48547625  1  0  0.124424  0  3.756434  0  0  0.096584  0  4.009218  0  0  0.104359  0  4.026671  0  0  0.033979  0.091423  0  3.997435  0
C  C21  1  0.74552366  0.15967750  0.01452327  1  0  0.1244  0  3.756541  0  0  0.096498  0  4.009328  0  0  0.104272  0  4.026784  0  0  0.033909  0.091337  0  3.997546  0
C  C22  1  0.26070403  0.65726089  0.42271853  1  0  -0.183047  0  3.774062  0  0  -0.197497  0  4.018534  0  0  -0.206804  0  4.041477  0  0  -0.100971  -0.191552  0  4.003574  0
C  C23  1  0.34273889  0.73929982  0.07728225  1  0  -0.182735  0  3.774183  0  0  -0.197148  0  4.018693  0  0  -0.206454  0  4.041637  0  0  -0.100859  -0.191205  0  4.003731  0
C  C24  1  0.73930252  0.34273884  0.57728285  1  0  -0.182629  0  3.774049  0  0  -0.19704  0  4.018576  0  0  -0.20635  0  4.04153  0  0  -0.100815  -0.191096  0  4.003613  0
C  C25  1  0.65725932  0.26070852  0.92271458  1  0  -0.182959  0  3.774139  0  0  -0.197367  0  4.01869  0  0  -0.206677  0  4.041639  0  0  -0.100952  -0.191421  0  4.00373  0
C  C26  1  0.42074963  0.66466106  0.40498107  1  0  0.087725  0  3.773108  0  0  0.103489  0  4.024772  0  0  0.10977  0  4.046108  0  0  0.001401  0.099406  0  4.010104  0
C  C27  1  0.33534019  0.57925818  0.09502144  1  0  0.087704  0  3.773088  0  0  0.103347  0  4.024932  0  0  0.109628  0  4.04627  0  0  0.001338  0.099266  0  4.01027  0
C  C28  1  0.57925853  0.33534110  0.59501918  1  0  0.087614  0  3.773092  0  0  0.103215  0  4.024986  0  0  0.109495  0  4.046324  0  0  0.001313  0.099135  0  4.010321  0
C  C29  1  0.66465881  0.42075136  0.90497709  1  0  0.087805  0  3.773047  0  0  0.103436  0  4.024899  0  0  0.109719  0  4.046237  0  0  0.001328  0.099352  0  4.010227  0
C  C30  1  0.36191297  0.84731484  0.56800445  1  0  0.125  0  3.740533  0  0  0.093569  0  3.999634  0  0  0.101868  0  4.016778  0  0  0.032648  0.088067  0  3.988315  0
C  C31  1  0.15268449  0.63809095  0.93199748  1  0  0.125056  0  3.740498  0  0  0.09365  0  3.999578  0  0  0.101949  0  4.01672  0  0  0.032703  0.088147  0  3.98827  0
C  C32  1  0.63809243  0.15268490  0.43199518  1  0  0.124967  0  3.740406  0  0  0.093546  0  3.999486  0  0  0.101845  0  4.016627  0  0  0.032668  0.088039  0  3.988181  0
C  C33  1  0.84731867  0.36191249  0.06799934  1  0  0.124956  0  3.740532  0  0  0.093607  0  3.999632  0  0  0.101907  0  4.016774  0  0  0.032642  0.088098  0  3.988314  0
C  C34  1  0.47276921  0.76186250  0.47971701  1  0  -0.162397  0  3.714597  0  0  -0.179733  0  3.96474  0  0  -0.18735  0  3.984187  0  0  -0.096571  -0.174554  0  3.951509  0
C  C35  1  0.23814018  0.52723698  0.02028363  1  0  -0.162476  0  3.714584  0  0  -0.179735  0  3.964749  0  0  -0.18735  0  3.984196  0  0  -0.096598  -0.174566  0  3.951474  0
C  C36  1  0.52723671  0.23814335  0.52028134  1  0  -0.162418  0  3.7146  0  0  -0.179631  0  3.964747  0  0  -0.187245  0  3.984196  0  0  -0.096567  -0.174476  0  3.951494  0
C  C37  1  0.76186495  0.47276766  0.97971301  1  0  -0.162431  0  3.714592  0  0  -0.17972  0  3.964749  0  0  -0.187336  0  3.984195  0  0  -0.096547  -0.174542  0  3.95155  0
S  S38  1  0.56423483  0.55851032  0.29288467  1  0  0.047255  0  2.534789  0  0  0.052014  0  2.901181  0  0  0.049255  0  2.90273  0  0  0.058109  0.054723  0  2.900942  0
S  S39  1  0.44149673  0.43577128  0.20711525  1  0  0.047237  0  2.534681  0  0  0.052  0  2.901187  0  0  0.049242  0  2.902734  0  0  0.058136  0.054703  0  2.900955  0
S  S40  1  0.43576966  0.44150044  0.70711076  1  0  0.047203  0  2.534679  0  0  0.051994  0  2.901178  0  0  0.049237  0  2.902725  0  0  0.058113  0.054698  0  2.900947  0
S  S41  1  0.55850847  0.56423702  0.79288209  1  0  0.047254  0  2.534697  0  0  0.052042  0  2.901183  0  0  0.049283  0  2.902728  0  0  0.058141  0.054747  0  2.900953  0
I  I42  1  0.76444605  0.86222183  0.73687104  1  0  -0.365231  0  1.127886  0  0  -0.323958  0  1.456883  0  0  -0.341469  0  1.440065  0  0  -0.183165  -0.31186  0  1.469531  0
I  I43  1  0.13778228  0.23555585  0.76313039  1  0  -0.36527  0  1.127911  0  0  -0.323997  0  1.456887  0  0  -0.341507  0  1.44007  0  0  -0.18318  -0.311899  0  1.469544  0
I  I44  1  0.23555513  0.13778039  0.26312687  1  0  -0.365263  0  1.127947  0  0  -0.323989  0  1.45691  0  0  -0.341496  0  1.440089  0  0  -0.183167  -0.311893  0  1.469567  0
I  I45  1  0.86222085  0.76444755  0.23687098  1  0  -0.365235  0  1.127876  0  0  -0.323972  0  1.456862  0  0  -0.341482  0  1.440046  0  0  -0.183176  -0.311876  0  1.469511  0
N  N46  1  0.20839786  0.83904851  0.58583531  1  0  -0.305992  0  3.277464  0  0  -0.233845  0  3.545615  0  0  -0.253653  0  3.566801  0  0  -0.324308  -0.220623  0  3.531689  0
N  N47  1  0.16094394  0.79160641  0.91416859  1  0  -0.306031  0  3.277433  0  0  -0.233883  0  3.545578  0  0  -0.253693  0  3.566766  0  0  -0.324354  -0.220662  0  3.531654  0
N  N48  1  0.79161236  0.16094262  0.41417090  1  0  -0.306026  0  3.277253  0  0  -0.233836  0  3.545349  0  0  -0.253643  0  3.566534  0  0  -0.324371  -0.220614  0  3.531425  0
N  N49  1  0.83904952  0.20839828  0.08583052  1  0  -0.305838  0  3.27733  0  0  -0.2337  0  3.545457  0  0  -0.253508  0  3.566644  0  0  -0.324279  -0.220477  0  3.531531  0
