# generated using pymatgen
data_AgH9C8N5ClO3
_symmetry_space_group_name_H-M   'P 1'
_cell_length_a   7.66866071
_cell_length_b   13.09743134
_cell_length_c   13.35068601
_cell_angle_alpha   85.27879189
_cell_angle_beta   73.67107976
_cell_angle_gamma   72.97706456
_symmetry_Int_Tables_number   1
_chemical_formula_structural   AgH9C8N5ClO3
_chemical_formula_sum   'Ag4 H36 C32 N20 Cl4 O12'
_cell_volume   1230.47088116
_cell_formula_units_Z   4
loop_
 _symmetry_equiv_pos_site_id
 _symmetry_equiv_pos_as_xyz
  1  'x, y, z'
loop_
 _atom_site_type_symbol
 _atom_site_label
 _atom_site_symmetry_multiplicity
 _atom_site_fract_x
 _atom_site_fract_y
 _atom_site_fract_z
 _atom_site_occupancy
 _atom_site_hle17_bader_spin_density
 _atom_site_hle17_ddec_charge
 _atom_site_hle17_ddec_spin_density
 _atom_site_hle17_ddec_sum_bond_order
 _atom_site_hle17_magmom
 _atom_site_hse06_10hf_bader_spin_density
 _atom_site_hse06_10hf_ddec_charge
 _atom_site_hse06_10hf_ddec_spin_density
 _atom_site_hse06_10hf_ddec_sum_bond_order
 _atom_site_hse06_10hf_magmom
 _atom_site_hse06_bader_spin_density
 _atom_site_hse06_ddec_charge
 _atom_site_hse06_ddec_spin_density
 _atom_site_hse06_ddec_sum_bond_order
 _atom_site_hse06_magmom
 _atom_site_pbe_bader_charge
 _atom_site_pbe_bader_spin_density
 _atom_site_pbe_cm5_charge
 _atom_site_pbe_ddec_charge
 _atom_site_pbe_ddec_spin_density
 _atom_site_pbe_ddec_sum_bond_order
 _atom_site_pbe_magmom
Ag  Ag0  1  0.91370366  0.59595314  0.83275002  1  0  0.50094  0  1.484895  0  0  0.349004  0  1.944955  0  0  0.377704  0  1.899956  0  0.609377  0  0.448388  0.329564  0  1.97587  0
Ag  Ag1  1  0.34212568  0.40454495  0.16684910  1  0  0.500045  0  1.492688  0  0  0.348564  0  1.953686  0  0  0.376969  0  1.908812  0  0.608174  0  0.450413  0.329265  0  1.984626  0
Ag  Ag2  1  0.25972847  0.90407696  0.33275369  1  0  0.50071  0  1.486406  0  0  0.349238  0  1.94594  0  0  0.377774  0  1.901194  0  0.607956  0  0.448621  0.329853  0  1.976767  0
Ag  Ag3  1  0.49707511  0.09547173  0.66676261  1  0  0.499052  0  1.492881  0  0  0.347353  0  1.95383  0  0  0.375765  0  1.908963  0  0.60901  0  0.449872  0.32808  0  1.984693  0
H  H4  1  0.10346426  0.51632669  0.01968438  1  0  0.075597  0  0.967678  0  0  0.079347  0  1.040345  0  0  0.082237  0  1.036234  0  0.188792  0  0.125014  0.077086  0  1.043495  0
H  H5  1  0.63981935  0.48327869  0.98009046  1  0  0.075551  0  0.967766  0  0  0.078535  0  1.041177  0  0  0.081375  0  1.037131  0  0.158051  0  0.124926  0.07631  0  1.044307  0
H  H6  1  0.36991396  0.98364113  0.51952411  1  0  0.076285  0  0.966848  0  0  0.079133  0  1.040417  0  0  0.082015  0  1.036289  0  0.169098  0  0.125224  0.076883  0  1.043575  0
H  H7  1  0.87338764  0.01671324  0.48005650  1  0  0.074573  0  0.969033  0  0  0.077545  0  1.042436  0  0  0.080358  0  1.038451  0  0.164655  0  0.12493  0.075327  0  1.045543  0
H  H8  1  0.76109684  0.08655178  0.83489872  1  0  0.111168  0  0.980119  0  0  0.11462  0  1.050096  0  0  0.118705  0  1.044859  0  0.242469  0  0.136174  0.111398  0  1.054155  0
H  H9  1  0.68227011  0.91402218  0.16526507  1  0  0.1118  0  0.981299  0  0  0.11511  0  1.051457  0  0  0.119179  0  1.046302  0  0.245753  0  0.136579  0.112013  0  1.055352  0
H  H10  1  0.59714450  0.41367571  0.33506503  1  0  0.111892  0  0.978793  0  0  0.115772  0  1.048096  0  0  0.120041  0  1.04267  0  0.239727  0  0.136733  0.112525  0  1.05217  0
H  H11  1  0.34653082  0.58588016  0.66509846  1  0  0.110493  0  0.981995  0  0  0.115112  0  1.050727  0  0  0.119242  0  1.045493  0  0.240502  0  0.136245  0.111875  0  1.054774  0
H  H12  1  0.60347975  0.24651454  0.08549614  1  0  0.054578  0  0.987625  0  0  0.062004  0  1.078033  0  0  0.06443  0  1.073789  0  0.086013  0  0.09175  0.060146  0  1.081175  0
H  H13  1  0.93258981  0.75370009  0.91508717  1  0  0.05284  0  0.988845  0  0  0.060824  0  1.079974  0  0  0.063226  0  1.075658  0  0.086221  0  0.091206  0.058953  0  1.083117  0
H  H14  1  0.59981534  0.25360515  0.58556396  1  0  0.054473  0  0.987046  0  0  0.062119  0  1.077398  0  0  0.064544  0  1.073156  0  0.07883  0  0.091975  0.060231  0  1.08054  0
H  H15  1  0.43648503  0.74628130  0.41492755  1  0  0.053658  0  0.988872  0  0  0.061142  0  1.079856  0  0  0.063662  0  1.075525  0  0.085997  0  0.091327  0.059175  0  1.083091  0
H  H16  1  0.73177705  0.11732727  0.03644087  1  0  0.085793  0  0.922169  0  0  0.101322  0  0.981089  0  0  0.102234  0  0.980624  0  0.104938  0  0.111333  0.100525  0  0.981666  0
H  H17  1  0.88363414  0.88282748  0.96432196  1  0  0.086  0  0.920816  0  0  0.101902  0  0.979822  0  0  0.102786  0  0.97938  0  0.091645  0  0.111528  0.101111  0  0.980333  0
H  H18  1  0.59901457  0.38277885  0.53646725  1  0  0.086613  0  0.922128  0  0  0.102226  0  0.980774  0  0  0.103163  0  0.980327  0  0.066153  0  0.111816  0.101412  0  0.981327  0
H  H19  1  0.51664767  0.61712357  0.46410881  1  0  0.085262  0  0.921225  0  0  0.100939  0  0.980105  0  0  0.101845  0  0.979723  0  0.082885  0  0.111323  0.100137  0  0.980638  0
H  H20  1  0.84134744  0.32151613  0.94973673  1  0  0.072755  0  0.95487  0  0  0.091948  0  1.014825  0  0  0.092261  0  1.015898  0  0.05685  0  0.087224  0.091626  0  1.01422  0
H  H21  1  0.11287676  0.67837432  0.05060386  1  0  0.071622  0  0.953349  0  0  0.090331  0  1.014495  0  0  0.090708  0  1.015442  0  0.056649  0  0.08672  0.089994  0  1.013933  0
H  H22  1  0.91256578  0.17849817  0.44972001  1  0  0.072997  0  0.95328  0  0  0.092033  0  1.013677  0  0  0.092396  0  1.014669  0  0.057925  0  0.086807  0.091684  0  1.013122  0
H  H23  1  0.54136624  0.82151285  0.55053666  1  0  0.071183  0  0.954188  0  0  0.090209  0  1.01485  0  0  0.090565  0  1.015786  0  0.053418  0  0.086494  0.089866  0  1.014296  0
H  H24  1  0.97205183  0.19022083  0.90740185  1  0  0.083983  0  0.947853  0  0  0.098442  0  1.011022  0  0  0.100442  0  1.009886  0  0.059731  0  0.088399  0.096868  0  1.011977  0
H  H25  1  0.07082785  0.80958737  0.09321578  1  0  0.083221  0  0.949168  0  0  0.097877  0  1.012483  0  0  0.099804  0  1.011468  0  0.069252  0  0.088155  0.096349  0  1.013404  0
H  H26  1  0.91200748  0.30976951  0.40729095  1  0  0.08384  0  0.948296  0  0  0.097892  0  1.012247  0  0  0.099878  0  1.01114  0  0.064977  0  0.088062  0.096334  0  1.013186  0
H  H27  1  0.63042347  0.69028862  0.59313557  1  0  0.082574  0  0.949931  0  0  0.097105  0  1.013358  0  0  0.099057  0  1.012284  0  0.077132  0  0.087705  0.095556  0  1.0143  0
H  H28  1  0.01305392  0.14239434  0.08895302  1  0  0.096071  0  0.957867  0  0  0.117081  0  1.015941  0  0  0.118126  0  1.01642  0  0.014587  0  0.080897  0.116178  0  1.015761  0
H  H29  1  0.24176962  0.85773007  0.91165634  1  0  0.09641  0  0.958762  0  0  0.117017  0  1.017129  0  0  0.118118  0  1.017541  0  0.017051  0  0.080723  0.116088  0  1.016971  0
H  H30  1  0.90532652  0.35771098  0.58879330  1  0  0.09654  0  0.957645  0  0  0.117699  0  1.015401  0  0  0.118727  0  1.015917  0  0.056071  0  0.080916  0.116801  0  1.015211  0
H  H31  1  0.84992254  0.64220262  0.41166797  1  0  0.096615  0  0.958344  0  0  0.117355  0  1.016812  0  0  0.11845  0  1.01722  0  0.049557  0  0.080838  0.116423  0  1.016667  0
H  H32  1  0.10819088  0.24948174  0.03515515  1  0  0.079647  0  0.992352  0  0  0.096783  0  1.062491  0  0  0.096695  0  1.065123  0  0.022543  0  0.072269  0.096785  0  1.060714  0
H  H33  1  0.39114770  0.75058757  0.96545626  1  0  0.07846  0  0.994023  0  0  0.095573  0  1.064337  0  0  0.095556  0  1.066934  0  0.020816  0  0.071776  0.095552  0  1.062548  0
H  H34  1  0.10753776  0.25059084  0.53504155  1  0  0.079975  0  0.993013  0  0  0.097413  0  1.06282  0  0  0.097354  0  1.065433  0  0.028248  0  0.072557  0.097405  0  1.061045  0
H  H35  1  0.89187836  0.74935949  0.46561235  1  0  0.079405  0  0.993518  0  0  0.096351  0  1.064014  0  0  0.096288  0  1.066667  0  0.008799  0  0.072009  0.096368  0  1.062161  0
H  H36  1  0.88793584  0.27490174  0.13112068  1  0  0.097815  0  0.946406  0  0  0.119524  0  1.005393  0  0  0.120492  0  1.006141  0  0.034563  0  0.082177  0.118731  0  1.00498  0
H  H37  1  0.29034706  0.72527297  0.86938835  1  0  0.097265  0  0.946874  0  0  0.118804  0  1.00649  0  0  0.1198  0  1.007188  0  0.032674  0  0.081768  0.117993  0  1.006105  0
H  H38  1  0.91270892  0.22522913  0.63102487  1  0  0.098362  0  0.945309  0  0  0.12003  0  1.004635  0  0  0.121077  0  1.005265  0  0.041065  0  0.082262  0.11918  0  1.004297  0
H  H39  1  0.76607321  0.77466690  0.36940976  1  0  0.096485  0  0.947349  0  0  0.118751  0  1.006173  0  0  0.1197  0  1.006912  0  0.046332  0  0.081886  0.117938  0  1.005803  0
C  C40  1  0.19156413  0.45048781  0.96683800  1  0  0.30506  0  3.665206  0  0  0.252813  0  3.934767  0  0  0.268591  0  3.94614  0  1.028757  0  0.172698  0.242366  0  3.927162  0
C  C41  1  0.60951236  0.54932279  0.03281832  1  0  0.306145  0  3.665635  0  0  0.25446  0  3.935699  0  0  0.270231  0  3.94706  0  1.039874  0  0.172366  0.243999  0  3.928132  0
C  C42  1  0.39211032  0.04951770  0.46673123  1  0  0.304633  0  3.665127  0  0  0.253235  0  3.934976  0  0  0.269011  0  3.946311  0  1.031665  0  0.171979  0.242766  0  3.927397  0
C  C43  1  0.90911827  0.95065541  0.53277634  1  0  0.30821  0  3.664133  0  0  0.256717  0  3.934234  0  0  0.272504  0  3.945582  0  1.044367  0  0.173373  0.246267  0  3.926626  0
C  C44  1  0.43433467  0.30104119  0.93166150  1  0  0.309826  0  3.775125  0  0  0.270241  0  4.040072  0  0  0.285968  0  4.055492  0  0.975389  0  0.238754  0.259774  0  4.029855  0
C  C45  1  0.66737679  0.69891394  0.06836099  1  0  0.307549  0  3.776419  0  0  0.268414  0  4.041005  0  0  0.284186  0  4.056394  0  0.972539  0  0.237889  0.257929  0  4.030773  0
C  C46  1  0.48521417  0.19905056  0.43167995  1  0  0.308451  0  3.778335  0  0  0.268759  0  4.043742  0  0  0.284491  0  4.059166  0  0.982184  0  0.238523  0.258295  0  4.033491  0
C  C47  1  0.11654872  0.80104510  0.56830214  1  0  0.307173  0  3.777277  0  0  0.267639  0  4.042066  0  0  0.283414  0  4.057374  0  1.014751  0  0.237827  0.257156  0  4.031894  0
C  C48  1  0.39226445  0.28400855  0.83857399  1  0  0.020702  0  3.826392  0  0  0.013745  0  4.078074  0  0  0.01018  0  4.100245  0  0.56027  0  0.096351  0.015521  0  4.063864  0
C  C49  1  0.51598950  0.71611666  0.16093212  1  0  0.017964  0  3.827782  0  0  0.010871  0  4.079777  0  0  0.007175  0  4.102106  0  0.57529  0  0.095443  0.012754  0  4.065423  0
C  C50  1  0.42622527  0.21608560  0.33856182  1  0  0.018915  0  3.82856  0  0  0.011782  0  4.080934  0  0  0.008175  0  4.103131  0  0.566035  0  0.096265  0.013604  0  4.066683  0
C  C51  1  0.98237531  0.78383519  0.66087628  1  0  0.019386  0  3.829209  0  0  0.011829  0  4.081365  0  0  0.00817  0  4.103652  0  0.561987  0  0.095929  0.013649  0  4.06709  0
C  C52  1  0.24330181  0.36224562  0.81339841  1  0  0.284078  0  3.784758  0  0  0.267344  0  4.066087  0  0  0.282324  0  4.0793  0  0.671877  0  0.16628  0.256949  0  4.057671  0
C  C53  1  0.42043295  0.63796741  0.18563392  1  0  0.286357  0  3.784736  0  0  0.270151  0  4.065543  0  0  0.285116  0  4.078795  0  0.673979  0  0.166797  0.259761  0  4.057093  0
C  C54  1  0.35559573  0.13781977  0.31332091  1  0  0.28638  0  3.785062  0  0  0.269822  0  4.066383  0  0  0.284825  0  4.079569  0  0.661629  0  0.166657  0.259414  0  4.05797  0
C  C55  1  0.80863421  0.86197246  0.68557443  1  0  0.282674  0  3.788832  0  0  0.267272  0  4.06879  0  0  0.282204  0  4.082063  0  0.656311  0  0.165341  0.256916  0  4.060309  0
C  C56  1  0.63697182  0.15648932  0.85087010  1  0  0.236624  0  3.560426  0  0  0.172446  0  3.827534  0  0  0.189611  0  3.836155  0  0.973442  0  0.177165  0.161058  0  3.821782  0
C  C57  1  0.64444971  0.84384668  0.14922043  1  0  0.235712  0  3.558908  0  0  0.171616  0  3.826827  0  0  0.18879  0  3.83545  0  0.98067  0  0.176646  0.160175  0  3.82104  0
C  C58  1  0.54305352  0.34370623  0.35100494  1  0  0.235942  0  3.559279  0  0  0.171668  0  3.826574  0  0  0.188682  0  3.835174  0  0.965454  0  0.17666  0.160331  0  3.820812  0
C  C59  1  0.23853350  0.65605327  0.64906331  1  0  0.235596  0  3.559638  0  0  0.170279  0  3.827166  0  0  0.187395  0  3.835869  0  0.945072  0  0.175844  0.158954  0  3.821379  0
C  C60  1  0.69833365  0.20217027  0.01495647  1  0  0.019212  0  3.610044  0  0  -0.045489  0  3.872269  0  0  -0.040793  0  3.883014  0  0.244298  0  -0.05448  -0.048251  0  3.864422  0
C  C61  1  0.91399673  0.79796052  0.98571393  1  0  0.017105  0  3.608751  0  0  -0.048742  0  3.872991  0  0  -0.044226  0  3.88409  0  0.255491  0  -0.056031  -0.051512  0  3.865317  0
C  C62  1  0.65028927  0.29793266  0.51500567  1  0  0.017916  0  3.612639  0  0  -0.046505  0  3.87471  0  0  -0.042006  0  3.885748  0  0.271008  0  -0.055083  -0.049194  0  3.866849  0
C  C63  1  0.46214233  0.70198095  0.48553386  1  0  0.018751  0  3.608839  0  0  -0.04615  0  3.871423  0  0  -0.04172  0  3.882413  0  0.266316  0  -0.054668  -0.048805  0  3.863664  0
C  C64  1  0.87806351  0.23817668  0.97603373  1  0  -0.098646  0  3.681527  0  0  -0.130944  0  3.934718  0  0  -0.133342  0  3.950137  0  -0.024335  0  -0.175249  -0.129101  0  3.924113  0
C  C65  1  0.09182809  0.76179840  0.02451093  1  0  -0.092954  0  3.677636  0  0  -0.125304  0  3.931752  0  0  -0.127642  0  3.947216  0  -0.023568  0  -0.172839  -0.123509  0  3.921039  0
C  C66  1  0.86600767  0.26185518  0.47596483  1  0  -0.096838  0  3.680376  0  0  -0.129351  0  3.934168  0  0  -0.131712  0  3.949584  0  0.001699  0  -0.173811  -0.127514  0  3.923506  0
C  C67  1  0.60378217  0.73808797  0.52441038  1  0  -0.093723  0  3.679287  0  0  -0.126106  0  3.932963  0  0  -0.128392  0  3.948385  0  -0.038452  0  -0.173234  -0.124272  0  3.922252  0
C  C68  1  0.97696228  0.22569146  0.06248741  1  0  -0.277472  0  3.715706  0  0  -0.344622  0  3.954849  0  0  -0.347376  0  3.968013  0  -0.046769  0  -0.253976  -0.342439  0  3.94581  0
C  C69  1  0.26294934  0.77442257  0.93805354  1  0  -0.277809  0  3.716125  0  0  -0.344514  0  3.955556  0  0  -0.34732  0  3.968504  0  -0.054782  0  -0.253747  -0.342288  0  3.946581  0
C  C70  1  0.95252724  0.27440268  0.56236694  1  0  -0.280176  0  3.715751  0  0  -0.3474  0  3.95462  0  0  -0.350225  0  3.967686  0  -0.113436  0  -0.255051  -0.345168  0  3.945638  0
C  C71  1  0.78768134  0.72549255  0.43808651  1  0  -0.277762  0  3.715067  0  0  -0.34523  0  3.954873  0  0  -0.347982  0  3.967918  0  -0.082286  0  -0.254034  -0.343031  0  3.945872  0
N  N72  1  0.14457474  0.44453185  0.87803321  1  0  -0.391064  0  3.224093  0  0  -0.328822  0  3.514392  0  0  -0.349656  0  3.526505  0  -1.202982  0  -0.33057  -0.314975  0  3.50633  0
N  N73  1  0.46843800  0.55546479  0.12113592  1  0  -0.393951  0  3.222992  0  0  -0.332245  0  3.513396  0  0  -0.353024  0  3.525439  0  -1.206859  0  -0.330856  -0.318445  0  3.505406  0
N  N74  1  0.33923450  0.05548963  0.37790348  1  0  -0.391926  0  3.224656  0  0  -0.329821  0  3.514665  0  0  -0.350635  0  3.52673  0  -1.183636  0  -0.330044  -0.315978  0  3.506625  0
N  N75  1  0.77416853  0.94449744  0.62108794  1  0  -0.391948  0  3.222168  0  0  -0.330516  0  3.512139  0  0  -0.351283  0  3.524156  0  -1.199734  0  -0.330309  -0.316719  0  3.504129  0
N  N76  1  0.33481060  0.38215443  0.99777797  1  0  -0.384694  0  3.22072  0  0  -0.316282  0  3.517476  0  0  -0.336216  0  3.526995  0  -1.192321  0  -0.330691  -0.303132  0  3.511048  0
N  N77  1  0.71476643  0.61769050  0.00222030  1  0  -0.384393  0  3.217214  0  0  -0.315944  0  3.512613  0  0  -0.335909  0  3.522188  0  -1.185887  0  -0.328382  -0.302765  0  3.506127  0
N  N78  1  0.46686674  0.11789260  0.49774444  1  0  -0.383612  0  3.223217  0  0  -0.315365  0  3.520106  0  0  -0.335315  0  3.529664  0  -1.208686  0  -0.330666  -0.302212  0  3.513674  0
N  N79  1  0.08272340  0.88227971  0.50217878  1  0  -0.385513  0  3.216102  0  0  -0.31733  0  3.511964  0  0  -0.337289  0  3.521519  0  -1.224841  0  -0.329646  -0.304158  0  3.505485  0
N  N80  1  0.64975020  0.49095380  0.75268107  1  0  0.685944  0  4.162183  0  0  0.736412  0  4.430024  0  0  0.752305  0  4.45441  0  0.81638  0  0.091199  0.717066  0  4.425457  0
N  N81  1  0.89401487  0.50842721  0.24741120  1  0  0.684685  0  4.169733  0  0  0.736146  0  4.436156  0  0  0.750996  0  4.462383  0  0.829982  0  0.091295  0.716785  0  4.43156  0
N  N82  1  0.89062283  0.00896467  0.25270417  1  0  0.68563  0  4.169166  0  0  0.740143  0  4.43273  0  0  0.753279  0  4.460599  0  0.809333  0  0.092279  0.72078  0  4.428176  0
N  N83  1  0.15270691  0.99151107  0.74729735  1  0  0.687556  0  4.162834  0  0  0.740491  0  4.4275  0  0  0.769219  0  4.433304  0  0.823803  0  0.092678  0.721129  0  4.42295  0
N  N84  1  0.52043400  0.19247977  0.79038120  1  0  -0.358455  0  3.238334  0  0  -0.292171  0  3.544004  0  0  -0.31134  0  3.555927  0  -1.186228  0  -0.351247  -0.27916  0  3.535861  0
N  N85  1  0.50423476  0.80785783  0.20919137  1  0  -0.359946  0  3.236698  0  0  -0.293868  0  3.542615  0  0  -0.313073  0  3.55467  0  -1.189787  0  -0.350883  -0.280844  0  3.534411  0
N  N86  1  0.46267626  0.30766787  0.29045031  1  0  -0.358246  0  3.241105  0  0  -0.292271  0  3.547505  0  0  -0.311422  0  3.559507  0  -1.178824  0  -0.351306  -0.279292  0  3.539369  0
N  N87  1  0.06235519  0.69205888  0.70909311  1  0  -0.358209  0  3.235204  0  0  -0.291988  0  3.541333  0  0  -0.311249  0  3.553482  0  -1.146426  0  -0.349164  -0.278913  0  3.533042  0
N  N88  1  0.59011924  0.21848586  0.93752176  1  0  -0.139202  0  3.466366  0  0  -0.048564  0  3.69223  0  0  -0.067668  0  3.714794  0  -1.216105  0  -0.226922  -0.035884  0  3.676773  0
N  N89  1  0.74595220  0.78158584  0.06288411  1  0  -0.135734  0  3.460274  0  0  -0.044939  0  3.686435  0  0  -0.064024  0  3.708936  0  -1.231757  0  -0.225743  -0.032304  0  3.670984  0
N  N90  1  0.55823915  0.28166896  0.43763118  1  0  -0.139176  0  3.46891  0  0  -0.048388  0  3.694897  0  0  -0.067415  0  3.717487  0  -1.207805  0  -0.2276  -0.035765  0  3.679409  0
N  N91  1  0.27774829  0.71833247  0.56274060  1  0  -0.136663  0  3.462817  0  0  -0.045216  0  3.688191  0  0  -0.064246  0  3.710796  0  -1.221915  0  -0.226469  -0.032605  0  3.672725  0
Cl  Cl92  1  0.18238076  0.35764790  0.70064763  1  0  -0.017283  0  1.38847  0  0  -3.7e-05  0  1.636413  0  0  -0.003107  0  1.626309  0  -0.148295  0  0.079757  0.002015  0  1.643614  0
Cl  Cl93  1  0.24237367  0.64310332  0.29753691  1  0  -0.01762  0  1.385644  0  0  -0.000191  0  1.633054  0  0  -0.003302  0  1.62294  0  -0.138651  0  0.079548  0.001921  0  1.640251  0
Cl  Cl94  1  0.28998301  0.14250213  0.20061087  1  0  -0.017184  0  1.389149  0  0  0.000235  0  1.636772  0  0  -0.002861  0  1.626691  0  -0.142138  0  0.080154  0.002295  0  1.643972  0
Cl  Cl95  1  0.63564971  0.85683815  0.79745184  1  0  -0.016614  0  1.385997  0  0  0.000764  0  1.632765  0  0  -0.0023  0  1.62261  0  -0.140064  0  0.079876  0.002865  0  1.639969  0
O  O96  1  0.55051842  0.46980334  0.70000819  1  0  -0.479146  0  1.772118  0  0  -0.474974  0  1.979943  0  0  -0.487037  0  1.980623  0  -0.562904  0  -0.204035  -0.463235  0  1.982743  0
O  O97  1  0.72203800  0.52922634  0.30004908  1  0  -0.480394  0  1.771203  0  0  -0.476234  0  1.978133  0  0  -0.488028  0  1.979382  0  -0.570202  0  -0.20501  -0.464448  0  1.980891  0
O  O98  1  0.77036814  0.03012153  0.19994555  1  0  -0.479273  0  1.775412  0  0  -0.475826  0  1.981535  0  0  -0.486974  0  1.983174  0  -0.564108  0  -0.203733  -0.46412  0  1.984325  0
O  O99  1  0.00153253  0.97076544  0.80002102  1  0  -0.482551  0  1.768334  0  0  -0.477998  0  1.973991  0  0  -0.494367  0  1.969402  0  -0.568555  0  -0.20552  -0.466212  0  1.976777  0
O  O100  1  0.69209687  0.57956649  0.73753991  1  0  -0.491014  0  1.806496  0  0  -0.47751  0  2.04375  0  0  -0.491048  0  2.038591  0  -0.56741  0  -0.217691  -0.464808  0  2.050384  0
O  O101  1  0.01057362  0.41988639  0.26230059  1  0  -0.489454  0  1.804093  0  0  -0.47645  0  2.040301  0  0  -0.489568  0  2.035636  0  -0.560365  0  -0.217505  -0.463771  0  2.046887  0
O  O102  1  0.02141326  0.92027917  0.23772577  1  0  -0.490927  0  1.808002  0  0  -0.47892  0  2.044113  0  0  -0.491507  0  2.03983  0  -0.558425  0  -0.218225  -0.466208  0  2.05074  0
O  O103  1  0.18090121  0.08000813  0.76216346  1  0  -0.490697  0  1.803494  0  0  -0.478458  0  2.039524  0  0  -0.496171  0  2.029248  0  -0.560987  0  -0.218257  -0.465787  0  2.046167  0
O  O104  1  0.70708257  0.42509735  0.81907180  1  0  -0.478123  0  1.776724  0  0  -0.479664  0  1.997055  0  0  -0.490429  0  1.997177  0  -0.540171  0  -0.201211  -0.468817  0  2.000221  0
O  O105  1  0.95019543  0.57459587  0.18127593  1  0  -0.47969  0  1.780894  0  0  -0.481215  0  2.000127  0  0  -0.491696  0  2.000813  0  -0.554445  0  -0.20206  -0.470349  0  2.003365  0
O  O106  1  0.88214483  0.07488341  0.31902181  1  0  -0.478704  0  1.779437  0  0  -0.481519  0  1.998018  0  0  -0.491276  0  1.999165  0  -0.540931  0  -0.202283  -0.470728  0  2.00132  0
O  O107  1  0.27487292  0.92533522  0.68109932  1  0  -0.479936  0  1.777751  0  0  -0.482239  0  1.996932  0  0  -0.497424  0  1.99184  0  -0.549271  0  -0.202364  -0.471372  0  2.00018  0
