# generated using pymatgen
data_NaH20C17NO4
_symmetry_space_group_name_H-M   'P 1'
_cell_length_a   5.69402099
_cell_length_b   8.74456593
_cell_length_c   16.57813812
_cell_angle_alpha   92.60974686
_cell_angle_beta   90.00212151
_cell_angle_gamma   89.99972365
_symmetry_Int_Tables_number   1
_chemical_formula_structural   NaH20C17NO4
_chemical_formula_sum   'Na2 H40 C34 N2 O8'
_cell_volume   824.59824551
_cell_formula_units_Z   2
loop_
 _symmetry_equiv_pos_site_id
 _symmetry_equiv_pos_as_xyz
  1  'x, y, z'
loop_
 _atom_site_type_symbol
 _atom_site_label
 _atom_site_symmetry_multiplicity
 _atom_site_fract_x
 _atom_site_fract_y
 _atom_site_fract_z
 _atom_site_occupancy
 _atom_site_hle17_bader_spin_density
 _atom_site_hle17_ddec_charge
 _atom_site_hle17_ddec_spin_density
 _atom_site_hle17_ddec_sum_bond_order
 _atom_site_hle17_magmom
 _atom_site_hse06_10hf_bader_spin_density
 _atom_site_hse06_10hf_ddec_charge
 _atom_site_hse06_10hf_ddec_spin_density
 _atom_site_hse06_10hf_ddec_sum_bond_order
 _atom_site_hse06_10hf_magmom
 _atom_site_hse06_bader_spin_density
 _atom_site_hse06_ddec_charge
 _atom_site_hse06_ddec_spin_density
 _atom_site_hse06_ddec_sum_bond_order
 _atom_site_hse06_magmom
 _atom_site_pbe_bader_spin_density
 _atom_site_pbe_cm5_charge
 _atom_site_pbe_ddec_charge
 _atom_site_pbe_ddec_spin_density
 _atom_site_pbe_ddec_sum_bond_order
 _atom_site_pbe_magmom
Na  Na0  1  0.13060521  0.41863482  0.96990975  1  0  0.892913  0  0.425566  0  0  0.84876  0  0.587237  0  0  0.860986  0  0.563181  0  0  0.70866  0.839774  0  0.604479  0
Na  Na1  1  0.63059760  0.58136991  0.03009928  1  0  0.89294  0  0.425511  0  0  0.848778  0  0.587172  0  0  0.861006  0  0.563112  0  0  0.708626  0.839792  0  0.604416  0
H  H2  1  0.84695785  0.46544196  0.65282861  1  0  0.100602  0  0.960461  0  0  0.109546  0  1.02768  0  0  0.112389  0  1.026893  0  0  0.098931  0.107605  0  1.028239  0
H  H3  1  0.34694269  0.53456226  0.34718520  1  0  0.100469  0  0.960572  0  0  0.10947  0  1.027735  0  0  0.112314  0  1.026944  0  0  0.098876  0.107527  0  1.028302  0
H  H4  1  0.20796227  0.60568675  0.77352533  1  0  0.098686  0  0.964272  0  0  0.108538  0  1.028432  0  0  0.1123  0  1.02591  0  0  0.103565  0.105721  0  1.030525  0
H  H5  1  0.70795018  0.39430602  0.22646364  1  0  0.098656  0  0.964216  0  0  0.108452  0  1.028414  0  0  0.112211  0  1.025896  0  0  0.10354  0.105632  0  1.030516  0
H  H6  1  0.81978527  0.69756831  0.39946783  1  0  0.105692  0  0.970776  0  0  0.116373  0  1.033758  0  0  0.119093  0  1.033464  0  0  0.102664  0.114491  0  1.033948  0
H  H7  1  0.31980041  0.30241463  0.60053863  1  0  0.105606  0  0.970795  0  0  0.116325  0  1.033728  0  0  0.119044  0  1.033435  0  0  0.10262  0.114436  0  1.033922  0
H  H8  1  0.19710478  0.86320143  0.52418036  1  0  0.111085  0  0.971829  0  0  0.121737  0  1.035685  0  0  0.124864  0  1.034957  0  0  0.100816  0.119483  0  1.03649  0
H  H9  1  0.69710069  0.13679337  0.47580699  1  0  0.111134  0  0.971723  0  0  0.121748  0  1.035627  0  0  0.124876  0  1.034899  0  0  0.100836  0.119496  0  1.036428  0
H  H10  1  0.94226715  0.56177571  0.52052603  1  0  0.094498  0  0.983032  0  0  0.104513  0  1.046465  0  0  0.105812  0  1.048177  0  0  0.098143  0.103184  0  1.046297  0
H  H11  1  0.44227723  0.43820334  0.47948705  1  0  0.094472  0  0.983018  0  0  0.104495  0  1.04646  0  0  0.105794  0  1.048174  0  0  0.098139  0.103168  0  1.046288  0
H  H12  1  0.11192613  0.77467907  0.66253726  1  0  0.088738  0  0.958323  0  0  0.102088  0  1.017504  0  0  0.105099  0  1.016262  0  0  0.096273  0.099846  0  1.018642  0
H  H13  1  0.61192521  0.22531941  0.33745078  1  0  0.088815  0  0.958256  0  0  0.102065  0  1.017543  0  0  0.105153  0  1.016206  0  0  0.096259  0.099821  0  1.018679  0
H  H14  1  0.36770787  0.22313404  0.72540849  1  0  0.096518  0  0.966627  0  0  0.116319  0  1.032012  0  0  0.11836  0  1.031189  0  0  0.082604  0.11498  0  1.032419  0
H  H15  1  0.86773975  0.77685575  0.27459141  1  0  0.096626  0  0.966679  0  0  0.116423  0  1.032047  0  0  0.118463  0  1.031225  0  0  0.082659  0.115087  0  1.032445  0
H  H16  1  0.21366626  0.34176486  0.79744204  1  0  0.103091  0  0.964673  0  0  0.121303  0  1.033418  0  0  0.123696  0  1.031974  0  0  0.093333  0.119351  0  1.034986  0
H  H17  1  0.71367222  0.65822809  0.20255650  1  0  0.103098  0  0.964758  0  0  0.121316  0  1.033498  0  0  0.12371  0  1.032053  0  0  0.093361  0.119365  0  1.03506  0
H  H18  1  0.41334610  0.20306256  0.83079487  1  0  0.091447  0  0.973191  0  0  0.109894  0  1.041154  0  0  0.111988  0  1.040435  0  0  0.084593  0.108412  0  1.0417  0
H  H19  1  0.91333583  0.79693520  0.16920458  1  0  0.091509  0  0.973204  0  0  0.109942  0  1.041167  0  0  0.112037  0  1.040449  0  0  0.08461  0.108461  0  1.041713  0
H  H20  1  0.24498836  0.00234526  0.32361088  1  0  0.08885  0  0.94396  0  0  0.108703  0  1.005043  0  0  0.108884  0  1.005175  0  0  0.102681  0.108466  0  1.005029  0
H  H21  1  0.74499301  0.99765644  0.67638441  1  0  0.088921  0  0.943963  0  0  0.108783  0  1.005015  0  0  0.108966  0  1.005143  0  0  0.10272  0.108546  0  1.005004  0
H  H22  1  0.26911901  0.05270537  0.42929551  1  0  0.072429  0  0.988285  0  0  0.085847  0  1.062745  0  0  0.084831  0  1.065711  0  0  0.091376  0.086596  0  1.060545  0
H  H23  1  0.76909893  0.94730036  0.57070193  1  0  0.072435  0  0.988358  0  0  0.085875  0  1.062787  0  0  0.084859  0  1.065753  0  0  0.091406  0.086623  0  1.060586  0
H  H24  1  0.09244957  0.89274830  0.39583674  1  0  0.078536  0  0.953686  0  0  0.093853  0  1.023979  0  0  0.094047  0  1.024042  0  0  0.094864  0.093554  0  1.024243  0
H  H25  1  0.59243458  0.10726004  0.60415965  1  0  0.078505  0  0.953696  0  0  0.093798  0  1.02402  0  0  0.093993  0  1.024081  0  0  0.094844  0.093502  0  1.024278  0
H  H26  1  0.27409818  0.90268583  0.94297880  1  0  0.1074  0  0.955793  0  0  0.12464  0  1.021842  0  0  0.125904  0  1.021259  0  0  0.109646  0.123735  0  1.022222  0
H  H27  1  0.77410567  0.09731089  0.05702923  1  0  0.107348  0  0.955815  0  0  0.12466  0  1.021806  0  0  0.125924  0  1.02122  0  0  0.109623  0.123757  0  1.022189  0
H  H28  1  0.15244615  0.74121562  0.88722682  1  0  0.109535  0  0.961775  0  0  0.128578  0  1.027128  0  0  0.129517  0  1.026619  0  0  0.111617  0.127792  0  1.027662  0
H  H29  1  0.65248146  0.25879874  0.11276886  1  0  0.109664  0  0.96175  0  0  0.128649  0  1.027171  0  0  0.129582  0  1.026651  0  0  0.111673  0.127863  0  1.02771  0
H  H30  1  0.02988570  0.80228249  0.98252621  1  0  0.096325  0  0.936821  0  0  0.117499  0  1.001633  0  0  0.118442  0  1.00044  0  0  0.113197  0.116649  0  1.002653  0
H  H31  1  0.52990232  0.19771748  0.01747087  1  0  0.096293  0  0.936831  0  0  0.117473  0  1.001665  0  0  0.118409  0  1.000473  0  0  0.113175  0.116628  0  1.002681  0
H  H32  1  0.65783449  0.96802641  0.81371704  1  0  0.092689  0  0.950379  0  0  0.11383  0  1.015273  0  0  0.11423  0  1.015239  0  0  0.106476  0.113296  0  1.01559  0
H  H33  1  0.15787109  0.03199266  0.18628047  1  0  0.092729  0  0.950303  0  0  0.113848  0  1.015219  0  0  0.11424  0  1.01519  0  0  0.106517  0.113315  0  1.015539  0
H  H34  1  0.65502310  0.80319264  0.87338612  1  0  0.112973  0  0.94042  0  0  0.133018  0  1.00196  0  0  0.133813  0  1.002486  0  0  0.112786  0.132309  0  1.001576  0
H  H35  1  0.15502216  0.19681835  0.12660944  1  0  0.112972  0  0.940388  0  0  0.133045  0  1.001917  0  0  0.13382  0  1.002466  0  0  0.112825  0.132332  0  1.001536  0
H  H36  1  0.83879417  0.80619381  0.78655375  1  0  0.096545  0  0.93931  0  0  0.116452  0  1.004588  0  0  0.116218  0  1.00603  0  0  0.103098  0.116473  0  1.003622  0
H  H37  1  0.33880857  0.19383193  0.21344860  1  0  0.096643  0  0.93921  0  0  0.116548  0  1.004472  0  0  0.116309  0  1.005914  0  0  0.103134  0.11657  0  1.003502  0
H  H38  1  0.74787035  0.34821485  0.76678644  1  0  0.069905  0  0.923346  0  0  0.082167  0  0.982434  0  0  0.084437  0  0.980842  0  0  0.097728  0.080503  0  0.983779  0
H  H39  1  0.24788199  0.65176978  0.23321805  1  0  0.069904  0  0.923355  0  0  0.082142  0  0.982397  0  0  0.084408  0  0.980807  0  0  0.097744  0.080492  0  0.98375  0
H  H40  1  0.83824711  0.16204770  0.86912744  1  0  0.026474  0  0.938682  0  0  0.037451  0  1.008678  0  0  0.038693  0  1.004464  0  0  0.120908  0.036187  0  1.011928  0
H  H41  1  0.33827204  0.83797575  0.13087848  1  0  0.026314  0  0.938685  0  0  0.037299  0  1.008708  0  0  0.03857  0  1.004466  0  0  0.120881  0.036031  0  1.011962  0
C  C42  1  0.63365803  0.62660513  0.59048039  1  0  0.031743  0  3.8274  0  0  0.049075  0  4.053075  0  0  0.047096  0  4.077286  0  0  -0.019332  0.050434  0  4.036919  0
C  C43  1  0.13365469  0.37339278  0.40952242  1  0  0.031615  0  3.827488  0  0  0.048871  0  4.053195  0  0  0.046891  0  4.077404  0  0  -0.019365  0.050238  0  4.037035  0
C  C44  1  0.50197179  0.78991389  0.45480589  1  0  0.260037  0  3.845405  0  0  0.251714  0  4.105975  0  0  0.263622  0  4.121215  0  0  0.075071  0.243332  0  4.095446  0
C  C45  1  0.00196642  0.21008313  0.54519574  1  0  0.260075  0  3.84535  0  0  0.251853  0  4.105794  0  0  0.263764  0  4.121033  0  0  0.075218  0.24347  0  4.095261  0
C  C46  1  0.58101175  0.40501011  0.78308800  1  0  -0.112504  0  3.671153  0  0  -0.113389  0  3.902095  0  0  -0.118381  0  3.916306  0  0  -0.088276  -0.109863  0  3.892099  0
C  C47  1  0.08102212  0.59497965  0.21691234  1  0  -0.112491  0  3.671077  0  0  -0.113158  0  3.901679  0  0  -0.118132  0  3.91586  0  0  -0.088304  -0.109713  0  3.891813  0
C  C48  1  0.68629607  0.53359567  0.65580494  1  0  -0.17008  0  3.721946  0  0  -0.197531  0  3.972943  0  0  -0.199836  0  3.993565  0  0  -0.094555  -0.196277  0  3.95951  0
C  C49  1  0.18629199  0.46640123  0.34420011  1  0  -0.169805  0  3.721796  0  0  -0.19728  0  3.972776  0  0  -0.199586  0  3.993401  0  0  -0.09439  -0.196023  0  3.959341  0
C  C50  1  0.61533286  0.48080161  0.86797544  1  0  0.6822  0  3.90563  0  0  0.643157  0  4.201644  0  0  0.674191  0  4.194609  0  0  0.190243  0.622334  0  4.204941  0
C  C51  1  0.11533089  0.51918555  0.13202557  1  0  0.682017  0  3.905555  0  0  0.642885  0  4.201622  0  0  0.673915  0  4.194593  0  0  0.190091  0.62209  0  4.204913  0
C  C52  1  0.53403532  0.52169769  0.72020483  1  0  0.083245  0  3.733155  0  0  0.099948  0  3.969548  0  0  0.099783  0  3.994406  0  0  -0.01274  0.099964  0  3.952598  0
C  C53  1  0.03403683  0.47829208  0.27979256  1  0  0.083341  0  3.733012  0  0  0.099989  0  3.969371  0  0  0.099817  0  3.994231  0  0  -0.012782  0.100009  0  3.952458  0
C  C54  1  0.32738921  0.61326886  0.72240061  1  0  -0.113016  0  3.737374  0  0  -0.133022  0  3.986949  0  0  -0.134606  0  4.007316  0  0  -0.093399  -0.131472  0  3.972844  0
C  C55  1  0.82738607  0.38672566  0.27759153  1  0  -0.113105  0  3.737478  0  0  -0.133063  0  3.987059  0  0  -0.13465  0  4.007455  0  0  -0.093348  -0.131508  0  3.972954  0
C  C56  1  0.71363901  0.70386112  0.45417874  1  0  -0.187485  0  3.76933  0  0  -0.210781  0  4.031179  0  0  -0.21549  0  4.048438  0  0  -0.105836  -0.20741  0  4.019481  0
C  C57  1  0.21363800  0.29613070  0.54582641  1  0  -0.187398  0  3.769272  0  0  -0.210732  0  4.031124  0  0  -0.215437  0  4.048373  0  0  -0.105842  -0.207355  0  4.019429  0
C  C58  1  0.35933328  0.79723475  0.52267008  1  0  -0.266502  0  3.730096  0  0  -0.289995  0  3.976894  0  0  -0.2971  0  3.99703  0  0  -0.115813  -0.285055  0  3.963953  0
C  C59  1  0.85932656  0.20276283  0.47732409  1  0  -0.266685  0  3.729973  0  0  -0.290239  0  3.97676  0  0  -0.297348  0  3.9969  0  0  -0.115971  -0.285303  0  3.963823  0
C  C60  1  0.42056474  0.71386395  0.59131204  1  0  0.074903  0  3.815147  0  0  0.092417  0  4.037265  0  0  0.09388  0  4.061801  0  0  -0.010599  0.091495  0  4.020542  0
C  C61  1  0.92056918  0.28612481  0.40868287  1  0  0.074959  0  3.815224  0  0  0.092633  0  4.037108  0  0  0.094091  0  4.061663  0  0  -0.010549  0.091709  0  4.020387  0
C  C62  1  0.77935709  0.62703238  0.52099996  1  0  -0.092446  0  3.768635  0  0  -0.111574  0  4.018066  0  0  -0.110474  0  4.037229  0  0  -0.089344  -0.112429  0  4.006025  0
C  C63  1  0.27935077  0.37296105  0.47900973  1  0  -0.092426  0  3.76863  0  0  -0.111581  0  4.018099  0  0  -0.110482  0  4.037265  0  0  -0.089327  -0.112447  0  4.006055  0
C  C64  1  0.27385250  0.70772483  0.66046981  1  0  -0.123874  0  3.755121  0  0  -0.141176  0  4.00105  0  0  -0.143606  0  4.021037  0  0  -0.097283  -0.139459  0  3.987252  0
C  C65  1  0.77385609  0.29227068  0.33951949  1  0  -0.123952  0  3.755209  0  0  -0.141213  0  4.001067  0  0  -0.143702  0  4.021024  0  0  -0.09732  -0.139491  0  3.987265  0
C  C66  1  0.38285934  0.28591986  0.78403781  1  0  -0.305596  0  3.707124  0  0  -0.387374  0  3.950034  0  0  -0.389632  0  3.958747  0  0  -0.244715  -0.385495  0  3.943987  0
C  C67  1  0.88286741  0.71407258  0.21595952  1  0  -0.30578  0  3.70739  0  0  -0.387612  0  3.950212  0  0  -0.389878  0  3.958921  0  0  -0.244775  -0.385705  0  3.944176  0
C  C68  1  0.25367045  0.95742075  0.38401849  1  0  -0.076613  0  3.652586  0  0  -0.171102  0  3.91594  0  0  -0.164004  0  3.920731  0  0  -0.144925  -0.175673  0  3.91201  0
C  C69  1  0.75365895  0.04258689  0.61597861  1  0  -0.076713  0  3.652658  0  0  -0.171201  0  3.91603  0  0  -0.164101  0  3.920818  0  0  -0.144992  -0.175775  0  3.912097  0
C  C70  1  0.96959640  0.09510489  0.90201319  1  0  0.388586  0  3.867862  0  0  0.31925  0  4.154346  0  0  0.346402  0  4.155715  0  0  0.171625  0.301189  0  4.152921  0
C  C71  1  0.46961233  0.90491370  0.09799197  1  0  0.389182  0  3.867473  0  0  0.319719  0  4.153946  0  0  0.346851  0  4.155314  0  0  0.171702  0.301667  0  4.152516  0
C  C72  1  0.11226136  0.84109281  0.92699803  1  0  -0.173081  0  3.642916  0  0  -0.275505  0  3.89001  0  0  -0.271279  0  3.898767  0  0  -0.128055  -0.277991  0  3.88409  0
C  C73  1  0.61227667  0.15891831  0.07300357  1  0  -0.17307  0  3.642806  0  0  -0.275612  0  3.889889  0  0  -0.271371  0  3.898641  0  0  -0.128081  -0.278103  0  3.883975  0
C  C74  1  0.76645929  0.87655069  0.83731841  1  0  -0.170155  0  3.666715  0  0  -0.273197  0  3.914759  0  0  -0.269805  0  3.926632  0  0  -0.126475  -0.275062  0  3.906521  0
C  C75  1  0.26647767  0.12347100  0.16267883  1  0  -0.170216  0  3.666639  0  0  -0.27335  0  3.9147  0  0  -0.269927  0  3.926576  0  0  -0.126596  -0.275217  0  3.906466  0
N  N76  1  0.95422870  0.94366029  0.88661370  1  0  -0.088007  0  3.502625  0  0  0.016886  0  3.734125  0  0  -0.003504  0  3.759448  0  0  -0.282211  0.030367  0  3.716483  0
N  N77  1  0.45424780  0.05636021  0.11338991  1  0  -0.088342  0  3.502676  0  0  0.016838  0  3.733938  0  0  -0.003556  0  3.759263  0  0  -0.282243  0.030313  0  3.716301  0
O  O78  1  0.43323958  0.52702140  0.90651336  1  0  -0.770266  0  1.942621  0  0  -0.721714  0  2.189249  0  0  -0.74367  0  2.17546  0  0  -0.482199  -0.705821  0  2.197716  0
O  O79  1  0.93323145  0.47295281  0.09348888  1  0  -0.77014  0  1.942559  0  0  -0.72157  0  2.189181  0  0  -0.743534  0  2.175409  0  0  -0.482125  -0.705665  0  2.197598  0
O  O80  1  0.82250349  0.49291746  0.89570709  1  0  -0.756741  0  1.914049  0  0  -0.716623  0  2.161681  0  0  -0.73843  0  2.1488  0  0  -0.453438  -0.701659  0  2.17034  0
O  O81  1  0.32249663  0.50707468  0.10429411  1  0  -0.756769  0  1.914129  0  0  -0.716605  0  2.161717  0  0  -0.7384  0  2.148816  0  0  -0.453441  -0.701645  0  2.170366  0
O  O82  1  0.45682932  0.86115044  0.38459610  1  0  -0.260299  0  2.320717  0  0  -0.184906  0  2.55592  0  0  -0.202291  0  2.557241  0  0  -0.196717  -0.172466  0  2.554042  0
O  O83  1  0.95682454  0.13885180  0.61540404  1  0  -0.260196  0  2.320892  0  0  -0.184842  0  2.556077  0  0  -0.202228  0  2.557401  0  0  -0.196692  -0.172395  0  2.554194  0
O  O84  1  0.11654210  0.15853527  0.94835509  1  0  -0.58895  0  2.00104  0  0  -0.54566  0  2.246337  0  0  -0.566471  0  2.238972  0  0  -0.384961  -0.53139  0  2.250796  0
O  O85  1  0.61654701  0.84147254  0.05165120  1  0  -0.589183  0  2.000727  0  0  -0.545869  0  2.246033  0  0  -0.566686  0  2.238686  0  0  -0.384962  -0.531595  0  2.250474  0
