# generated using pymatgen
data_Zn2H16C22N2O9
_symmetry_space_group_name_H-M   'P 1'
_cell_length_a   9.70342701
_cell_length_b   11.01330168
_cell_length_c   11.87300000
_cell_angle_alpha   106.58965771
_cell_angle_beta   93.14701918
_cell_angle_gamma   109.43447068
_symmetry_Int_Tables_number   1
_chemical_formula_structural   Zn2H16C22N2O9
_chemical_formula_sum   'Zn4 H32 C44 N4 O18'
_cell_volume   1130.84521736
_cell_formula_units_Z   2
loop_
 _symmetry_equiv_pos_site_id
 _symmetry_equiv_pos_as_xyz
  1  'x, y, z'
loop_
 _atom_site_type_symbol
 _atom_site_label
 _atom_site_symmetry_multiplicity
 _atom_site_fract_x
 _atom_site_fract_y
 _atom_site_fract_z
 _atom_site_occupancy
 _atom_site_hle17_bader_spin_density
 _atom_site_hle17_ddec_charge
 _atom_site_hle17_ddec_spin_density
 _atom_site_hle17_ddec_sum_bond_order
 _atom_site_hle17_magmom
 _atom_site_hse06_10hf_bader_spin_density
 _atom_site_hse06_10hf_ddec_charge
 _atom_site_hse06_10hf_ddec_spin_density
 _atom_site_hse06_10hf_ddec_sum_bond_order
 _atom_site_hse06_10hf_magmom
 _atom_site_hse06_bader_spin_density
 _atom_site_hse06_ddec_charge
 _atom_site_hse06_ddec_spin_density
 _atom_site_hse06_ddec_sum_bond_order
 _atom_site_hse06_magmom
 _atom_site_pbe_bader_charge
 _atom_site_pbe_bader_spin_density
 _atom_site_pbe_cm5_charge
 _atom_site_pbe_ddec_charge
 _atom_site_pbe_ddec_spin_density
 _atom_site_pbe_ddec_sum_bond_order
 _atom_site_pbe_magmom
Zn  Zn0  1  0.97335344  0.72906905  0.19460287  1  0  1.096803  0  1.765021  0  0  0.908386  0  2.242076  0  0  0.960177  0  2.179079  0  1.291725  0  0.698201  0.868798  0  2.289456  0
Zn  Zn1  1  0.02664518  0.27093089  0.80539604  1  0  1.096795  0  1.765031  0  0  0.908369  0  2.242103  0  0  0.960164  0  2.179105  0  1.291752  0  0.698207  0.868783  0  2.289482  0
Zn  Zn2  1  0.79787976  0.09984293  0.06029766  1  0  1.116287  0  1.709337  0  0  0.934669  0  2.171914  0  0  0.983476  0  2.112706  0  1.29794  0  0.708053  0.900385  0  2.213062  0
Zn  Zn3  1  0.20211989  0.90015701  0.93970298  1  0  1.116258  0  1.70936  0  0  0.934621  0  2.171948  0  0  0.983429  0  2.112738  0  1.297943  0  0.708043  0.900328  0  2.21309  0
H  H4  1  0.75159484  0.22205007  0.90567712  1  0  0.438169  0  0.855973  0  0  0.406499  0  0.919833  0  0  0.416731  0  0.905135  0  0.649803  0  0.297426  0.399013  0  0.930701  0
H  H5  1  0.24840463  0.77794682  0.09432186  1  0  0.438194  0  0.855936  0  0  0.406494  0  0.919833  0  0  0.416726  0  0.905135  0  0.649321  0  0.297426  0.399008  0  0.930701  0
H  H6  1  0.60259064  0.16502719  0.96364299  1  0  0.444592  0  0.856966  0  0  0.411737  0  0.923597  0  0  0.422555  0  0.907904  0  0.670627  0  0.297478  0.40374  0  0.935216  0
H  H7  1  0.39740717  0.83497071  0.03635619  1  0  0.444591  0  0.856973  0  0  0.411727  0  0.923617  0  0  0.422546  0  0.907924  0  0.670632  0  0.297474  0.403732  0  0.935233  0
H  H8  1  0.41488261  0.70605787  0.19769090  1  0  0.104257  0  0.952751  0  0  0.112828  0  1.018192  0  0  0.11743  0  1.013653  0  0.111319  0  0.107677  0.109323  0  1.022178  0
H  H9  1  0.58511785  0.29394410  0.80231032  1  0  0.104276  0  0.952767  0  0  0.112846  0  1.018212  0  0  0.117444  0  1.013685  0  0.111414  0  0.107681  0.10934  0  1.022196  0
H  H10  1  0.59033312  0.38736921  0.11154053  1  0  0.109745  0  0.957325  0  0  0.116433  0  1.02549  0  0  0.120445  0  1.022027  0  0.124574  0  0.108611  0.113459  0  1.027873  0
H  H11  1  0.40966756  0.61263073  0.88845763  1  0  0.109759  0  0.957328  0  0  0.116445  0  1.025485  0  0  0.120457  0  1.022023  0  0.124979  0  0.108611  0.11347  0  1.027873  0
H  H12  1  0.05688778  0.00226236  0.17590146  1  0  0.103744  0  0.949878  0  0  0.109428  0  1.014775  0  0  0.112374  0  1.011941  0  0.168033  0  0.124469  0.107218  0  1.016874  0
H  H13  1  0.94311309  0.99774063  0.82410172  1  0  0.103728  0  0.949894  0  0  0.109415  0  1.014794  0  0  0.112358  0  1.011964  0  0.167997  0  0.124465  0.107205  0  1.016893  0
H  H14  1  0.23431749  0.23308518  0.28763327  1  0  0.113155  0  0.955277  0  0  0.120383  0  1.019558  0  0  0.123271  0  1.019377  0  0.103192  0  0.106032  0.11829  0  1.019807  0
H  H15  1  0.76568382  0.76691374  0.71236970  1  0  0.113101  0  0.955345  0  0  0.120346  0  1.019617  0  0  0.123216  0  1.019456  0  0.103191  0  0.106008  0.118253  0  1.019866  0
H  H16  1  0.27693990  0.09253095  0.58811898  1  0  0.121237  0  0.973786  0  0  0.129731  0  1.037119  0  0  0.132847  0  1.036708  0  0.142018  0  0.106767  0.127474  0  1.037548  0
H  H17  1  0.72305998  0.90746695  0.41188450  1  0  0.121265  0  0.973748  0  0  0.129763  0  1.037077  0  0  0.132878  0  1.036667  0  0.142032  0  0.106779  0.127505  0  1.037507  0
H  H18  1  0.10288349  0.86322072  0.46105914  1  0  0.075214  0  0.922843  0  0  0.088949  0  0.976539  0  0  0.091188  0  0.975183  0  0.069397  0  0.118746  0.087074  0  0.977919  0
H  H19  1  0.89711369  0.13677820  0.53893943  1  0  0.07522  0  0.922789  0  0  0.08891  0  0.976536  0  0  0.091147  0  0.975185  0  0.069403  0  0.118752  0.087033  0  0.977918  0
H  H20  1  0.37124806  0.36036330  0.59921879  1  0  0.089341  0  0.952396  0  0  0.106196  0  1.014854  0  0  0.106677  0  1.015523  0  0.04304  0  0.099061  0.105826  0  1.014427  0
H  H21  1  0.62875302  0.63963766  0.40078218  1  0  0.089292  0  0.952443  0  0  0.106154  0  1.014897  0  0  0.106634  0  1.015565  0  0.043139  0  0.099052  0.105785  0  1.014469  0
H  H22  1  0.40741285  0.38596744  0.46108491  1  0  0.076594  0  0.93443  0  0  0.095307  0  0.99435  0  0  0.096459  0  0.994084  0  0.035652  0  0.094964  0.094446  0  0.994565  0
H  H23  1  0.59258743  0.61403148  0.53891465  1  0  0.076584  0  0.93441  0  0  0.095296  0  0.994339  0  0  0.096447  0  0.994071  0  0.035641  0  0.094961  0.094436  0  0.994552  0
H  H24  1  0.63114910  0.40125668  0.58948136  1  0  0.08631  0  0.923936  0  0  0.105285  0  0.979578  0  0  0.106079  0  0.979958  0  0.047456  0  0.099285  0.104659  0  0.979346  0
H  H25  1  0.36885198  0.59874427  0.41051878  1  0  0.086308  0  0.923979  0  0  0.105282  0  0.979615  0  0  0.106075  0  0.979997  0  0.047467  0  0.099285  0.104655  0  0.979382  0
H  H26  1  0.54107534  0.23239650  0.58695818  1  0  0.085234  0  0.928464  0  0  0.103399  0  0.988721  0  0  0.104557  0  0.988213  0  0.058131  0  0.098897  0.102585  0  0.989043  0
H  H27  1  0.45892494  0.76760242  0.41304222  1  0  0.08525  0  0.928489  0  0  0.103408  0  0.988732  0  0  0.104564  0  0.988226  0  0.058148  0  0.098895  0.102593  0  0.989058  0
H  H28  1  0.80344815  0.35884556  0.21585831  1  0  0.101987  0  0.94323  0  0  0.110191  0  1.006848  0  0  0.113184  0  1.003501  0  0.162649  0  0.123612  0.107774  0  1.009757  0
H  H29  1  0.19655109  0.64115336  0.78414036  1  0  0.101974  0  0.943236  0  0  0.110178  0  1.006855  0  0  0.113171  0  1.003509  0  0.162632  0  0.123606  0.107762  0  1.009762  0
H  H30  1  0.71139298  0.44926165  0.40089516  1  0  0.108254  0  0.947766  0  0  0.120865  0  1.003815  0  0  0.123742  0  1.003864  0  0.048392  0  0.108578  0.118761  0  1.004027  0
H  H31  1  0.28860730  0.55073727  0.59910356  1  0  0.108252  0  0.947768  0  0  0.120863  0  1.003819  0  0  0.123739  0  1.003871  0  0.048768  0  0.108587  0.118759  0  1.004031  0
H  H32  1  0.51780763  0.03742559  0.40766699  1  0  0.099623  0  0.957198  0  0  0.110428  0  1.019308  0  0  0.113212  0  1.019518  0  0.073202  0  0.104198  0.108543  0  1.019171  0
H  H33  1  0.48219059  0.96257333  0.59233248  1  0  0.099636  0  0.957197  0  0  0.110436  0  1.019309  0  0  0.113224  0  1.019515  0  0.073162  0  0.104194  0.10854  0  1.019184  0
H  H34  1  0.61643499  0.96194264  0.22095531  1  0  0.098339  0  0.956408  0  0  0.105283  0  1.021873  0  0  0.108364  0  1.018204  0  0.166336  0  0.120365  0.10272  0  1.024992  0
H  H35  1  0.38356322  0.03805628  0.77904415  1  0  0.098364  0  0.956391  0  0  0.105289  0  1.021877  0  0  0.108373  0  1.018209  0  0.166347  0  0.120359  0.102726  0  1.024998  0
C  C36  1  0.39687407  0.59811459  0.16721611  1  0  -0.049015  0  3.695997  0  0  -0.087824  0  3.950359  0  0  -0.08319  0  3.967017  0  -0.016751  0  -0.070436  -0.091533  0  3.940857  0
C  C37  1  0.60312598  0.40188636  0.83278314  1  0  -0.049056  0  3.696085  0  0  -0.087874  0  3.950451  0  0  -0.083241  0  3.967111  0  -0.016928  0  -0.070453  -0.091581  0  3.940945  0
C  C38  1  0.25218874  0.50245764  0.13532491  1  0  -0.083675  0  3.707119  0  0  -0.068736  0  3.946913  0  0  -0.077663  0  3.968319  0  -0.035387  0  -0.01399  -0.062681  0  3.932347  0
C  C39  1  0.74781131  0.49754331  0.86467433  1  0  -0.083604  0  3.707222  0  0  -0.068704  0  3.947042  0  0  -0.077635  0  3.968457  0  -0.035294  0  -0.013983  -0.062643  0  3.932468  0
C  C40  1  0.22939222  0.36249138  0.09405792  1  0  -0.037129  0  3.645431  0  0  -0.033489  0  3.88059  0  0  -0.032027  0  3.896603  0  0.017555  0  0.011438  -0.033663  0  3.869407  0
C  C41  1  0.77060990  0.63750957  0.90594142  1  0  -0.037273  0  3.64559  0  0  -0.03359  0  3.880738  0  0  -0.032129  0  3.89675  0  0.01726  0  0.011441  -0.033767  0  3.869557  0
C  C42  1  0.35257085  0.32148610  0.08402740  1  0  -0.091192  0  3.723687  0  0  -0.074597  0  3.963625  0  0  -0.084107  0  3.985415  0  -0.046446  0  -0.015378  -0.068924  0  3.948934  0
C  C43  1  0.64743167  0.67851587  0.91597307  1  0  -0.091086  0  3.723567  0  0  -0.074498  0  3.963489  0  0  -0.084005  0  3.985281  0  -0.046227  0  -0.015386  -0.068829  0  3.948805  0
C  C44  1  0.49585694  0.41963938  0.11960209  1  0  -0.048412  0  3.695408  0  0  -0.0883  0  3.94824  0  0  -0.08374  0  3.966111  0  -0.054046  0  -0.070906  -0.089927  0  3.935373  0
C  C45  1  0.50414374  0.58036056  0.88039522  1  0  -0.048515  0  3.695401  0  0  -0.088407  0  3.948221  0  0  -0.083848  0  3.966092  0  -0.054515  0  -0.070942  -0.090033  0  3.935354  0
C  C46  1  0.51924327  0.55798821  0.16207672  1  0  -0.075779  0  3.770942  0  0  -0.049591  0  4.00796  0  0  -0.059887  0  4.031888  0  -0.02079  0  -0.022679  -0.043315  0  3.992583  0
C  C47  1  0.48075679  0.44201274  0.83792168  1  0  -0.075756  0  3.771019  0  0  -0.049525  0  4.00797  0  0  -0.059822  0  4.031899  0  -0.020624  0  -0.022663  -0.043251  0  3.992593  0
C  C48  1  0.67345541  0.66310252  0.19698934  1  0  0.630128  0  3.944629  0  0  0.580969  0  4.24093  0  0  0.614231  0  4.235469  0  1.551545  0  0.197597  0.558286  0  4.243675  0
C  C49  1  0.32654424  0.33689741  0.80300878  1  0  0.630141  0  3.944698  0  0  0.580968  0  4.240996  0  0  0.614232  0  4.235534  0  1.55158  0  0.197608  0.558286  0  4.243739  0
C  C50  1  0.12245845  0.54885536  0.14726870  1  0  0.641083  0  3.910514  0  0  0.592249  0  4.200987  0  0  0.625557  0  4.195693  0  1.589281  0  0.203801  0.569572  0  4.203566  0
C  C51  1  0.87753873  0.45114356  0.85273072  1  0  0.641088  0  3.910663  0  0  0.592254  0  4.201139  0  0  0.625564  0  4.195843  0  1.589255  0  0.203804  0.569574  0  4.203721  0
C  C52  1  0.07434651  0.25865575  0.05907428  1  0  0.70523  0  3.88684  0  0  0.643676  0  4.188666  0  0  0.681334  0  4.175917  0  1.624606  0  0.2225  0.617201  0  4.197384  0
C  C53  1  0.92565417  0.74134419  0.94092472  1  0  0.705259  0  3.886881  0  0  0.64366  0  4.188757  0  0  0.68132  0  4.176007  0  1.624981  0  0.222447  0.617185  0  4.197476  0
C  C54  1  0.33622510  0.17500131  0.03226424  1  0  0.659001  0  3.904063  0  0  0.604313  0  4.198144  0  0  0.638795  0  4.191713  0  1.59384  0  0.211197  0.5807  0  4.202044  0
C  C55  1  0.66377599  0.82499964  0.96773590  1  0  0.659009  0  3.904111  0  0  0.604317  0  4.198194  0  0  0.638795  0  4.19177  0  1.593828  0  0.211221  0.580706  0  4.202095  0
C  C56  1  0.10896611  0.02548106  0.26685427  1  0  0.16089  0  3.648719  0  0  0.129186  0  3.894931  0  0  0.138055  0  3.911231  0  0.396166  0  0.056068  0.123224  0  3.88403  0
C  C57  1  0.89103538  0.97452092  0.73314784  1  0  0.160858  0  3.648653  0  0  0.129126  0  3.894908  0  0  0.137997  0  3.911206  0  0.396141  0  0.056064  0.123164  0  3.884007  0
C  C58  1  0.20957733  0.15476010  0.33045651  1  0  -0.162119  0  3.687678  0  0  -0.178837  0  3.929992  0  0  -0.187468  0  3.95169  0  0.006703  0  -0.081518  -0.173245  0  3.91572  0
C  C59  1  0.79042295  0.84523882  0.66954726  1  0  -0.161998  0  3.687714  0  0  -0.178749  0  3.929993  0  0  -0.187366  0  3.951704  0  0.006706  0  -0.081493  -0.173157  0  3.915723  0
C  C60  1  0.27788029  0.18112413  0.44593666  1  0  0.152248  0  3.723733  0  0  0.169552  0  3.958245  0  0  0.174347  0  3.981657  0  0.018994  0  0.011638  0.166537  0  3.942229  0
C  C61  1  0.72212062  0.81887377  0.55406434  1  0  0.152143  0  3.723873  0  0  0.169528  0  3.958278  0  0  0.174322  0  3.981686  0  0.019076  0  0.011637  0.166513  0  3.942263  0
C  C62  1  0.23454159  0.07545033  0.49567435  1  0  -0.184098  0  3.706526  0  0  -0.202091  0  3.955716  0  0  -0.211369  0  3.979033  0  0.028479  0  -0.089232  -0.196109  0  3.939781  0
C  C63  1  0.76545806  0.92454961  0.50432713  1  0  -0.184054  0  3.706556  0  0  -0.202071  0  3.955709  0  0  -0.211349  0  3.979027  0  0.028475  0  -0.089221  -0.196088  0  3.939773  0
C  C64  1  0.13540420  0.94830744  0.42605251  1  0  0.126272  0  3.742696  0  0  0.093499  0  3.99684  0  0  0.100605  0  4.016518  0  0.392036  0  0.043653  0.089094  0  3.982891  0
C  C65  1  0.86459339  0.05169249  0.57394804  1  0  0.126271  0  3.742672  0  0  0.093526  0  3.996835  0  0  0.100632  0  4.016513  0  0.392026  0  0.043657  0.089122  0  3.982885  0
C  C66  1  0.39855808  0.31538668  0.51214228  1  0  -0.154903  0  3.672698  0  0  -0.199629  0  3.925997  0  0  -0.200793  0  3.93722  0  0.001858  0  -0.153037  -0.198615  0  3.918056  0
C  C67  1  0.60144301  0.68461428  0.48785870  1  0  -0.154832  0  3.672735  0  0  -0.199574  0  3.925969  0  0  -0.20073  0  3.937183  0  0.001738  0  -0.153045  -0.19856  0  3.918028  0
C  C68  1  0.55055837  0.30146462  0.53435598  1  0  -0.151256  0  3.67414  0  0  -0.195945  0  3.928557  0  0  -0.197248  0  3.939883  0  -0.01642  0  -0.151995  -0.194791  0  3.920387  0
C  C69  1  0.44944335  0.69853532  0.46564476  1  0  -0.151285  0  3.674232  0  0  -0.195953  0  3.928624  0  0  -0.197261  0  3.939953  0  -0.016427  0  -0.151971  -0.194799  0  3.920454  0
C  C70  1  0.73794820  0.29065533  0.26041370  1  0  0.144531  0  3.678251  0  0  0.111194  0  3.927669  0  0  0.119432  0  3.945342  0  0.440109  0  0.054641  0.10591  0  3.91577  0
C  C71  1  0.26205002  0.70934359  0.73958661  1  0  0.144516  0  3.678221  0  0  0.111154  0  3.927648  0  0  0.119395  0  3.945322  0  0.440163  0  0.054602  0.105871  0  3.915748  0
C  C72  1  0.68680293  0.34018719  0.36434920  1  0  -0.175618  0  3.706108  0  0  -0.19115  0  3.948205  0  0  -0.200941  0  3.971296  0  0.00692  0  -0.084743  -0.184931  0  3.932745  0
C  C73  1  0.31319632  0.65981173  0.63565116  1  0  -0.175605  0  3.706058  0  0  -0.191129  0  3.948154  0  0  -0.200921  0  3.971246  0  0.006597  0  -0.084742  -0.184911  0  3.932695  0
C  C74  1  0.60659472  0.25069375  0.42137049  1  0  0.15225  0  3.729494  0  0  0.168908  0  3.965158  0  0  0.174429  0  3.988303  0  0.03503  0  0.012653  0.165423  0  3.949337  0
C  C75  1  0.39340700  0.74930619  0.57863024  1  0  0.15229  0  3.729417  0  0  0.168939  0  3.965093  0  0  0.174462  0  3.988236  0  0.034991  0  0.012654  0.165455  0  3.949268  0
C  C76  1  0.58004566  0.11222183  0.36790944  1  0  -0.17599  0  3.712506  0  0  -0.193223  0  3.957741  0  0  -0.202703  0  3.980738  0  -0.068509  0  -0.086183  -0.187272  0  3.94232  0
C  C77  1  0.41995605  0.88777811  0.63209214  1  0  -0.176025  0  3.712454  0  0  -0.193255  0  3.957704  0  0  -0.202738  0  3.980699  0  -0.068442  0  -0.086177  -0.187293  0  3.942289  0
C  C78  1  0.63339362  0.06878735  0.26337059  1  0  0.150097  0  3.669535  0  0  0.118301  0  3.915532  0  0  0.127117  0  3.932082  0  0.415318  0  0.054687  0.112766  0  3.904471  0
C  C79  1  0.36660459  0.93121156  0.73662888  1  0  0.150112  0  3.669596  0  0  0.118308  0  3.915588  0  0  0.127122  0  3.932144  0  0.415315  0  0.054692  0.112773  0  3.904524  0
N  N80  1  0.07551582  0.92224452  0.31240839  1  0  -0.347101  0  3.302076  0  0  -0.263942  0  3.581646  0  0  -0.284264  0  3.594861  0  -1.270497  0  -0.331555  -0.249848  0  3.572257  0
N  N81  1  0.92448217  0.07775643  0.68759076  1  0  -0.34712  0  3.302051  0  0  -0.263937  0  3.581604  0  0  -0.28426  0  3.594821  0  -1.270528  0  -0.331577  -0.249843  0  3.572215  0
N  N82  1  0.71145508  0.15677425  0.21063626  1  0  -0.339648  0  3.295837  0  0  -0.253991  0  3.571483  0  0  -0.274659  0  3.58531  0  -1.220493  0  -0.326297  -0.240123  0  3.561799  0
N  N83  1  0.28854353  0.84322568  0.78936349  1  0  -0.339644  0  3.295859  0  0  -0.253936  0  3.571454  0  0  -0.274611  0  3.585289  0  -1.220568  0  -0.326253  -0.240064  0  3.561764  0
O  O84  1  0.69611234  0.15270628  0.94086495  1  0  -0.844637  0  1.913456  0  0  -0.776009  0  2.134965  0  0  -0.797898  0  2.09706  0  -1.272854  0  -0.576324  -0.760426  0  2.162366  0
O  O85  1  0.30388610  0.84729061  0.05913398  1  0  -0.844635  0  1.913392  0  0  -0.775996  0  2.135006  0  0  -0.797883  0  2.097101  0  -1.272393  0  -0.57632  -0.760411  0  2.162403  0
O  O86  1  0.77757472  0.61363170  0.20326787  1  0  -0.666261  0  2.055309  0  0  -0.593075  0  2.340242  0  0  -0.622135  0  2.322027  0  -1.156081  0  -0.337951  -0.572273  0  2.353796  0
O  O87  1  0.22242556  0.38636722  0.79673000  1  0  -0.666232  0  2.055325  0  0  -0.593058  0  2.340279  0  0  -0.622116  0  2.322059  0  -1.156082  0  -0.337954  -0.572257  0  2.353834  0
O  O88  1  0.69420585  0.78598410  0.21703404  1  0  -0.606035  0  1.934163  0  0  -0.565848  0  2.165554  0  0  -0.587292  0  2.156973  0  -1.171405  0  -0.318657  -0.550324  0  2.170816  0
O  O89  1  0.30579277  0.21401584  0.78296487  1  0  -0.606061  0  1.934206  0  0  -0.565855  0  2.165589  0  0  -0.587297  0  2.157008  0  -1.171443  0  -0.318647  -0.55033  0  2.170849  0
O  O90  1  0.15595070  0.68099898  0.18627844  1  0  -0.68895  0  2.056565  0  0  -0.606982  0  2.313507  0  0  -0.637068  0  2.29793  0  -1.180982  0  -0.336444  -0.585259  0  2.32413  0
O  O91  1  0.84404895  0.31900096  0.81372220  1  0  -0.688927  0  2.056601  0  0  -0.606976  0  2.313552  0  0  -0.637061  0  2.297976  0  -1.181004  0  -0.336442  -0.585252  0  2.324176  0
O  O92  1  0.99339605  0.46514293  0.12323926  1  0  -0.572522  0  1.951812  0  0  -0.526843  0  2.175211  0  0  -0.55026  0  2.167873  0  -1.165149  0  -0.298191  -0.509423  0  2.180287  0
O  O93  1  0.00660154  0.53485700  0.87676129  1  0  -0.57256  0  1.951899  0  0  -0.526843  0  2.175254  0  0  -0.550266  0  2.16792  0  -1.165097  0  -0.298191  -0.509422  0  2.180331  0
O  O94  1  0.01159445  0.21545830  0.13848630  1  0  -0.62057  0  2.03352  0  0  -0.557185  0  2.299279  0  0  -0.585859  0  2.285281  0  -1.151854  0  -0.307339  -0.537148  0  2.308464  0
O  O95  1  0.98840624  0.78454164  0.86151354  1  0  -0.620538  0  2.033555  0  0  -0.557146  0  2.299336  0  0  -0.585812  0  2.28532  0  -1.151868  0  -0.307314  -0.537106  0  2.308518  0
O  O96  1  0.00972194  0.21550713  0.95150206  1  0  -0.658601  0  2.157652  0  0  -0.579417  0  2.446257  0  0  -0.610394  0  2.428889  0  -1.190338  0  -0.310926  -0.556677  0  2.458237  0
O  O97  1  0.99027668  0.78449281  0.04849685  1  0  -0.658604  0  2.157625  0  0  -0.579408  0  2.446253  0  0  -0.610389  0  2.428887  0  -1.190675  0  -0.310902  -0.556663  0  2.458221  0
O  O98  1  0.20443214  0.08530645  0.01302068  1  0  -0.62509  0  2.06567  0  0  -0.543645  0  2.329774  0  0  -0.573325  0  2.315811  0  -1.150694  0  -0.308098  -0.52267  0  2.33889  0
O  O99  1  0.79556689  0.91469450  0.98697852  1  0  -0.625098  0  2.065692  0  0  -0.543658  0  2.329797  0  0  -0.573334  0  2.315835  0  -1.150711  0  -0.308103  -0.522679  0  2.338898  0
O  O100  1  0.44743718  0.14391013  0.00997060  1  0  -0.63201  0  2.014121  0  0  -0.577477  0  2.249335  0  0  -0.602361  0  2.239566  0  -1.193261  0  -0.310414  -0.559611  0  2.255526  0
O  O101  1  0.55256350  0.85608980  0.99002841  1  0  -0.632031  0  2.014139  0  0  -0.577497  0  2.24937  0  0  -0.60238  0  2.239603  0  -1.193245  0  -0.310432  -0.559635  0  2.255563  0
