# generated using pymatgen
data_KVPH3CO7
_symmetry_space_group_name_H-M   'P 1'
_cell_length_a   6.38435159
_cell_length_b   9.36415412
_cell_length_c   13.00792176
_cell_angle_alpha   71.41726873
_cell_angle_beta   75.78578140
_cell_angle_gamma   70.03438403
_symmetry_Int_Tables_number   1
_chemical_formula_structural   KVPH3CO7
_chemical_formula_sum   'K4 V4 P4 H12 C4 O28'
_cell_volume   684.61079186
_cell_formula_units_Z   4
loop_
 _symmetry_equiv_pos_site_id
 _symmetry_equiv_pos_as_xyz
  1  'x, y, z'
loop_
 _atom_site_type_symbol
 _atom_site_label
 _atom_site_symmetry_multiplicity
 _atom_site_fract_x
 _atom_site_fract_y
 _atom_site_fract_z
 _atom_site_occupancy
 _atom_site_hle17_ddec_charge
 _atom_site_hle17_ddec_spin_density
 _atom_site_hle17_ddec_sum_bond_order
 _atom_site_hle17_magmom
 _atom_site_hse06_10hf_ddec_charge
 _atom_site_hse06_10hf_ddec_spin_density
 _atom_site_hse06_10hf_ddec_sum_bond_order
 _atom_site_hse06_10hf_magmom
 _atom_site_hse06_ddec_charge
 _atom_site_hse06_ddec_spin_density
 _atom_site_hse06_ddec_sum_bond_order
 _atom_site_hse06_magmom
 _atom_site_pbe_cm5_charge
 _atom_site_pbe_ddec_charge
 _atom_site_pbe_ddec_spin_density
 _atom_site_pbe_ddec_sum_bond_order
 _atom_site_pbe_magmom
K  K0  1  0.69208011  0.10518682  0.05801074  1  0.951246  -0.001927  0.471688  0.0  0.916615  -0.001653  0.647523  0.0  0.930749  -0.001791  0.625396  0.0  0.840095  0.905788  -0.001401  0.663815  0.0
K  K1  1  0.85527514  0.39491591  0.44191873  1  0.951202  -0.001938  0.472441  0.0  0.916455  -0.001669  0.64845  0.0  0.93053  -0.001807  0.626445  0.0  0.840685  0.905702  -0.001417  0.664692  0.0
K  K2  1  0.30791927  0.89481693  0.94198771  1  0.95125  -0.001927  0.471651  0.0  0.91661  -0.001653  0.647484  0.0  0.930721  -0.00179  0.625374  0.0  0.840022  0.905774  -0.001402  0.663791  0.0
K  K3  1  0.14473332  0.60507953  0.55808358  1  0.951181  -0.00194  0.472483  0.0  0.916411  -0.001667  0.648534  0.0  0.930488  -0.001805  0.62653  0.0  0.84071  0.905667  -0.001416  0.664771  0.0
V  V4  1  0.56815274  0.44831356  0.20681183  1  1.841516  1.255238  2.502134  1.234  1.857017  1.036491  2.893168  1.012  1.9426  1.086572  2.853388  1.066  1.368049  1.799009  0.98609  2.925393  0.958
V  V5  1  0.22365287  0.05203745  0.29322192  1  1.840859  1.255456  2.50434  1.234  1.856293  1.03671  2.895698  1.013  1.94264  1.086781  2.854772  1.066  1.367418  1.798601  0.98627  2.927363  0.958
V  V6  1  0.43184581  0.55169720  0.79318659  1  1.841436  1.255245  2.502288  1.234  1.856988  1.03655  2.893206  1.013  1.94249  1.0866  2.853557  1.066  1.367904  1.798951  0.986204  2.925468  0.958
V  V7  1  0.77633352  0.94798302  0.70676511  1  1.840705  1.255403  2.504299  1.234  1.856126  1.036643  2.895668  1.012  1.942374  1.086731  2.854891  1.066  1.367408  1.798348  0.986177  2.927487  0.958
P  P8  1  0.12044947  0.41807980  0.16983340  1  1.452749  0.004221  4.864542  0.003  1.285478  0.00776  5.380879  0.003  1.344767  0.005198  5.333204  0.002  0.273129  1.242806  0.010293  5.411777  0.004
P  P9  1  0.70857522  0.08231648  0.33010100  1  1.452212  0.004227  4.871789  0.003  1.284581  0.007762  5.38828  0.003  1.343978  0.005202  5.340524  0.002  0.272685  1.241874  0.010275  5.419212  0.004
P  P10  1  0.87955691  0.58191924  0.83016562  1  1.452715  0.004222  4.86444  0.003  1.285452  0.007761  5.380775  0.003  1.344732  0.005196  5.333096  0.002  0.273122  1.242786  0.010293  5.411662  0.004
P  P11  1  0.29142863  0.91767927  0.66989107  1  1.452161  0.004226  4.872116  0.003  1.284494  0.007759  5.38865  0.003  1.343883  0.005204  5.340884  0.002  0.272596  1.241773  0.010273  5.419586  0.004
H  H12  1  0.16847942  0.49988000  0.05969620  1  -0.118902  -0.002739  0.915078  -0.002  -0.083587  -0.001631  0.993884  -0.001  -0.08749  -0.001641  0.989252  -0.001  0.112735  -0.080404  -0.00155  0.996975  -0.001
H  H13  1  0.72869216  0.00042009  0.44022373  1  -0.11883  -0.002745  0.916194  -0.002  -0.083413  -0.001635  0.995092  -0.001  -0.087357  -0.001644  0.990482  -0.001  0.112874  -0.080197  -0.001554  0.998151  -0.001
H  H14  1  0.83152055  0.50012465  0.94031093  1  -0.118848  -0.002739  0.91495  -0.002  -0.083555  -0.001631  0.993783  -0.001  -0.087455  -0.001641  0.989147  -0.001  0.112723  -0.080374  -0.001551  0.996876  -0.001
H  H15  1  0.27131341  0.99956723  0.55977647  1  -0.118847  -0.002744  0.916281  -0.002  -0.083416  -0.001634  0.995155  -0.001  -0.087359  -0.001645  0.990542  -0.001  0.112902  -0.080198  -0.001554  0.998217  -0.001
H  H16  1  0.87078423  0.79724872  0.95611382  1  0.434943  -0.000306  0.855745  0.0  0.408984  -0.000178  0.911999  0.0  0.419192  -0.000252  0.896789  0.0  0.304135  0.401555  -8.6e-05  0.923045  0.0
H  H17  1  0.62438927  0.70289647  0.54361863  1  0.434946  -0.000307  0.855615  0.0  0.408956  -0.000179  0.911889  0.0  0.419159  -0.000254  0.896684  0.0  0.303969  0.401529  -8.8e-05  0.922932  0.0
H  H18  1  0.12920117  0.20275732  0.04388599  1  0.434921  -0.000306  0.855753  0.0  0.408967  -0.000178  0.912004  0.0  0.419175  -0.000252  0.896793  0.0  0.304125  0.401539  -8.6e-05  0.923048  0.0
H  H19  1  0.37561732  0.29709663  0.45638369  1  0.435003  -0.000307  0.855539  0.0  0.409011  -0.000179  0.911822  0.0  0.419215  -0.000254  0.896617  0.0  0.30395  0.40158  -8.8e-05  0.922868  0.0
H  H20  1  0.86306700  0.72127095  0.08098475  1  0.425235  -6e-06  0.849578  0.0  0.404005  0.000185  0.908169  0.0  0.412062  5.3e-05  0.896166  0.0  0.309634  0.398323  0.000332  0.916625  0.0
H  H21  1  0.66611642  0.77904070  0.41877641  1  0.424873  -6e-06  0.850893  0.0  0.403719  0.000185  0.908489  0.0  0.411768  5.3e-05  0.896505  0.0  0.309638  0.398045  0.000331  0.916928  0.0
H  H22  1  0.13692692  0.27873402  0.91901196  1  0.425246  -6e-06  0.849482  0.0  0.404031  0.000185  0.908118  0.0  0.412086  5.3e-05  0.896115  0.0  0.309653  0.398351  0.000331  0.916571  0.0
H  H23  1  0.33389489  0.22095472  0.58122628  1  0.424875  -6e-06  0.850969  0.0  0.403724  0.000185  0.908509  0.0  0.411774  5.3e-05  0.896524  0.0  0.309595  0.398046  0.000332  0.916953  0.0
C  C24  1  0.38513001  0.71734478  0.31190931  1  0.549537  0.010554  3.90824  0.008  0.510981  0.014442  4.205174  0.01  0.546571  0.006603  4.187692  0.005  0.200329  0.482399  0.02916  4.22384  0.019
C  C25  1  0.41416510  0.78302339  0.18830793  1  0.550111  0.010558  3.911209  0.008  0.510739  0.014451  4.208636  0.01  0.546524  0.006604  4.191031  0.005  0.200568  0.482026  0.029199  4.227391  0.019
C  C26  1  0.61486317  0.28267948  0.68806861  1  0.549505  0.010582  3.908117  0.008  0.510725  0.014475  4.205475  0.01  0.546398  0.00662  4.187884  0.005  0.200135  0.482088  0.029212  4.224198  0.019
C  C27  1  0.58584612  0.21697150  0.81167389  1  0.550365  0.010528  3.910934  0.008  0.510931  0.014414  4.208663  0.01  0.546682  0.006586  4.191039  0.005  0.20061  0.482245  0.029134  4.227402  0.019
O  O28  1  0.45025512  0.57018957  0.34923245  1  -0.61749  0.005199  2.062008  0.004  -0.591553  0.011718  2.313207  0.011  -0.61384  0.007711  2.303121  0.008  -0.375146  -0.579206  0.018938  2.32356  0.018
O  O29  1  0.36995872  0.93016052  0.15100720  1  -0.617286  0.005148  2.064763  0.004  -0.59121  0.011672  2.316764  0.011  -0.613581  0.007673  2.306404  0.008  -0.374194  -0.57886  0.018887  2.327146  0.018
O  O30  1  0.54973088  0.42982650  0.65078376  1  -0.617278  0.005219  2.062523  0.004  -0.591312  0.011743  2.313925  0.011  -0.613604  0.007729  2.303803  0.008  -0.374948  -0.578958  0.018969  2.324305  0.018
O  O31  1  0.63001754  0.06986746  0.84900204  1  -0.617501  0.005131  2.065157  0.004  -0.591362  0.011647  2.31716  0.011  -0.613738  0.007655  2.30685  0.008  -0.374375  -0.579002  0.01885  2.327548  0.018
O  O32  1  0.29608903  0.81760413  0.36937598  1  -0.638824  -0.010246  2.12781  -0.02  -0.6058  -0.001689  2.381279  -0.014  -0.634403  -1.7e-05  2.371097  -0.011  -0.37977  -0.587686  -0.001017  2.390772  -0.014
O  O33  1  0.48242618  0.68280148  0.13083516  1  -0.639259  -0.010242  2.128283  -0.02  -0.606148  -0.001679  2.382211  -0.014  -0.634621  -1.7e-05  2.371904  -0.011  -0.380836  -0.587947  -0.001004  2.391783  -0.014
O  O34  1  0.70392648  0.18236077  0.63063064  1  -0.638874  -0.010237  2.127747  -0.02  -0.605758  -0.00169  2.38137  -0.014  -0.63438  -1e-05  2.371164  -0.011  -0.379668  -0.587601  -0.001023  2.390883  -0.014
O  O35  1  0.51758040  0.31716318  0.86917901  1  -0.639376  -0.010252  2.127765  -0.02  -0.6062  -0.001677  2.381677  -0.014  -0.634674  -1.8e-05  2.371401  -0.011  -0.380787  -0.587991  -0.001004  2.391238  -0.014
O  O36  1  0.86564506  0.47674538  0.20981320  1  -0.926488  0.009782  2.106913  -0.003  -0.869221  0.019478  2.390891  0.005  -0.903823  0.01743  2.372835  0.004  -0.469051  -0.84186  0.020915  2.401969  0.006
O  O37  1  0.55277575  0.02334930  0.29018395  1  -0.926489  0.009702  2.108555  -0.003  -0.869266  0.019407  2.392897  0.005  -0.904001  0.017373  2.374653  0.004  -0.468037  -0.841959  0.020834  2.403961  0.006
O  O38  1  0.13436615  0.52325351  0.79019083  1  -0.926547  0.009784  2.106961  -0.003  -0.869299  0.019482  2.390936  0.005  -0.903886  0.017432  2.372895  0.004  -0.469055  -0.841943  0.02092  2.402022  0.006
O  O39  1  0.44721250  0.97665217  0.70981239  1  -0.926523  0.009706  2.108757  -0.003  -0.869323  0.019409  2.393139  0.005  -0.904029  0.017372  2.374891  0.004  -0.468072  -0.841995  0.020834  2.404217  0.006
O  O40  1  0.24126285  0.45829731  0.24105439  1  -0.869676  0.008441  2.044016  -0.003  -0.81694  0.0205  2.319049  0.007  -0.851644  0.017993  2.302897  0.006  -0.430057  -0.789236  0.022374  2.32846  0.008
O  O41  1  0.94093779  0.04244655  0.25881798  1  -0.869231  0.008339  2.047965  -0.003  -0.816425  0.020416  2.323565  0.007  -0.851326  0.01792  2.307368  0.006  -0.430004  -0.788737  0.022294  2.332882  0.008
O  O42  1  0.75873427  0.54169570  0.75895104  1  -0.869678  0.008446  2.044045  -0.003  -0.816948  0.020502  2.319067  0.007  -0.851634  0.017996  2.302925  0.006  -0.430078  -0.789229  0.022377  2.328458  0.008
O  O43  1  0.05907305  0.95755616  0.74117600  1  -0.869136  0.008323  2.047807  -0.003  -0.816294  0.020403  2.323322  0.007  -0.851177  0.017907  2.307145  0.006  -0.429921  -0.788587  0.022279  2.332648  0.008
O  O44  1  0.20621573  0.24298280  0.16672374  1  -0.889225  0.005724  2.089298  -0.006  -0.834088  0.017183  2.37544  0.004  -0.867574  0.01559  2.355605  0.003  -0.429621  -0.808726  0.017962  2.387463  0.005
O  O45  1  0.61523984  0.25738031  0.33331621  1  -0.888471  0.005746  2.089122  -0.006  -0.833178  0.017206  2.375162  0.004  -0.866453  0.01561  2.355235  0.003  -0.429324  -0.80784  0.017989  2.387415  0.005
O  O46  1  0.79377866  0.75701742  0.83327529  1  -0.889219  0.005713  2.089041  -0.006  -0.834063  0.017171  2.375131  0.004  -0.86752  0.015581  2.355298  0.003  -0.429578  -0.808699  0.01795  2.387198  0.005
O  O47  1  0.38476322  0.74261739  0.66668861  1  -0.888428  0.005757  2.089494  -0.006  -0.833101  0.017212  2.375507  0.004  -0.866358  0.015617  2.355587  0.003  -0.42931  -0.807761  0.017996  2.387772  0.005
O  O48  1  0.63606319  0.37991163  0.10059380  1  -0.722142  -0.283527  1.355995  -0.246  -0.748758  -0.122773  1.641416  -0.107  -0.788358  -0.153503  1.632314  -0.136  -0.638809  -0.721719  -0.102308  1.648725  -0.089
O  O49  1  0.11693432  0.12035025  0.39949338  1  -0.722108  -0.283459  1.357928  -0.246  -0.748923  -0.122705  1.643634  -0.107  -0.788783  -0.153412  1.634459  -0.136  -0.639232  -0.721942  -0.102253  1.650773  -0.089
O  O50  1  0.36394550  0.62008143  0.89940967  1  -0.722045  -0.283495  1.356188  -0.246  -0.748659  -0.122767  1.641557  -0.107  -0.788224  -0.153496  1.632479  -0.136  -0.638698  -0.72162  -0.10231  1.64887  -0.089
O  O51  1  0.88306686  0.87965122  0.60050294  1  -0.722006  -0.283452  1.35785  -0.246  -0.748812  -0.122706  1.643549  -0.107  -0.788649  -0.153407  1.634406  -0.136  -0.639215  -0.721802  -0.102251  1.65071  -0.089
O  O52  1  0.90212215  0.80867835  0.02315885  1  -0.872732  -0.000435  1.74805  0.0  -0.832952  0.000122  1.90436  0.0  -0.848976  -7e-06  1.875647  0.0  -0.685834  -0.820944  0.000281  1.924586  0.0
O  O53  1  0.73436577  0.69138737  0.47661681  1  -0.872274  -0.000446  1.749249  0.0  -0.832346  0.000112  1.904976  0.0  -0.848295  -1.4e-05  1.876238  0.0  -0.685992  -0.820375  0.000263  1.92522  0.0
O  O54  1  0.09786742  0.19132658  0.97683903  1  -0.872713  -0.000435  1.747981  0.0  -0.832961  0.000122  1.904326  0.0  -0.848969  -7e-06  1.875599  0.0  -0.68585  -0.820954  0.000281  1.92455  0.0
O  O55  1  0.26563939  0.30860573  0.52338532  1  -0.87235  -0.000445  1.749247  0.0  -0.832424  0.000112  1.904902  0.0  -0.848376  -1.3e-05  1.876155  0.0  -0.685936  -0.820453  0.000264  1.925159  0.0
