# generated using pymatgen
data_Zn2H21C18NO9
_symmetry_space_group_name_H-M   'P 1'
_cell_length_a   10.29577602
_cell_length_b   13.71361064
_cell_length_c   18.05840558
_cell_angle_alpha   89.99985750
_cell_angle_beta   90.00018086
_cell_angle_gamma   89.99986765
_symmetry_Int_Tables_number   1
_chemical_formula_structural   Zn2H21C18NO9
_chemical_formula_sum   'Zn8 H84 C72 N4 O36'
_cell_volume   2549.70716028
_cell_formula_units_Z   4
loop_
 _symmetry_equiv_pos_site_id
 _symmetry_equiv_pos_as_xyz
  1  'x, y, z'
loop_
 _atom_site_type_symbol
 _atom_site_label
 _atom_site_symmetry_multiplicity
 _atom_site_fract_x
 _atom_site_fract_y
 _atom_site_fract_z
 _atom_site_occupancy
 _atom_site_pbe_bader_charge
 _atom_site_pbe_bader_spin_density
 _atom_site_pbe_cm5_charge
 _atom_site_pbe_ddec_charge
 _atom_site_pbe_ddec_spin_density
 _atom_site_pbe_ddec_sum_bond_order
 _atom_site_pbe_magmom
Zn  Zn0  1  0.44050039  0.52901718  0.41085565  1  1.316243  0  0.688614  0.913227  0  2.34802  0
Zn  Zn1  1  0.05950192  0.47098606  0.91085354  1  1.316405  0  0.688641  0.913282  0  2.347945  0
Zn  Zn2  1  0.55949664  0.02901506  0.08914401  1  1.316386  0  0.68859  0.913179  0  2.348107  0
Zn  Zn3  1  0.94049944  0.97098394  0.58914771  1  1.316545  0  0.688624  0.913282  0  2.347938  0
Zn  Zn4  1  0.25149770  0.36451665  0.34260543  1  1.328105  0  0.678407  0.913943  0  2.346273  0
Zn  Zn5  1  0.24850327  0.63548170  0.84260168  1  1.328072  0  0.678356  0.913825  0  2.346431  0
Zn  Zn6  1  0.74850220  0.86451685  0.15739801  1  1.328069  0  0.67834  0.913802  0  2.346302  0
Zn  Zn7  1  0.75149911  0.13548558  0.65739690  1  1.32812  0  0.678401  0.91395  0  2.346318  0
H  H8  1  0.61941547  0.23724732  0.23359792  1  0.044785  0  0.093127  0.098637  0  0.986976  0
H  H9  1  0.88057655  0.76275633  0.73359749  1  0.04482  0  0.093133  0.09863  0  0.98696  0
H  H10  1  0.38058094  0.73724199  0.26640244  1  0.044611  0  0.093118  0.098599  0  0.987004  0
H  H11  1  0.11941670  0.26275807  0.76640528  1  0.044556  0  0.093118  0.098614  0  0.987027  0
H  H12  1  0.53837767  0.16056508  0.29805212  1  0.045567  0  0.093928  0.097488  0  1.002849  0
H  H13  1  0.96161761  0.83944128  0.79805224  1  0.045487  0  0.093936  0.097524  0  1.002793  0
H  H14  1  0.46162090  0.66055981  0.20194784  1  0.045452  0  0.093993  0.097582  0  1.002774  0
H  H15  1  0.03837735  0.33943972  0.70194927  1  0.045458  0  0.093947  0.097509  0  1.002771  0
H  H16  1  0.77349509  0.36972134  0.28203632  1  0.01897  0  0.091847  0.096065  0  0.975829  0
H  H17  1  0.72650787  0.63027924  0.78203254  1  0.019264  0  0.09181  0.09602  0  0.975918  0
H  H18  1  0.22651159  0.86971862  0.21797209  1  0.019207  0  0.091872  0.096109  0  0.975786  0
H  H19  1  0.27349257  0.13028086  0.71796993  1  0.019245  0  0.091847  0.096042  0  0.975792  0
H  H20  1  0.79943607  0.38184415  0.37811901  1  0.048347  0  0.094886  0.104246  0  0.9952  0
H  H21  1  0.70056062  0.61815466  0.87811577  1  0.04843  0  0.09485  0.104178  0  0.995204  0
H  H22  1  0.20056281  0.88184835  0.12188661  1  0.048167  0  0.094855  0.104189  0  0.995223  0
H  H23  1  0.29943306  0.11815800  0.62188507  1  0.048182  0  0.094837  0.104185  0  0.995166  0
H  H24  1  0.68142013  0.27031331  0.46898750  1  0.053673  0  0.097885  0.106939  0  0.974971  0
H  H25  1  0.81858483  0.72968449  0.96898591  1  0.05373  0  0.097886  0.106961  0  0.975021  0
H  H26  1  0.31858006  0.77031978  0.03101502  1  0.053695  0  0.097848  0.106911  0  0.97495  0
H  H27  1  0.18142114  0.22968176  0.53101803  1  0.053683  0  0.09786  0.106932  0  0.975007  0
H  H28  1  0.57315830  0.18016142  0.43539593  1  0.059323  0  0.095343  0.101709  0  0.982265  0
H  H29  1  0.92683773  0.81984013  0.93539492  1  0.059389  0  0.095362  0.101745  0  0.982242  0
H  H30  1  0.42683730  0.68016321  0.06460344  1  0.059436  0  0.095354  0.101727  0  0.982241  0
H  H31  1  0.07316020  0.31983968  0.56460442  1  0.059368  0  0.095377  0.101803  0  0.982199  0
H  H32  1  0.95251348  0.13096935  0.26312419  1  0.047991  0  0.09869  0.111301  0  0.975293  0
H  H33  1  0.54747579  0.86902983  0.76311852  1  0.048485  0  0.098698  0.111328  0  0.975174  0
H  H34  1  0.04747936  0.63096835  0.23687859  1  0.048312  0  0.098714  0.111344  0  0.975122  0
H  H35  1  0.45251325  0.36903253  0.73688072  1  0.048166  0  0.098703  0.111334  0  0.975156  0
H  H36  1  0.86241509  0.22036245  0.21346349  1  0.016859  0  0.091836  0.095314  0  0.985638  0
H  H37  1  0.63758361  0.77964126  0.71345871  1  0.016749  0  0.091786  0.095259  0  0.985697  0
H  H38  1  0.13758428  0.72035821  0.28653967  1  0.016793  0  0.091795  0.095249  0  0.985704  0
H  H39  1  0.36241638  0.27964323  0.78654070  1  0.016803  0  0.091786  0.095222  0  0.985687  0
H  H40  1  0.83494141  0.01963539  0.35433435  1  0.040177  0  0.097821  0.105262  0  0.993389  0
H  H41  1  0.66504447  0.98036058  0.85433809  1  0.040106  0  0.097782  0.105217  0  0.993399  0
H  H42  1  0.16504788  0.51963958  0.14566035  1  0.040162  0  0.097787  0.105216  0  0.993421  0
H  H43  1  0.33494618  0.48036305  0.64566426  1  0.04016  0  0.097823  0.105266  0  0.993369  0
H  H44  1  0.66493773  0.03017979  0.36700086  1  0.02557  0  0.092839  0.097936  0  0.973243  0
H  H45  1  0.83504919  0.96982052  0.86700216  1  0.025756  0  0.092793  0.097905  0  0.97329  0
H  H46  1  0.33505542  0.53018153  0.13299492  1  0.025699  0  0.092848  0.097958  0  0.973278  0
H  H47  1  0.16494246  0.46982041  0.63299688  1  0.025654  0  0.092816  0.097904  0  0.97327  0
H  H48  1  0.92487820  0.25279622  0.44913161  1  0.029754  0  0.097646  0.105131  0  0.973502  0
H  H49  1  0.57511792  0.74719289  0.94912512  1  0.029601  0  0.097727  0.105198  0  0.973299  0
H  H50  1  0.07511622  0.75280743  0.05087482  1  0.029614  0  0.097735  0.105184  0  0.973368  0
H  H51  1  0.42488121  0.24719842  0.55087436  1  0.029711  0  0.097712  0.105173  0  0.973476  0
H  H52  1  0.98677351  0.14908833  0.40169014  1  0.030392  0  0.0976  0.107216  0  0.98548  0
H  H53  1  0.51322234  0.85090531  0.90168777  1  0.030418  0  0.097597  0.107204  0  0.98545  0
H  H54  1  0.01322219  0.64909876  0.09830983  1  0.03046  0  0.097581  0.10718  0  0.985472  0
H  H55  1  0.48677647  0.35090839  0.59831317  1  0.030391  0  0.097622  0.107203  0  0.985484  0
H  H56  1  0.76248919  0.67805733  0.29853026  1  0.108489  0  0.104806  0.167653  0  1.020984  0
H  H57  1  0.73751581  0.32193882  0.79853099  1  0.108424  0  0.104813  0.167661  0  1.020911  0
H  H58  1  0.23751516  0.17806563  0.20146689  1  0.108429  0  0.104851  0.167703  0  1.020976  0
H  H59  1  0.26249960  0.82193463  0.70146669  1  0.108275  0  0.104814  0.167633  0  1.021151  0
H  H60  1  0.59476704  0.64845405  0.29296653  1  0.080677  0  0.106059  0.16298  0  1.007926  0
H  H61  1  0.90523696  0.35154430  0.79296362  1  0.080599  0  0.106097  0.163024  0  1.007887  0
H  H62  1  0.40523643  0.14846131  0.20703511  1  0.080583  0  0.106094  0.163009  0  1.007889  0
H  H63  1  0.09477836  0.85153821  0.70703787  1  0.080776  0  0.106026  0.16292  0  1.007996  0
H  H64  1  0.70497557  0.56137034  0.32859223  1  0.095726  0  0.112635  0.181906  0  0.982378  0
H  H65  1  0.79502959  0.43862790  0.82859117  1  0.095641  0  0.112605  0.181874  0  0.982493  0
H  H66  1  0.29502719  0.06137790  0.17140571  1  0.095735  0  0.112572  0.181893  0  0.982452  0
H  H67  1  0.20498255  0.93862172  0.67140683  1  0.095691  0  0.112587  0.181873  0  0.98251  0
H  H68  1  0.87797162  0.84484606  0.43389100  1  0.100114  0  0.112592  0.13595  0  1.007381  0
H  H69  1  0.62203995  0.15515404  0.93389460  1  0.100158  0  0.112549  0.135901  0  1.00737  0
H  H70  1  0.12203029  0.34484551  0.06610306  1  0.100334  0  0.112594  0.135903  0  1.007432  0
H  H71  1  0.37796819  0.65515226  0.56610007  1  0.100273  0  0.112585  0.135893  0  1.007448  0
H  H72  1  0.79678083  0.83120216  0.34776428  1  0.085878  0  0.1117  0.135111  0  0.990935  0
H  H73  1  0.70323124  0.16879384  0.84776690  1  0.085829  0  0.111718  0.135127  0  0.990949  0
H  H74  1  0.20322015  0.33120484  0.15222980  1  0.085976  0  0.11168  0.135021  0  0.990963  0
H  H75  1  0.29678463  0.66879339  0.65222830  1  0.086007  0  0.11169  0.134986  0  0.991046  0
H  H76  1  0.90980021  0.74053734  0.37784853  1  0.069448  0  0.110185  0.124909  0  0.985079  0
H  H77  1  0.59021008  0.25946002  0.87784744  1  0.069613  0  0.110143  0.124888  0  0.985048  0
H  H78  1  0.09020007  0.24053667  0.12214518  1  0.069389  0  0.110134  0.124825  0  0.985038  0
H  H79  1  0.40980163  0.75946020  0.62214205  1  0.069456  0  0.110104  0.124767  0  0.985034  0
H  H80  1  0.79873757  0.78378764  0.54010246  1  0.077558  0  0.107914  0.126699  0  1.005823  0
H  H81  1  0.70127767  0.21621225  0.04010363  1  0.077708  0  0.107951  0.126808  0  1.00577  0
H  H82  1  0.20127213  0.28379226  0.95989307  1  0.077616  0  0.107937  0.126778  0  1.005808  0
H  H83  1  0.29871297  0.71620134  0.45989178  1  0.077703  0  0.10795  0.126754  0  1.005846  0
H  H84  1  0.65459410  0.71075959  0.54136442  1  0.097931  0  0.111759  0.12946  0  1.001805  0
H  H85  1  0.84542114  0.28924249  0.04136349  1  0.097658  0  0.111707  0.129364  0  1.00192  0
H  H86  1  0.34541387  0.21076396  0.95863236  1  0.097894  0  0.111727  0.129434  0  1.001845  0
H  H87  1  0.15457317  0.78923329  0.45863344  1  0.097704  0  0.111696  0.129441  0  1.001805  0
H  H88  1  0.64641573  0.83630134  0.51545226  1  0.063379  0  0.109483  0.128267  0  0.965479  0
H  H89  1  0.85360228  0.16370082  0.01545159  1  0.063691  0  0.109478  0.128246  0  0.965423  0
H  H90  1  0.35359381  0.33630269  0.98454705  1  0.063357  0  0.109446  0.128228  0  0.965425  0
H  H91  1  0.14639240  0.66369448  0.48455113  1  0.06356  0  0.109403  0.128172  0  0.965443  0
C  C92  1  0.53696921  0.34073709  0.35546565  1  1.552974  0  0.232762  0.610495  0  4.081193  0
C  C93  1  0.96302736  0.65926618  0.85546557  1  1.552436  0  0.232652  0.610303  0  4.080964  0
C  C94  1  0.46302591  0.84073272  0.14453451  1  1.552418  0  0.232608  0.610237  0  4.081161  0
C  C95  1  0.03696815  0.15927136  0.64453519  1  1.55247  0  0.232759  0.610414  0  4.081179  0
C  C96  1  0.71284528  0.05559561  0.22026589  1  1.553141  0  0.232651  0.60747  0  4.07201  0
C  C97  1  0.78714666  0.94439642  0.72026217  1  1.552817  0  0.23263  0.60733  0  4.071674  0
C  C98  1  0.28715070  0.55559988  0.27973538  1  1.552939  0  0.232667  0.607329  0  4.071736  0
C  C99  1  0.21285284  0.44440378  0.77973693  1  1.553068  0  0.232575  0.607213  0  4.07171  0
C  C100  1  0.02277092  0.31084977  0.32189026  1  1.564582  0  0.197171  0.5574  0  4.134345  0
C  C101  1  0.47723091  0.68914500  0.82188572  1  1.564482  0  0.197213  0.557376  0  4.134317  0
C  C102  1  0.97723692  0.81085533  0.17811494  1  1.564074  0  0.197176  0.557273  0  4.134236  0
C  C103  1  0.52276742  0.18914631  0.67811608  1  1.564252  0  0.197137  0.557277  0  4.134362  0
C  C104  1  0.79362182  0.09161188  0.49333931  1  1.563512  0  0.231152  0.602256  0  4.084038  0
C  C105  1  0.70637162  0.90838074  0.99333884  1  1.563109  0  0.231192  0.602376  0  4.08387  0
C  C106  1  0.20637308  0.59162226  0.00666133  1  1.563172  0  0.231127  0.602243  0  4.084022  0
C  C107  1  0.29361633  0.40838445  0.50666309  1  1.562824  0  0.231176  0.602401  0  4.083876  0
C  C108  1  0.65387841  0.27335211  0.34909427  1  -0.000963  0  -0.017332  0.041395  0  3.807919  0
C  C109  1  0.84611813  0.72664825  0.84909053  1  -0.000528  0  -0.017306  0.041413  0  3.808041  0
C  C110  1  0.34611789  0.77334940  0.15090713  1  -0.000676  0  -0.017379  0.041227  0  3.808378  0
C  C111  1  0.15387814  0.22665030  0.65091010  1  -0.00074  0  -0.017371  0.04127  0  3.808174  0
C  C112  1  0.74276538  0.12642803  0.28268941  1  0.025503  0  -0.013907  0.047673  0  3.78721  0
C  C113  1  0.75722981  0.87357327  0.78268854  1  0.025455  0  -0.013999  0.047674  0  3.787097  0
C  C114  1  0.25723524  0.62642891  0.21730951  1  0.025496  0  -0.013946  0.047632  0  3.787203  0
C  C115  1  0.24276698  0.37357495  0.71731069  1  0.025431  0  -0.013965  0.047618  0  3.787116  0
C  C116  1  0.89431193  0.25619525  0.32977442  1  0.010023  0  -0.012681  0.05339  0  3.781494  0
C  C117  1  0.60568741  0.74380517  0.82976854  1  0.009605  0  -0.012642  0.053668  0  3.781029  0
C  C118  1  0.10568927  0.75619582  0.17023145  1  0.009621  0  -0.0126  0.053818  0  3.78106  0
C  C119  1  0.39431464  0.24380381  0.67023260  1  0.009476  0  -0.012615  0.05377  0  3.781058  0
C  C120  1  0.77733816  0.14502391  0.41982113  1  0.024736  0  -0.014746  0.044424  0  3.799112  0
C  C121  1  0.72265973  0.85497040  0.91982079  1  0.024565  0  -0.014768  0.044341  0  3.79905  0
C  C122  1  0.22265463  0.64502966  0.08017997  1  0.024492  0  -0.014772  0.044387  0  3.799001  0
C  C123  1  0.27733809  0.35497172  0.58018180  1  0.025007  0  -0.014714  0.044396  0  3.799119  0
C  C124  1  0.62965774  0.19945558  0.28698972  1  -0.03494  0  -0.162585  -0.239762  0  3.885814  0
C  C125  1  0.87033651  0.80054863  0.78698754  1  -0.034945  0  -0.162565  -0.23983  0  3.885901  0
C  C126  1  0.37034170  0.69945335  0.21300960  1  -0.034649  0  -0.162604  -0.239731  0  3.885889  0
C  C127  1  0.12965856  0.30054761  0.71301294  1  -0.034575  0  -0.162589  -0.23977  0  3.885811  0
C  C128  1  0.78061084  0.32848557  0.33418770  1  0.010678  0  -0.164443  -0.235617  0  3.892548  0
C  C129  1  0.71938756  0.67151557  0.83418273  1  0.010273  0  -0.164398  -0.235579  0  3.89258  0
C  C130  1  0.21938820  0.82848595  0.16581802  1  0.010709  0  -0.164464  -0.235693  0  3.892541  0
C  C131  1  0.28061179  0.17151588  0.66581745  1  0.010604  0  -0.164396  -0.235568  0  3.892386  0
C  C132  1  0.66482105  0.21827750  0.42367013  1  -0.044497  0  -0.157161  -0.228131  0  3.850336  0
C  C133  1  0.83517978  0.78171606  0.92366571  1  -0.044541  0  -0.157181  -0.228153  0  3.85045  0
C  C134  1  0.33517638  0.71828306  0.07633414  1  -0.044525  0  -0.157086  -0.227993  0  3.85035  0
C  C135  1  0.16482021  0.28171687  0.57633481  1  -0.044333  0  -0.157187  -0.228177  0  3.850408  0
C  C136  1  0.87067014  0.18219590  0.26692396  1  -0.006413  0  -0.153278  -0.225741  0  3.827817  0
C  C137  1  0.62932789  0.81780473  0.76691854  1  -0.00662  0  -0.153269  -0.225855  0  3.827798  0
C  C138  1  0.12933323  0.68219330  0.23308039  1  -0.006521  0  -0.153251  -0.225819  0  3.827708  0
C  C139  1  0.37067005  0.31780613  0.73307914  1  -0.006193  0  -0.153228  -0.225753  0  3.82772  0
C  C140  1  0.75443745  0.07191272  0.35665779  1  -0.004471  0  -0.161156  -0.230555  0  3.871667  0
C  C141  1  0.74555136  0.92808543  0.85665735  1  -0.004432  0  -0.161016  -0.230401  0  3.871413  0
C  C142  1  0.24555557  0.57191458  0.14334178  1  -0.004377  0  -0.161111  -0.230524  0  3.871555  0
C  C143  1  0.25444236  0.42808659  0.64334399  1  -0.004658  0  -0.161132  -0.23051  0  3.871585  0
C  C144  1  0.90509626  0.20047895  0.40423786  1  -0.012429  0  -0.151659  -0.225541  0  3.814836  0
C  C145  1  0.59490155  0.79951833  0.90423463  1  -0.01218  0  -0.151706  -0.225557  0  3.814465  0
C  C146  1  0.09490123  0.70048487  0.09576589  1  -0.012101  0  -0.151706  -0.225537  0  3.814489  0
C  C147  1  0.40509935  0.29951937  0.59576696  1  -0.012193  0  -0.151714  -0.225546  0  3.814693  0
C  C148  1  0.65461223  0.67342172  0.40366736  1  1.318021  0  0.253251  0.525492  0  4.009681  0
C  C149  1  0.84539723  0.32657920  0.90366661  1  1.320844  0  0.253251  0.525442  0  4.009957  0
C  C150  1  0.34539310  0.17342287  0.09632980  1  1.317927  0  0.253141  0.525296  0  4.010088  0
C  C151  1  0.15461622  0.82657554  0.59633161  1  1.318092  0  0.253208  0.525316  0  4.010049  0
C  C152  1  0.68311502  0.63983183  0.32638928  1  -0.090011  0  -0.235742  -0.52157  0  3.870489  0
C  C153  1  0.81689110  0.36016642  0.82638841  1  -0.089811  0  -0.235797  -0.521596  0  3.870439  0
C  C154  1  0.31688847  0.13983862  0.17361016  1  -0.089675  0  -0.235779  -0.521626  0  3.87052  0
C  C155  1  0.18312225  0.86016100  0.67360919  1  -0.089779  0  -0.235668  -0.521398  0  3.870844  0
C  C156  1  0.83437216  0.79175948  0.39611359  1  0.209787  0  -0.127314  -0.27397  0  3.867096  0
C  C157  1  0.66563823  0.20823855  0.89611440  1  0.209554  0  -0.127224  -0.27392  0  3.866998  0
C  C158  1  0.16562990  0.29176238  0.10388058  1  0.209353  0  -0.127229  -0.273771  0  3.867104  0
C  C159  1  0.33436975  0.70823600  0.60387906  1  0.20936  0  -0.127186  -0.273608  0  3.867056  0
C  C160  1  0.70569547  0.76963395  0.51270961  1  0.242092  0  -0.131075  -0.270142  0  3.896116  0
C  C161  1  0.79431961  0.23036822  0.01271037  1  0.242243  0  -0.131046  -0.270144  0  3.896128  0
C  C162  1  0.29431135  0.26963686  0.98728650  1  0.242286  0  -0.131017  -0.270168  0  3.896042  0
C  C163  1  0.20567779  0.73036104  0.48728835  1  0.242214  0  -0.130907  -0.270013  0  3.896073  0
N  N164  1  0.72985570  0.74085680  0.43590387  1  -1.165279  0  -0.265927  -0.011904  0  3.622778  0
N  N165  1  0.77015782  0.25914256  0.93590201  1  -1.168123  0  -0.265931  -0.011844  0  3.623035  0
N  N166  1  0.27014943  0.24086183  0.06409316  1  -1.165304  0  -0.265936  -0.011834  0  3.622961  0
N  N167  1  0.22984709  0.75913741  0.56409302  1  -1.165542  0  -0.265972  -0.011939  0  3.62308  0
O  O168  1  0.55867122  0.43069585  0.36956760  1  -1.177988  0  -0.317548  -0.56423  0  2.387775  0
O  O169  1  0.94132251  0.56930299  0.86956766  1  -1.177871  0  -0.317498  -0.564176  0  2.387438  0
O  O170  1  0.44133140  0.93069157  0.13042740  1  -1.177855  0  -0.317488  -0.564107  0  2.387808  0
O  O171  1  0.05866646  0.06931038  0.63043383  1  -1.177721  0  -0.317543  -0.564209  0  2.38784  0
O  O172  1  0.42623258  0.30126911  0.34829718  1  -1.175194  0  -0.31208  -0.541738  0  2.350334  0
O  O173  1  0.07376745  0.69873287  0.84829687  1  -1.175124  0  -0.312053  -0.541665  0  2.350273  0
O  O174  1  0.57377431  0.80126599  0.15169697  1  -1.17522  0  -0.311997  -0.5416  0  2.350059  0
O  O175  1  0.92622696  0.19873793  0.65170602  1  -1.175366  0  -0.312074  -0.541688  0  2.350174  0
O  O176  1  0.68219268  0.09268152  0.15726469  1  -1.185035  0  -0.324316  -0.578309  0  2.362323  0
O  O177  1  0.81779503  0.90732164  0.65726221  1  -1.185129  0  -0.32428  -0.578179  0  2.362521  0
O  O178  1  0.31781096  0.59268262  0.34273263  1  -1.185066  0  -0.32429  -0.57817  0  2.362444  0
O  O179  1  0.18220846  0.40732157  0.84273752  1  -1.185147  0  -0.32429  -0.578185  0  2.362371  0
O  O180  1  0.71604915  0.96509348  0.23433602  1  -1.169519  0  -0.306369  -0.542538  0  2.385638  0
O  O181  1  0.78393802  0.03491090  0.73433406  1  -1.169055  0  -0.306445  -0.542617  0  2.385285  0
O  O182  1  0.28394463  0.46508837  0.26566778  1  -1.169419  0  -0.30644  -0.542582  0  2.385345  0
O  O183  1  0.21605106  0.53491461  0.76566750  1  -1.169364  0  -0.30636  -0.542433  0  2.385304  0
O  O184  1  0.12701954  0.25940154  0.31024818  1  -1.171086  0  -0.343144  -0.572608  0  2.203606  0
O  O185  1  0.37297834  0.74059327  0.81024280  1  -1.17087  0  -0.343138  -0.572623  0  2.203598  0
O  O186  1  0.87298068  0.75941089  0.18975933  1  -1.170945  0  -0.343123  -0.572561  0  2.203611  0
O  O187  1  0.62702081  0.24059582  0.68975614  1  -1.171006  0  -0.343136  -0.572606  0  2.203531  0
O  O188  1  0.02828958  0.40127378  0.33315862  1  -1.18204  0  -0.329045  -0.5393  0  2.115863  0
O  O189  1  0.47171037  0.59872533  0.83315867  1  -1.182136  0  -0.329057  -0.539316  0  2.116056  0
O  O190  1  0.97171410  0.90127939  0.16684973  1  -1.181602  0  -0.329056  -0.539328  0  2.115816  0
O  O191  1  0.52828241  0.09872302  0.66684442  1  -1.181816  0  -0.329002  -0.539297  0  2.115919  0
O  O192  1  0.87603049  0.02114750  0.49464909  1  -1.177116  0  -0.321453  -0.556416  0  2.335215  0
O  O193  1  0.62396199  0.97884292  0.99465332  1  -1.176677  0  -0.321437  -0.556406  0  2.335369  0
O  O194  1  0.12397337  0.52115731  0.00534726  1  -1.176828  0  -0.321407  -0.556311  0  2.335381  0
O  O195  1  0.37603352  0.47884212  0.50534903  1  -1.176778  0  -0.321466  -0.556418  0  2.335223  0
O  O196  1  0.72801541  0.12099288  0.54809433  1  -1.188098  0  -0.306782  -0.546672  0  2.410059  0
O  O197  1  0.77198821  0.87900261  0.04809435  1  -1.188061  0  -0.30681  -0.546711  0  2.409766  0
O  O198  1  0.27198409  0.62099954  0.95190262  1  -1.187806  0  -0.306788  -0.546711  0  2.409823  0
O  O199  1  0.22800874  0.37900357  0.45190629  1  -1.187788  0  -0.306831  -0.546824  0  2.409946  0
O  O200  1  0.55927815  0.63757415  0.44010851  1  -1.175025  0  -0.314832  -0.532583  0  2.31653  0
O  O201  1  0.94073443  0.36242520  0.94010620  1  -1.175429  0  -0.314812  -0.532571  0  2.316777  0
O  O202  1  0.44072827  0.13758181  0.05989370  1  -1.175147  0  -0.314718  -0.532415  0  2.316736  0
O  O203  1  0.05927114  0.86242328  0.55989527  1  -1.175214  0  -0.314825  -0.532543  0  2.316541  0
