# generated using pymatgen
data_NiH12C15NO4
_symmetry_space_group_name_H-M   'P 1'
_cell_length_a   9.52122157
_cell_length_b   18.38666449
_cell_length_c   18.51934259
_cell_angle_alpha   90.00011051
_cell_angle_beta   89.99992966
_cell_angle_gamma   94.88631046
_symmetry_Int_Tables_number   1
_chemical_formula_structural   NiH12C15NO4
_chemical_formula_sum   'Ni4 H48 C60 N4 O16'
_cell_volume   3230.27835307
_cell_formula_units_Z   4
loop_
 _symmetry_equiv_pos_site_id
 _symmetry_equiv_pos_as_xyz
  1  'x, y, z'
loop_
 _atom_site_type_symbol
 _atom_site_label
 _atom_site_symmetry_multiplicity
 _atom_site_fract_x
 _atom_site_fract_y
 _atom_site_fract_z
 _atom_site_occupancy
 _atom_site_pbe_bader_charge
 _atom_site_pbe_bader_spin_density
 _atom_site_pbe_cm5_charge
 _atom_site_pbe_ddec_charge
 _atom_site_pbe_ddec_spin_density
 _atom_site_pbe_ddec_sum_bond_order
 _atom_site_pbe_magmom
Ni  Ni0  1  0.60834983  0.24746755  0.25000028  1  1.021928  0.37925  0.583088  0.635975  0.422393  2.90168  0.38
Ni  Ni1  1  0.39163863  0.75253295  0.75000022  1  1.021793  0.379382  0.583049  0.6359  0.422547  2.901888  0.38
Ni  Ni2  1  0.35422443  0.25072683  0.25000036  1  1.026374  1.297094  0.549186  0.597324  1.422039  2.67405  1.289
Ni  Ni3  1  0.64576185  0.74927311  0.75000068  1  1.026535  1.296954  0.549171  0.597399  1.421881  2.674144  1.289
H  H4  1  0.66470930  0.05840738  0.11418424  1  0.077784  -1e-06  0.106244  0.111089  -1e-06  1.002986  0.0
H  H5  1  0.33530281  0.94159455  0.61418296  1  0.078019  -1e-06  0.106242  0.11101  -1e-06  1.002952  0.0
H  H6  1  0.33530358  0.94159480  0.88581788  1  0.078025  -1e-06  0.106213  0.111016  -1e-06  1.002997  0.0
H  H7  1  0.66470884  0.05840654  0.38581646  1  0.0778  -1e-06  0.106246  0.111096  -1e-06  1.002995  0.0
H  H8  1  0.75455917  0.42161521  0.11416242  1  0.097806  2e-05  0.103191  0.106022  3.1e-05  1.014879  0.0
H  H9  1  0.24544095  0.57838396  0.61416213  1  0.097842  2e-05  0.103146  0.105953  3.1e-05  1.014791  0.0
H  H10  1  0.24544470  0.57838313  0.88583700  1  0.096691  2e-05  0.103146  0.105965  3.1e-05  1.014733  0.0
H  H11  1  0.75456073  0.42161383  0.38583999  1  0.097879  2e-05  0.103179  0.10602  3.1e-05  1.014881  0.0
H  H12  1  0.75956186  0.95678426  0.04548771  1  0.067044  -4e-05  0.103021  0.103854  -3.7e-05  0.994003  0.0
H  H13  1  0.24045312  0.04321481  0.54549233  1  0.067448  -4e-05  0.103016  0.103816  -3.7e-05  0.993947  0.0
H  H14  1  0.24045471  0.04321465  0.95450739  1  0.067467  -4e-05  0.103018  0.103826  -3.7e-05  0.993927  0.0
H  H15  1  0.75956021  0.95678354  0.45451249  1  0.067066  -4e-05  0.103024  0.103855  -3.7e-05  0.994005  0.0
H  H16  1  0.13300679  0.35402029  0.29776951  1  0.061046  0.000772  0.106846  0.09501  0.000246  0.98204  0.0
H  H17  1  0.86698052  0.64598029  0.79776840  1  0.060919  0.000772  0.106808  0.094943  0.000246  0.982153  0.0
H  H18  1  0.86698062  0.64598020  0.70223045  1  0.06089  0.000772  0.106827  0.094985  0.000247  0.982069  0.0
H  H19  1  0.13300802  0.35402075  0.20223102  1  0.061058  0.000772  0.106834  0.094991  0.000247  0.982087  0.0
H  H20  1  0.88298319  0.35268510  0.20220918  1  0.045894  0.00066  0.103882  0.085964  0.000244  0.993268  0.0
H  H21  1  0.11700414  0.64731422  0.70220801  1  0.04591  0.00066  0.103894  0.085968  0.000244  0.993211  0.0
H  H22  1  0.11700396  0.64731376  0.79779078  1  0.045936  0.00066  0.103884  0.085947  0.000244  0.993225  0.0
H  H23  1  0.88298406  0.35268464  0.29779141  1  0.045877  0.00066  0.103873  0.085951  0.000244  0.99328  0.0
H  H24  1  0.30976131  0.40069210  0.07118910  1  0.10263  0.00021  0.105786  0.110981  0.000174  1.006337  0.0
H  H25  1  0.69024240  0.59930919  0.57119180  1  0.10255  0.00021  0.10574  0.110923  0.000174  1.006442  0.0
H  H26  1  0.69024413  0.59930952  0.92880870  1  0.102515  0.00021  0.105731  0.110938  0.000174  1.006399  0.0
H  H27  1  0.30976112  0.40069352  0.42880978  1  0.102639  0.00021  0.10577  0.110949  0.000174  1.006404  0.0
H  H28  1  0.26340790  0.13209430  0.05640917  1  0.098255  0.00012  0.106099  0.112155  0.00011  1.00313  0.0
H  H29  1  0.73660442  0.86790806  0.55641452  1  0.098519  0.00012  0.106095  0.112135  0.00011  1.003094  0.0
H  H30  1  0.73660507  0.86790842  0.94358593  1  0.098513  0.00012  0.106075  0.112103  0.00011  1.003106  0.0
H  H31  1  0.26340846  0.13209411  0.44359030  1  0.098257  0.00012  0.106098  0.112161  0.00011  1.003149  0.0
H  H32  1  0.79023803  0.52073642  0.02258096  1  0.066974  8.9e-05  0.101967  0.102136  4e-05  0.995314  0.0
H  H33  1  0.20977086  0.47926369  0.52257780  1  0.067069  8.9e-05  0.101927  0.102066  4e-05  0.995458  0.0
H  H34  1  0.20977214  0.47926193  0.97741954  1  0.066872  8.9e-05  0.101927  0.102079  4e-05  0.99544  0.0
H  H35  1  0.79023739  0.52073575  0.47742000  1  0.066968  8.9e-05  0.101976  0.102166  4e-05  0.995354  0.0
H  H36  1  0.11598537  0.24078050  0.13751533  1  0.043496  0.000822  0.107772  0.091972  0.000243  0.969983  0.0
H  H37  1  0.88400026  0.75922033  0.63751498  1  0.0434  0.000823  0.107751  0.091978  0.000243  0.969948  0.0
H  H38  1  0.88400002  0.75922054  0.86248409  1  0.043414  0.000822  0.10775  0.092002  0.000243  0.969942  0.0
H  H39  1  0.11598601  0.24077962  0.36248444  1  0.043399  0.000822  0.107777  0.091984  0.000243  0.970023  0.0
H  H40  1  0.10287677  0.15719148  0.18507580  1  0.062425  0.00076  0.107816  0.095146  0.000243  0.980015  0.0
H  H41  1  0.89711200  0.84280999  0.68507668  1  0.062331  0.00076  0.107801  0.095153  0.000243  0.979991  0.0
H  H42  1  0.89711186  0.84281011  0.81492254  1  0.062334  0.00076  0.107806  0.095151  0.000243  0.979979  0.0
H  H43  1  0.10287550  0.15719105  0.31492274  1  0.062418  0.00076  0.107803  0.095128  0.000243  0.980049  0.0
H  H44  1  0.85430139  0.15625383  0.18524782  1  0.057442  0.000664  0.104917  0.088139  0.000248  0.984471  0.0
H  H45  1  0.14568694  0.84374491  0.68524647  1  0.057162  0.000664  0.104979  0.088179  0.000248  0.984408  0.0
H  H46  1  0.14568681  0.84374503  0.81475269  1  0.057168  0.000664  0.104944  0.088176  0.000248  0.984404  0.0
H  H47  1  0.85430021  0.15625394  0.31475241  1  0.057441  0.000664  0.10492  0.088146  0.000248  0.984461  0.0
H  H48  1  0.86586957  0.23981196  0.13761445  1  0.053958  0.000742  0.108089  0.093004  0.000271  0.965529  0.0
H  H49  1  0.13411798  0.76018778  0.63761403  1  0.053911  0.000742  0.10811  0.093032  0.000271  0.965575  0.0
H  H50  1  0.13411775  0.76018799  0.86238497  1  0.053935  0.000742  0.10811  0.093022  0.000271  0.965563  0.0
H  H51  1  0.86586926  0.23981163  0.36238593  1  0.05395  0.000742  0.108077  0.092994  0.000271  0.965533  0.0
C  C52  1  0.47223953  0.15337853  0.15158583  1  1.524811  -0.001538  0.217614  0.556874  -0.003981  4.146765  -0.002
C  C53  1  0.52775623  0.84662016  0.65158587  1  1.52494  -0.001538  0.217657  0.557033  -0.003981  4.146482  -0.002
C  C54  1  0.52775708  0.84662034  0.84841413  1  1.524841  -0.001538  0.21764  0.556935  -0.003982  4.146693  -0.002
C  C55  1  0.47223924  0.15337817  0.34841463  1  1.5248  -0.001538  0.217636  0.556916  -0.00398  4.146687  -0.002
C  C56  1  0.46561428  0.09975905  0.09107230  1  -0.0041  -0.000709  -0.014905  -0.017108  -0.001225  3.991105  -0.001
C  C57  1  0.53439438  0.90024064  0.59107405  1  -0.004191  -0.000711  -0.014913  -0.017179  -0.001228  3.991054  -0.001
C  C58  1  0.53439502  0.90024039  0.90892605  1  -0.004141  -0.000712  -0.01493  -0.017161  -0.001228  3.991105  -0.001
C  C59  1  0.46561386  0.09975880  0.40892753  1  -0.004099  -0.000709  -0.014885  -0.017075  -0.001226  3.991067  -0.001
C  C60  1  0.57208275  0.05442141  0.07928184  1  -0.008107  0.001127  -0.079046  -0.143583  0.000451  3.933999  0.001
C  C61  1  0.42793032  0.94557936  0.57928051  1  -0.00839  0.001126  -0.078996  -0.143384  0.000451  3.934059  0.001
C  C62  1  0.42793101  0.94557968  0.92071920  1  -0.008423  0.001128  -0.078993  -0.143439  0.000452  3.934149  0.001
C  C63  1  0.57208222  0.05442063  0.42071837  1  -0.008172  0.001127  -0.079066  -0.143611  0.000451  3.933968  0.001
C  C64  1  0.66608762  0.43943505  0.08351991  1  -0.040059  0.000727  -0.089365  -0.102487  0.000391  4.005694  0.001
C  C65  1  0.33391607  0.56056625  0.58351844  1  -0.040119  0.000727  -0.089374  -0.102462  0.000391  4.005593  0.001
C  C66  1  0.33391967  0.56056493  0.91648005  1  -0.038935  0.000727  -0.089392  -0.102478  0.00039  4.005534  0.001
C  C67  1  0.66609025  0.43943427  0.41648206  1  -0.04025  0.000727  -0.089347  -0.102467  0.000391  4.005744  0.001
C  C68  1  0.66745595  0.95398279  0.01018141  1  -0.021707  8.1e-05  -0.090829  -0.135697  -9.6e-05  4.009776  0.0
C  C69  1  0.33255691  0.04601567  0.51018274  1  -0.021967  8.1e-05  -0.090861  -0.135712  -9.5e-05  4.009975  0.0
C  C70  1  0.33255851  0.04601612  0.98981747  1  -0.022013  8.2e-05  -0.090836  -0.135701  -9.5e-05  4.009947  0.0
C  C71  1  0.66745423  0.95398214  0.48981885  1  -0.021724  8.1e-05  -0.090858  -0.135738  -9.5e-05  4.009786  0.0
C  C72  1  0.56113776  0.00220775  0.02296068  1  -0.006297  0.000288  -0.004488  0.079197  9.3e-05  3.999463  0.0
C  C73  1  0.43887621  0.99779128  0.52295998  1  -0.053084  0.000289  -0.004483  0.079214  9.2e-05  3.999768  0.0
C  C74  1  0.43887784  0.99779170  0.97703982  1  -0.053031  0.000289  -0.004519  0.079212  9.2e-05  3.999795  0.0
C  C75  1  0.56113712  0.00220708  0.47703944  1  -0.00624  0.000288  -0.004542  0.079158  9.2e-05  3.999419  0.0
C  C76  1  0.50700231  0.34719044  0.15335983  1  1.534815  -0.001515  0.217221  0.555726  -0.003911  4.145691  -0.002
C  C77  1  0.49299081  0.65281152  0.65336005  1  1.534263  -0.001515  0.217252  0.555687  -0.003912  4.145486  -0.002
C  C78  1  0.49299473  0.65281116  0.84664121  1  1.534609  -0.001514  0.217144  0.555599  -0.003912  4.14566  -0.002
C  C79  1  0.50700395  0.34718898  0.34664045  1  1.534896  -0.001516  0.217198  0.55572  -0.003912  4.145673  -0.002
C  C80  1  0.52913033  0.40555763  0.09748046  1  -0.001455  -0.000794  -0.015432  -0.019695  -0.001231  3.985093  -0.001
C  C81  1  0.47087131  0.59444424  0.59748005  1  -0.00144  -0.000796  -0.015385  -0.019486  -0.001234  3.984991  -0.001
C  C82  1  0.47087502  0.59444344  0.90252004  1  -0.001442  -0.000795  -0.0153  -0.019337  -0.001233  3.984847  -0.001
C  C83  1  0.52913089  0.40555682  0.40251991  1  -0.001512  -0.000793  -0.01544  -0.01969  -0.001231  3.985052  -0.001
C  C84  1  0.41420478  0.42716643  0.05970164  1  -0.056665  -0.000344  -0.077408  -0.137983  -0.000609  3.928302  0.0
C  C85  1  0.58580123  0.57283593  0.55970274  1  -0.056752  -0.000344  -0.077432  -0.138069  -0.000609  3.928303  0.0
C  C86  1  0.58580390  0.57283574  0.94029724  1  -0.056455  -0.000345  -0.077416  -0.138113  -0.000609  3.928265  0.0
C  C87  1  0.41420552  0.42716733  0.44029722  1  -0.056633  -0.000345  -0.077405  -0.137949  -0.000609  3.92839  0.0
C  C88  1  0.34477023  0.09529333  0.04574729  1  -0.078198  0.000356  -0.088535  -0.103632  0.000124  4.00436  0.0
C  C89  1  0.65524273  0.90470628  0.54574951  1  -0.078677  0.000357  -0.088563  -0.103634  0.000124  4.004178  0.0
C  C90  1  0.65524327  0.90470612  0.95425051  1  -0.078685  0.000357  -0.088555  -0.103637  0.000124  4.004185  0.0
C  C91  1  0.34476972  0.09529316  0.45425261  1  -0.078216  0.000357  -0.088519  -0.103631  0.000124  4.00439  0.0
C  C92  1  0.68521350  0.49413454  0.03287561  1  -0.046917  0.000148  -0.089622  -0.133375  -1e-06  4.003402  0.0
C  C93  1  0.31479239  0.50586667  0.53287405  1  -0.04734  0.000148  -0.089595  -0.133365  -1e-06  4.003667  0.0
C  C94  1  0.31479474  0.50586490  0.96712381  1  -0.046633  0.000148  -0.089593  -0.133436  -1e-06  4.00358  0.0
C  C95  1  0.68521507  0.49413440  0.46712483  1  -0.046821  0.000148  -0.089645  -0.133456  -1e-06  4.003545  0.0
C  C96  1  0.43072211  0.48273645  0.00687854  1  -0.065535  -0.000322  -0.004637  0.078493  -0.000425  4.001064  0.0
C  C97  1  0.56928699  0.51726472  0.50687846  1  -0.008904  -0.000321  -0.004572  0.078561  -0.000425  4.000932  0.0
C  C98  1  0.56928833  0.51726354  0.99312088  1  -0.009224  -0.000321  -0.004622  0.078452  -0.000425  4.001018  0.0
C  C99  1  0.43072195  0.48273908  0.49311988  1  -0.065049  -0.000322  -0.004612  0.078412  -0.000425  4.001144  0.0
C  C100  1  0.06821488  0.21255224  0.18490955  1  0.285521  0.001937  -0.071159  -0.091601  0.000971  3.836376  0.001
C  C101  1  0.93177258  0.78744759  0.68490868  1  0.285576  0.001937  -0.071179  -0.091642  0.000971  3.836375  0.001
C  C102  1  0.93177236  0.78744716  0.81509095  1  0.285538  0.001938  -0.071168  -0.091645  0.000971  3.836354  0.001
C  C103  1  0.06821466  0.21255182  0.31508966  1  0.28564  0.001937  -0.071129  -0.09156  0.000971  3.836445  0.001
C  C104  1  0.90516266  0.21210569  0.18515984  1  0.232605  0.004317  -0.070124  -0.087844  0.0025  3.859585  0.003
C  C105  1  0.09482777  0.78789306  0.68515950  1  0.233141  0.004317  -0.070196  -0.087974  0.0025  3.859622  0.003
C  C106  1  0.09482755  0.78789263  0.81483958  1  0.233146  0.004316  -0.070149  -0.087926  0.0025  3.859567  0.003
C  C107  1  0.90516253  0.21210581  0.31484047  1  0.232602  0.004317  -0.070132  -0.087866  0.0025  3.859593  0.003
C  C108  1  0.08560350  0.32646486  0.25000052  1  0.246767  0.00227  -0.071351  -0.094323  0.001111  3.82707  0.001
C  C109  1  0.91439240  0.67353619  0.74999944  1  0.247023  0.00227  -0.071373  -0.09433  0.001111  3.827217  0.001
C  C110  1  0.92202102  0.32537623  0.25000025  1  0.266051  0.00427  -0.06951  -0.086953  0.002593  3.851943  0.003
C  C111  1  0.07797322  0.67462100  0.74999917  1  0.265984  0.004269  -0.069439  -0.086894  0.002593  3.851831  0.003
N  N112  1  0.85702101  0.24952337  0.25000020  1  -0.968549  0.031931  -0.330655  -0.103676  0.018134  3.425177  0.028
N  N113  1  0.14296920  0.75047495  0.74999976  1  -0.968516  0.031933  -0.330684  -0.103483  0.018136  3.425124  0.028
N  N114  1  0.12838291  0.25066944  0.24999989  1  -0.989313  0.061512  -0.335334  -0.084473  0.034447  3.452089  0.056
N  N115  1  0.87160774  0.74933160  0.74999953  1  -0.98947  0.061514  -0.335278  -0.084505  0.034448  3.452381  0.056
O  O116  1  0.38192658  0.32795145  0.17309489  1  -1.129606  0.046843  -0.296884  -0.495494  0.025596  2.39739  0.043
O  O117  1  0.61806738  0.67204946  0.67309561  1  -1.129468  0.046844  -0.29684  -0.495452  0.025597  2.397379  0.043
O  O118  1  0.61807010  0.67205452  0.82690777  1  -1.129905  0.046836  -0.296763  -0.495415  0.025594  2.397459  0.043
O  O119  1  0.38192738  0.32795105  0.32690759  1  -1.129509  0.046846  -0.296829  -0.495459  0.0256  2.397383  0.043
O  O120  1  0.59469684  0.17399614  0.17735887  1  -1.079043  0.004052  -0.288007  -0.465199  0.001366  2.416348  0.004
O  O121  1  0.40529300  0.82600532  0.67735624  1  -1.079179  0.004067  -0.288074  -0.46534  0.001376  2.416236  0.004
O  O122  1  0.40529653  0.82600218  0.82264488  1  -1.079116  0.004058  -0.288083  -0.465326  0.00137  2.416374  0.004
O  O123  1  0.59469975  0.17399574  0.32264318  1  -1.079061  0.004063  -0.288047  -0.465254  0.001373  2.416295  0.004
O  O124  1  0.35635868  0.17508352  0.17265035  1  -1.122014  0.04724  -0.293508  -0.495645  0.025716  2.436122  0.044
O  O125  1  0.64363442  0.82491193  0.67265135  1  -1.122043  0.047229  -0.2935  -0.495709  0.02571  2.436081  0.044
O  O126  1  0.64363810  0.82491645  0.82734691  1  -1.121889  0.047237  -0.29349  -0.495648  0.025714  2.43613  0.044
O  O127  1  0.35636062  0.17508366  0.32734861  1  -1.121972  0.047232  -0.293494  -0.495661  0.025712  2.436132  0.044
O  O128  1  0.61925477  0.32094145  0.17747401  1  -1.059275  0.005128  -0.289162  -0.468235  0.002105  2.420875  0.006
O  O129  1  0.38073935  0.67906056  0.67747436  1  -1.058888  0.005122  -0.289186  -0.468251  0.002102  2.420695  0.006
O  O130  1  0.38073868  0.67905742  0.82252433  1  -1.05882  0.005133  -0.289176  -0.468253  0.002108  2.420752  0.006
O  O131  1  0.61925340  0.32094049  0.32252506  1  -1.059307  0.005116  -0.289192  -0.468262  0.002097  2.420923  0.006
