# generated using pymatgen
data_MnH12C13N8
_symmetry_space_group_name_H-M   'P 1'
_cell_length_a   7.35663142
_cell_length_b   10.03941612
_cell_length_c   9.90437493
_cell_angle_alpha   97.77920132
_cell_angle_beta   95.01613747
_cell_angle_gamma   102.50321042
_symmetry_Int_Tables_number   1
_chemical_formula_structural   MnH12C13N8
_chemical_formula_sum   'Mn2 H24 C26 N16'
_cell_volume   702.40771884
_cell_formula_units_Z   2
loop_
 _symmetry_equiv_pos_site_id
 _symmetry_equiv_pos_as_xyz
  1  'x, y, z'
loop_
 _atom_site_type_symbol
 _atom_site_label
 _atom_site_symmetry_multiplicity
 _atom_site_fract_x
 _atom_site_fract_y
 _atom_site_fract_z
 _atom_site_occupancy
 _atom_site_hle17_ddec_charge
 _atom_site_hle17_ddec_spin_density
 _atom_site_hle17_ddec_sum_bond_order
 _atom_site_hle17_magmom
 _atom_site_hse06_10hf_ddec_charge
 _atom_site_hse06_10hf_ddec_spin_density
 _atom_site_hse06_10hf_ddec_sum_bond_order
 _atom_site_hse06_10hf_magmom
 _atom_site_hse06_ddec_charge
 _atom_site_hse06_ddec_spin_density
 _atom_site_hse06_ddec_sum_bond_order
 _atom_site_hse06_magmom
 _atom_site_pbe_cm5_charge
 _atom_site_pbe_ddec_charge
 _atom_site_pbe_ddec_spin_density
 _atom_site_pbe_ddec_sum_bond_order
 _atom_site_pbe_magmom
Mn  Mn0  1  0.21160803  0.61097060  0.48726546  1  0.958923  4.720414  2.158557  4.567  0.802017  4.585095  2.696243  4.385  0.856376  4.687228  2.633152  4.493  0.662876  0.756785  4.461293  2.747557  4.256
Mn  Mn1  1  0.78842227  0.38903834  0.51271172  1  0.958897  -4.720402  2.158604  -4.567  0.80193  -4.585102  2.696317  -4.385  0.856293  -4.687229  2.633227  -4.493  0.662854  0.75669  -4.461288  2.747645  -4.256
H  H2  1  0.47242448  0.75922120  0.77028774  1  0.074759  -0.000367  0.967218  0.0  0.07783  -0.000128  1.04066  0.0  0.080587  -0.000302  1.038264  0.0  0.115539  0.07588  -2.8e-05  1.0422  0.0
H  H3  1  0.52758329  0.24077621  0.22971419  1  0.074756  0.000365  0.967183  0.0  0.07782  0.000128  1.040628  0.0  0.080577  0.000302  1.03823  0.0  0.11555  0.075877  2.9e-05  1.042164  0.0
H  H4  1  0.58849381  0.99871199  0.90376315  1  0.100076  0.000314  0.952966  0.0  0.112033  0.00042  1.009442  0.0  0.114965  0.000331  1.009225  0.0  0.108309  0.110193  0.000443  1.009334  0.0
H  H5  1  0.41150490  0.00128642  0.09623405  1  0.100088  -0.000315  0.952921  0.0  0.112049  -0.00042  1.009399  0.0  0.114982  -0.000331  1.00918  0.0  0.108337  0.110211  -0.000443  1.00929  0.0
H  H6  1  0.49444381  0.19724083  0.80665229  1  0.103269  0.000253  0.950569  0.0  0.114913  0.000373  1.008388  0.0  0.117599  0.000374  1.006945  0.0  0.111921  0.112963  0.000366  1.009283  0.0
H  H7  1  0.50554906  0.80275754  0.19335247  1  0.103287  -0.000251  0.950631  0.0  0.114926  -0.000374  1.008456  0.0  0.117612  -0.000374  1.007011  0.0  0.1119  0.112979  -0.000366  1.009342  0.0
H  H8  1  0.29144914  0.14638159  0.58052878  1  0.113683  0.000472  0.95053  0.0  0.118262  0.000659  1.018297  0.0  0.12109  0.000568  1.018674  0.0  0.109149  0.116454  0.00073  1.01748  0.0
H  H9  1  0.70854017  0.85361881  0.41947794  1  0.113668  -0.000472  0.950568  0.0  0.118183  -0.000659  1.018402  0.0  0.121005  -0.000569  1.018784  0.0  0.109115  0.116374  -0.00073  1.017587  0.0
H  H10  1  0.11633108  0.98042192  0.38782080  1  0.078589  -6.1e-05  0.980637  0.0  0.085126  0.000102  1.054714  0.0  0.088063  2.9e-05  1.050502  0.0  0.113523  0.082273  0.000476  1.059191  0.0
H  H11  1  0.88365687  0.01957435  0.61218728  1  0.07857  6.4e-05  0.980738  0.0  0.085098  -0.000103  1.054803  0.0  0.088036  -2.9e-05  1.05059  0.0  0.113508  0.082229  -0.000476  1.059298  0.0
H  H12  1  0.08356284  0.94744267  0.18032942  1  0.092749  -6.9e-05  0.991355  0.0  0.100698  -4.5e-05  1.062542  0.0  0.103107  -3.9e-05  1.061449  0.0  0.097215  0.09863  -9e-06  1.064084  0.0
H  H13  1  0.91643814  0.05255884  0.81966941  1  0.092746  7.1e-05  0.991372  0.0  0.100679  4.5e-05  1.06259  0.0  0.103088  3.9e-05  1.061494  0.0  0.09722  0.098609  9e-06  1.064128  0.0
H  H14  1  0.91011278  0.87771902  0.94508539  1  0.082541  4.5e-05  0.977721  0.0  0.093116  5.9e-05  1.041433  0.0  0.095219  4.2e-05  1.040893  0.0  0.094522  0.091494  5.5e-05  1.042044  0.0
H  H15  1  0.08988259  0.12228246  0.05491596  1  0.082538  -4.4e-05  0.977742  0.0  0.093116  -5.9e-05  1.041447  0.0  0.095219  -4.3e-05  1.040909  0.0  0.094533  0.091499  -5.6e-05  1.042058  0.0
H  H16  1  0.73848853  0.63622073  0.86440050  1  0.09131  0.000146  0.969032  0.0  0.098864  0.000275  1.037268  0.0  0.101061  0.000247  1.037312  0.0  0.098656  0.097091  0.000293  1.037356  0.0
H  H17  1  0.26150465  0.36378280  0.13560295  1  0.091288  -0.000147  0.969009  0.0  0.098807  -0.000275  1.037288  0.0  0.101005  -0.000247  1.037332  0.0  0.098656  0.097037  -0.000293  1.037385  0.0
H  H18  1  0.92783975  0.52399159  0.24710291  1  0.106947  0.001496  0.990086  0.0  0.114129  0.002195  1.061776  0.0  0.117398  0.002011  1.059691  0.0  0.107051  0.111297  0.002362  1.064058  0.0
H  H19  1  0.07216091  0.47600889  0.75289575  1  0.106943  -0.001495  0.990055  0.0  0.11412  -0.002195  1.061741  0.0  0.117391  -0.00201  1.05965  0.0  0.107031  0.111281  -0.00236  1.064025  0.0
H  H20  1  0.67090467  0.39693662  0.89268687  1  0.106358  0.000817  0.989452  0.0  0.122038  0.001018  1.060926  0.0  0.123563  0.001002  1.06073  0.0  0.085333  0.120735  0.001046  1.061254  0.0
H  H21  1  0.32908901  0.60306796  0.10731271  1  0.106378  -0.000818  0.989422  0.0  0.122025  -0.001018  1.060922  0.0  0.123547  -0.001002  1.06073  0.0  0.085346  0.120727  -0.001046  1.061253  0.0
H  H22  1  0.57643426  0.39639414  0.05187253  1  0.102366  6.2e-05  0.965788  0.0  0.123321  7.7e-05  1.031718  0.0  0.123703  9.4e-05  1.032782  0.0  0.08651  0.122763  9.4e-05  1.031539  0.0
H  H23  1  0.42355743  0.60360837  0.94812661  1  0.102328  -6.1e-05  0.965837  0.0  0.123295  -7.7e-05  1.031746  0.0  0.123677  -9.4e-05  1.03281  0.0  0.086502  0.122736  -9.4e-05  1.031563  0.0
H  H24  1  0.78869413  0.34323964  0.03383831  1  0.10817  -0.0  0.959351  0.0  0.130492  2.1e-05  1.018569  0.0  0.130996  2.2e-05  1.0204  0.0  0.088158  0.130213  2.2e-05  1.017265  0.0
H  H25  1  0.21129533  0.65675976  0.96615819  1  0.108123  1e-06  0.959351  0.0  0.130427  -2.1e-05  1.018582  0.0  0.130932  -2.2e-05  1.02041  0.0  0.088107  0.130146  -2.2e-05  1.017276  0.0
C  C26  1  0.43477224  0.84827812  0.73336578  1  0.152037  0.002156  3.694048  0.002  0.121792  0.004138  3.945506  0.004  0.129434  0.003521  3.961671  0.003  0.063052  0.116285  0.004764  3.934452  0.004
C  C27  1  0.56523107  0.15171824  0.26663662  1  0.152043  -0.002152  3.694155  -0.002  0.1218  -0.004136  3.945605  -0.004  0.129443  -0.003521  3.961778  -0.003  0.063066  0.116298  -0.004761  3.934546  -0.004
C  C28  1  0.49774955  0.98189289  0.80710301  1  -0.119975  -0.000803  3.715243  -0.001  -0.130813  -0.00029  3.962382  0.0  -0.13713  -0.000819  3.981929  -0.001  -0.080008  -0.126632  2e-05  3.949589  0.0
C  C29  1  0.50224424  0.01810342  0.19289751  1  -0.11994  0.000804  3.715172  0.001  -0.130788  0.000291  3.962324  0.0  -0.137107  0.000819  3.981873  0.001  -0.080043  -0.126606  -2e-05  3.949532  0.0
C  C30  1  0.44577247  0.09147608  0.75360713  1  0.011581  0.002476  3.703747  0.002  -0.008196  0.003834  3.95287  0.003  -0.004133  0.003614  3.970441  0.003  -0.061171  -0.011332  0.003574  3.940946  0.002
C  C31  1  0.55421850  0.90852021  0.24639516  1  0.01151  -0.002477  3.703803  -0.002  -0.008254  -0.003835  3.952889  -0.003  -0.004191  -0.003613  3.970463  -0.003  -0.061153  -0.011384  -0.003573  3.940966  -0.002
C  C32  1  0.33232423  0.06390471  0.62820384  1  -0.123636  -0.000464  3.668042  -0.001  -0.144423  0.00052  3.920823  0.0  -0.150947  -9e-06  3.942422  0.0  -0.069316  -0.139995  0.001158  3.906208  0.001
C  C33  1  0.66767082  0.93609574  0.37179735  1  -0.123562  0.000459  3.668154  0.001  -0.144299  -0.000519  3.920909  0.0  -0.150816  8e-06  3.942501  0.0  -0.069281  -0.139872  -0.001158  3.906298  -0.001
C  C34  1  0.27459437  0.92724693  0.56071041  1  0.183607  0.002132  3.804227  0.002  0.184122  0.004038  4.046044  0.003  0.187901  0.003454  4.068116  0.003  0.113274  0.180817  0.004213  4.032291  0.004
C  C35  1  0.72541081  0.07275047  0.43928825  1  0.183588  -0.002127  3.804265  -0.002  0.184133  -0.004036  4.046007  -0.003  0.187912  -0.003453  4.068077  -0.003  0.113326  0.180832  -0.004211  4.032247  -0.004
C  C36  1  0.15863232  0.89391676  0.42850332  1  0.090848  0.00172  3.642351  0.002  0.052214  0.005741  3.897998  0.004  0.06312  0.004742  3.908529  0.004  0.07899  0.044486  0.007136  3.892252  0.005
C  C37  1  0.84137280  0.10608064  0.57149635  1  0.090814  -0.001723  3.64242  -0.002  0.052203  -0.005735  3.898041  -0.004  0.063106  -0.004743  3.908573  -0.004  0.078955  0.044483  -0.007129  3.892293  -0.005
C  C38  1  0.01261736  0.73930743  0.23038633  1  0.208146  0.000539  3.809741  0.001  0.21356  0.001472  4.051697  0.001  0.216849  0.000997  4.077464  0.001  0.088801  0.210634  0.001571  4.035102  0.001
C  C39  1  0.98738124  0.26069511  0.76961141  1  0.207998  -0.000536  3.809905  -0.001  0.213461  -0.001467  4.051785  -0.001  0.216748  -0.001  4.077552  -0.001  0.088743  0.210534  -0.00157  4.035179  -0.001
C  C40  1  0.00828391  0.84057225  0.14513565  1  -0.17354  0.000984  3.755548  0.001  -0.194593  0.001  4.003877  0.001  -0.19984  0.000701  4.02823  0.001  -0.10173  -0.191253  0.001501  3.987791  0.001
C  C41  1  0.99171500  0.15943234  0.85486946  1  -0.173463  -0.000984  3.755431  -0.001  -0.194516  -0.001003  4.003739  -0.001  -0.199761  -0.000699  4.02809  -0.001  -0.101669  -0.191174  -0.001502  3.987649  -0.001
C  C42  1  0.90996575  0.80193712  0.01414848  1  -0.067371  -6e-05  3.825341  0.0  -0.078759  0.000218  4.075427  0.0  -0.080263  0.000138  4.098767  0.0  -0.099138  -0.077354  0.000173  4.059011  0.0
C  C43  1  0.09003253  0.19806540  0.98585630  1  -0.067346  5e-05  3.82533  0.0  -0.078737  -0.000216  4.075412  0.0  -0.080242  -0.00014  4.098752  0.0  -0.099165  -0.077333  -0.000172  4.059  0.0
C  C44  1  0.81290128  0.66494432  0.96802099  1  -0.131057  0.000422  3.721974  0.0  -0.152687  0.000591  3.967073  0.0  -0.157047  0.000342  3.990093  0.0  -0.094  -0.149071  0.001245  3.950771  0.001
C  C45  1  0.18709969  0.33505720  0.03197783  1  -0.131022  -0.000412  3.72197  0.0  -0.152638  -0.000592  3.967095  0.0  -0.156997  -0.00034  3.990115  0.0  -0.09399  -0.149027  -0.001246  3.950801  -0.001
C  C46  1  0.81472924  0.56329396  0.05178562  1  0.161927  -0.000219  3.745362  0.0  0.193656  5.1e-05  3.972341  0.0  0.195058  1.7e-05  3.997112  0.0  -0.003089  0.192623  -7.4e-05  3.955085  0.0
C  C47  1  0.18527146  0.43670652  0.94821203  1  0.161884  0.000212  3.745294  0.0  0.193629  -4.9e-05  3.972234  0.0  0.195029  -1.9e-05  3.997009  0.0  -0.003056  0.192596  7.4e-05  3.954982  0.0
C  C48  1  0.91922837  0.60175509  0.18158050  1  -0.179363  0.001671  3.644237  0.001  -0.207271  0.002848  3.884961  0.002  -0.212167  0.00242  3.90584  0.001  -0.083257  -0.204057  0.003639  3.871717  0.002
C  C49  1  0.08076828  0.39824538  0.81841578  1  -0.179349  -0.001667  3.644285  -0.001  -0.207246  -0.002848  3.884944  -0.002  -0.212139  -0.002416  3.905825  -0.001  -0.083302  -0.204026  -0.003638  3.871689  -0.002
C  C50  1  0.70740830  0.41675729  0.00446860  1  -0.345039  0.000491  3.723943  0.0  -0.425738  0.000738  3.956542  0.001  -0.428217  0.000732  3.966863  0.001  -0.247478  -0.423772  0.000663  3.949823  0.001
C  C51  1  0.29258512  0.58324625  0.99552981  1  -0.344971  -0.000491  3.723879  0.0  -0.425639  -0.000738  3.956526  -0.001  -0.428115  -0.000732  3.966846  -0.001  -0.247438  -0.42368  -0.000663  3.949806  -0.001
N  N52  1  0.32627101  0.82097259  0.61287848  1  -0.340367  0.027319  3.233103  0.017  -0.273413  0.030433  3.492997  0.017  -0.292325  0.027439  3.510229  0.014  -0.308734  -0.259554  0.03264  3.48112  0.019
N  N53  1  0.67373367  0.17902276  0.38711683  1  -0.340411  -0.027316  3.233246  -0.017  -0.27347  -0.030432  3.493159  -0.017  -0.292371  -0.027436  3.510362  -0.014  -0.308772  -0.259619  -0.032636  3.481317  -0.019
N  N54  1  0.11278687  0.76847711  0.36316044  1  -0.317015  0.026124  3.200891  0.016  -0.253807  0.030114  3.46734  0.017  -0.271052  0.027328  3.482134  0.015  -0.29451  -0.240615  0.030585  3.457453  0.017
N  N55  1  0.88721990  0.23152133  0.63684052  1  -0.316901  -0.026122  3.20087  -0.016  -0.253733  -0.030112  3.467299  -0.017  -0.270982  -0.02732  3.482109  -0.015  -0.294452  -0.240534  -0.030584  3.457395  -0.017
N  N56  1  0.41356102  0.60402658  0.34821789  1  -0.491377  -0.054252  2.663841  -0.071  -0.477417  -0.041267  2.966786  -0.06  -0.497558  -0.050205  2.971332  -0.069  -0.255864  -0.46025  -0.034498  2.963126  -0.053
N  N57  1  0.58644468  0.39597390  0.65179032  1  -0.491224  0.054228  2.664084  0.071  -0.477242  0.041254  2.966935  0.06  -0.497374  0.050172  2.971481  0.069  -0.255748  -0.460084  0.034482  2.963265  0.053
N  N58  1  0.52413953  0.53379289  0.35607840  1  0.400606  0.001197  4.19387  0.001  0.438389  0.002853  4.464  0.002  0.455846  0.002069  4.496708  0.001  0.096995  0.425476  0.003844  4.439595  0.003
N  N59  1  0.47587051  0.46620349  0.64392662  1  0.400545  -0.00119  4.194114  -0.001  0.438371  -0.002841  4.464213  -0.002  0.455828  -0.002061  4.496924  -0.001  0.096977  0.425456  -0.003821  4.439806  -0.003
N  N60  1  0.63360185  0.46338159  0.35943495  1  -0.464101  0.05613  2.708753  0.073  -0.444703  0.043174  3.006746  0.061  -0.46451  0.050774  3.012873  0.069  -0.234539  -0.428251  0.038765  3.002259  0.056
N  N61  1  0.36640619  0.53661997  0.64055946  1  -0.464191  -0.056083  2.708408  -0.073  -0.444917  -0.04313  3.00653  -0.061  -0.464732  -0.050716  3.012662  -0.069  -0.234624  -0.428458  -0.038726  3.00204  -0.056
N  N62  1  0.04713851  0.40026258  0.40808538  1  -0.58687  0.000104  2.826589  -0.001  -0.547107  -0.000475  3.156093  -0.002  -0.577473  -8.8e-05  3.159868  -0.002  -0.296013  -0.522557  -0.00213  3.15362  -0.004
N  N63  1  0.95286430  0.59973172  0.59191367  1  -0.586977  -0.000101  2.826007  0.002  -0.547306  0.000457  3.155603  0.002  -0.577684  8.8e-05  3.159376  0.002  -0.296078  -0.52275  0.002117  3.153125  0.004
N  N64  1  0.10351995  0.29886936  0.37075946  1  0.411158  2.5e-05  4.19732  0.0  0.442392  -0.000556  4.48085  0.0  0.459719  -0.000162  4.512423  0.0  0.097807  0.430029  -0.000655  4.457222  0.0
N  N65  1  0.89647642  0.70113522  0.62924137  1  0.411232  -2.9e-05  4.197133  0.0  0.442503  0.000542  4.480641  0.0  0.459832  0.000164  4.512201  0.0  0.097871  0.43014  0.000645  4.45702  0.0
N  N66  1  0.15471324  0.19892899  0.33461245  1  -0.399937  -0.00022  2.412225  0.0  -0.399952  -0.001804  2.649062  -0.002  -0.408914  -0.001395  2.659848  -0.001  -0.18885  -0.392352  -0.003127  2.641756  -0.003
N  N67  1  0.84529581  0.80106741  0.66538441  1  -0.39987  0.000167  2.412535  0.0  -0.399874  0.001783  2.649333  0.002  -0.408828  0.00135  2.660117  0.001  -0.188811  -0.392262  0.003081  2.64199  0.003
