# generated using pymatgen
data_ReAgH6C5(NO2)2
_symmetry_space_group_name_H-M   'P 1'
_cell_length_a   7.14497149
_cell_length_b   8.01017846
_cell_length_c   15.62256964
_cell_angle_alpha   89.99926387
_cell_angle_beta   90.00020947
_cell_angle_gamma   93.38141961
_symmetry_Int_Tables_number   1
_chemical_formula_structural   ReAgH6C5(NO2)2
_chemical_formula_sum   'Re4 Ag4 H24 C20 N8 O16'
_cell_volume   892.56201183
_cell_formula_units_Z   4
loop_
 _symmetry_equiv_pos_site_id
 _symmetry_equiv_pos_as_xyz
  1  'x, y, z'
loop_
 _atom_site_type_symbol
 _atom_site_label
 _atom_site_symmetry_multiplicity
 _atom_site_fract_x
 _atom_site_fract_y
 _atom_site_fract_z
 _atom_site_occupancy
 _atom_site_hle17_bader_spin_density
 _atom_site_hle17_ddec_charge
 _atom_site_hle17_ddec_spin_density
 _atom_site_hle17_ddec_sum_bond_order
 _atom_site_hle17_magmom
 _atom_site_hse06_10hf_bader_spin_density
 _atom_site_hse06_10hf_ddec_charge
 _atom_site_hse06_10hf_ddec_spin_density
 _atom_site_hse06_10hf_ddec_sum_bond_order
 _atom_site_hse06_10hf_magmom
 _atom_site_hse06_bader_spin_density
 _atom_site_hse06_ddec_charge
 _atom_site_hse06_ddec_spin_density
 _atom_site_hse06_ddec_sum_bond_order
 _atom_site_hse06_magmom
 _atom_site_pbe_bader_spin_density
 _atom_site_pbe_cm5_charge
 _atom_site_pbe_ddec_charge
 _atom_site_pbe_ddec_spin_density
 _atom_site_pbe_ddec_sum_bond_order
 _atom_site_pbe_magmom
Re  Re0  1  0.44994983  0.87999441  0.37134738  1  0  1.931674  0  5.072739  0  0  1.979309  0  5.751766  0  0  2.063135  0  5.715142  0  0  1.321362  1.922729  0  5.776406  0
Re  Re1  1  0.55006461  0.62001976  0.87133841  1  0  1.931871  0  5.072254  0  0  1.979545  0  5.751229  0  0  2.063382  0  5.714593  0  0  1.321527  1.922973  0  5.775868  0
Re  Re2  1  0.55004196  0.12000591  0.62865528  1  0  1.93157  0  5.072809  0  0  1.97924  0  5.751831  0  0  2.063071  0  5.715206  0  0  1.321338  1.922663  0  5.776464  0
Re  Re3  1  0.44994685  0.37998194  0.12865721  1  0  1.931635  0  5.072778  0  0  1.979281  0  5.751784  0  0  2.063113  0  5.715159  0  0  1.321426  1.922709  0  5.776417  0
Ag  Ag4  1  0.44363232  0.62791570  0.60159586  1  0  0.622117  0  1.433967  0  0  0.513605  0  1.871498  0  0  0.535842  0  1.825844  0  0  0.503106  0.500505  0  1.902318  0
Ag  Ag5  1  0.55637342  0.87208130  0.10159801  1  0  0.622089  0  1.433991  0  0  0.513563  0  1.871523  0  0  0.5358  0  1.825856  0  0  0.503093  0.500451  0  1.902339  0
Ag  Ag6  1  0.55636087  0.37208463  0.39840488  1  0  0.622114  0  1.434049  0  0  0.513616  0  1.871601  0  0  0.535846  0  1.825933  0  0  0.503089  0.500506  0  1.902422  0
Ag  Ag7  1  0.44363414  0.12792538  0.89840337  1  0  0.622117  0  1.433988  0  0  0.513602  0  1.871522  0  0  0.535837  0  1.825839  0  0  0.50309  0.500493  0  1.902335  0
H  H8  1  0.13673698  0.78815639  0.50173506  1  0  0.095932  0  0.970762  0  0  0.102978  0  1.037047  0  0  0.104941  0  1.035805  0  0  0.119423  0.101491  0  1.038116  0
H  H9  1  0.86326916  0.71183681  0.00174135  1  0  0.095866  0  0.970725  0  0  0.102916  0  1.037032  0  0  0.104876  0  1.035783  0  0  0.119433  0.101424  0  1.038106  0
H  H10  1  0.86325872  0.21183895  0.49826184  1  0  0.095949  0  0.970749  0  0  0.103003  0  1.037015  0  0  0.104962  0  1.035768  0  0  0.119446  0.101516  0  1.038083  0
H  H11  1  0.13673907  0.28815737  0.99826515  1  0  0.095936  0  0.970749  0  0  0.102989  0  1.037033  0  0  0.104951  0  1.035783  0  0  0.119434  0.1015  0  1.038103  0
H  H12  1  0.78534390  0.79854042  0.50163955  1  0  0.098445  0  0.947507  0  0  0.106064  0  1.012661  0  0  0.107867  0  1.01184  0  0  0.125433  0.104744  0  1.013366  0
H  H13  1  0.21466643  0.70145281  0.00164995  1  0  0.098566  0  0.947372  0  0  0.106076  0  1.012618  0  0  0.107881  0  1.011797  0  0  0.125481  0.104754  0  1.013327  0
H  H14  1  0.21465054  0.20145742  0.49835671  1  0  0.098484  0  0.947525  0  0  0.106133  0  1.012637  0  0  0.107937  0  1.011816  0  0  0.125465  0.104814  0  1.013341  0
H  H15  1  0.78534334  0.29854388  0.99835655  1  0  0.098564  0  0.947418  0  0  0.106083  0  1.012663  0  0  0.107885  0  1.011844  0  0  0.125471  0.104763  0  1.013367  0
H  H16  1  0.75069374  0.45537285  0.70123715  1  0  0.088907  0  0.955112  0  0  0.092797  0  1.030874  0  0  0.094593  0  1.029981  0  0  0.123037  0.091406  0  1.031721  0
H  H17  1  0.24930857  0.04462081  0.20124544  1  0  0.088841  0  0.955207  0  0  0.092761  0  1.030994  0  0  0.094562  0  1.030098  0  0  0.123047  0.09137  0  1.031838  0
H  H18  1  0.24930211  0.54462500  0.29875975  1  0  0.088826  0  0.955082  0  0  0.092731  0  1.030838  0  0  0.094531  0  1.029945  0  0  0.123033  0.091341  0  1.031682  0
H  H19  1  0.75069905  0.95538712  0.79875786  1  0  0.088909  0  0.955108  0  0  0.092762  0  1.030957  0  0  0.09456  0  1.030067  0  0  0.123025  0.091371  0  1.031803  0
H  H20  1  0.27554119  0.40651641  0.70648765  1  0  0.116066  0  0.99568  0  0  0.129146  0  1.076042  0  0  0.131527  0  1.073671  0  0  0.091294  0.127213  0  1.077904  0
H  H21  1  0.72445886  0.09348585  0.20648681  1  0  0.116075  0  0.995692  0  0  0.129156  0  1.076051  0  0  0.131537  0  1.073684  0  0  0.091291  0.127223  0  1.077914  0
H  H22  1  0.72444765  0.59348139  0.29350989  1  0  0.115996  0  0.995688  0  0  0.129069  0  1.076067  0  0  0.131447  0  1.073708  0  0  0.091251  0.127139  0  1.077925  0
H  H23  1  0.27554302  0.90651954  0.79351201  1  0  0.116054  0  0.995653  0  0  0.129141  0  1.076011  0  0  0.131526  0  1.073636  0  0  0.09128  0.127209  0  1.077874  0
H  H24  1  0.07023721  0.26886366  0.70083842  1  0  0.132384  0  0.934527  0  0  0.155968  0  0.990727  0  0  0.156533  0  0.991723  0  0  0.101004  0.155553  0  0.989989  0
H  H25  1  0.92976679  0.23113502  0.20083316  1  0  0.132373  0  0.934499  0  0  0.155958  0  0.990708  0  0  0.15652  0  0.991703  0  0  0.101003  0.155542  0  0.989971  0
H  H26  1  0.92975429  0.73113166  0.29915912  1  0  0.132303  0  0.934461  0  0  0.155899  0  0.990679  0  0  0.156467  0  0.991671  0  0  0.100958  0.155483  0  0.989939  0
H  H27  1  0.07023509  0.76887037  0.79916437  1  0  0.132339  0  0.934518  0  0  0.155918  0  0.99074  0  0  0.156482  0  0.991734  0  0  0.100968  0.155503  0  0.990002  0
H  H28  1  0.08922367  0.42587908  0.78092333  1  0  0.142027  0  0.92624  0  0  0.166589  0  0.978588  0  0  0.167633  0  0.978947  0  0  0.103116  0.165828  0  0.978314  0
H  H29  1  0.91077554  0.07412259  0.28092357  1  0  0.142059  0  0.926193  0  0  0.166631  0  0.978525  0  0  0.167677  0  0.978883  0  0  0.103128  0.165871  0  0.978252  0
H  H30  1  0.91076784  0.57411624  0.21907421  1  0  0.141971  0  0.926297  0  0  0.166528  0  0.978658  0  0  0.167571  0  0.97902  0  0  0.103095  0.165766  0  0.978386  0
H  H31  1  0.08922391  0.92588903  0.71907653  1  0  0.141993  0  0.92628  0  0  0.166569  0  0.978606  0  0  0.167614  0  0.978966  0  0  0.103118  0.165811  0  0.978331  0
C  C32  1  0.03237674  0.51531125  0.65491875  1  0  0.270638  0  3.70212  0  0  0.281997  0  3.940127  0  0  0.286517  0  3.963102  0  0  0.133685  0.278643  0  3.924993  0
C  C33  1  0.96762654  0.98468442  0.15492084  1  0  0.270717  0  3.702066  0  0  0.281968  0  3.940258  0  0  0.286488  0  3.963235  0  0  0.133762  0.27863  0  3.925095  0
C  C34  1  0.96761203  0.48468530  0.34507943  1  0  0.27062  0  3.701991  0  0  0.281917  0  3.940097  0  0  0.286447  0  3.963065  0  0  0.133703  0.278564  0  3.924965  0
C  C35  1  0.03237940  0.01531850  0.84508054  1  0  0.270701  0  3.702215  0  0  0.281914  0  3.940431  0  0  0.28644  0  3.963409  0  0  0.13371  0.278575  0  3.92527  0
C  C36  1  0.05022384  0.71173637  0.54573953  1  0  0.093993  0  3.648185  0  0  0.067558  0  3.891635  0  0  0.070773  0  3.910377  0  0  0.053785  0.065074  0  3.879604  0
C  C37  1  0.94978405  0.78825701  0.04574737  1  0  0.094119  0  3.648122  0  0  0.067679  0  3.891566  0  0  0.070909  0  3.910299  0  0  0.053815  0.065222  0  3.879493  0
C  C38  1  0.94977179  0.28825773  0.45425673  1  0  0.094007  0  3.648283  0  0  0.067589  0  3.891708  0  0  0.070814  0  3.910448  0  0  0.053814  0.065105  0  3.879686  0
C  C39  1  0.05022565  0.21173843  0.95425913  1  0  0.094001  0  3.648284  0  0  0.067579  0  3.891698  0  0  0.070804  0  3.910436  0  0  0.053797  0.065095  0  3.879672  0
C  C40  1  0.85666517  0.71934063  0.54605190  1  0  0.082684  0  3.657475  0  0  0.051133  0  3.907363  0  0  0.053123  0  3.925734  0  0  0.054107  0.04951  0  3.895527  0
C  C41  1  0.14334104  0.78064773  0.04606102  1  0  0.082567  0  3.657135  0  0  0.051116  0  3.907083  0  0  0.053099  0  3.925451  0  0  0.054071  0.049482  0  3.895262  0
C  C42  1  0.14332766  0.28065344  0.45394372  1  0  0.082705  0  3.657642  0  0  0.051143  0  3.907517  0  0  0.053125  0  3.925885  0  0  0.054082  0.049519  0  3.895683  0
C  C43  1  0.85666734  0.21934895  0.95394612  1  0  0.082576  0  3.657463  0  0  0.051106  0  3.9074  0  0  0.053089  0  3.925763  0  0  0.054046  0.049479  0  3.895568  0
C  C44  1  0.83746515  0.52776436  0.65556331  1  0  0.023685  0  3.643378  0  0  -0.01382  0  3.893819  0  0  -0.013625  0  3.91472  0  0  0.058249  -0.014215  0  3.880341  0
C  C45  1  0.16253505  0.97222627  0.15557119  1  0  0.023943  0  3.643594  0  0  -0.013579  0  3.894027  0  0  -0.013387  0  3.914926  0  0  0.058344  -0.013979  0  3.880545  0
C  C46  1  0.16252510  0.47223345  0.34443294  1  0  0.024042  0  3.643266  0  0  -0.013395  0  3.893616  0  0  -0.013214  0  3.914514  0  0  0.058355  -0.01379  0  3.880136  0
C  C47  1  0.83747236  0.02777790  0.84443275  1  0  0.023771  0  3.643785  0  0  -0.01365  0  3.8942  0  0  -0.013467  0  3.915098  0  0  0.058332  -0.014051  0  3.880718  0
C  C48  1  0.12283325  0.39813306  0.71395879  1  0  -0.378866  0  3.692975  0  0  -0.462393  0  3.922914  0  0  -0.465523  0  3.932304  0  0  -0.237951  -0.45979  0  3.916485  0
C  C49  1  0.87716670  0.10186651  0.21395751  1  0  -0.378922  0  3.692881  0  0  -0.462414  0  3.922836  0  0  -0.465543  0  3.932223  0  0  -0.237969  -0.459818  0  3.916402  0
C  C50  1  0.87716112  0.60186352  0.28603938  1  0  -0.378618  0  3.692838  0  0  -0.462134  0  3.922806  0  0  -0.465271  0  3.932196  0  0  -0.237831  -0.45953  0  3.916376  0
C  C51  1  0.12283363  0.89813636  0.78604195  1  0  -0.378785  0  3.692828  0  0  -0.462267  0  3.922805  0  0  -0.465398  0  3.932189  0  0  -0.237917  -0.459671  0  3.916368  0
N  N52  1  0.13762970  0.60988650  0.59934828  1  0  -0.300435  0  3.244159  0  0  -0.225376  0  3.507104  0  0  -0.240833  0  3.523121  0  0  -0.321132  -0.215179  0  3.4966  0
N  N53  1  0.86237139  0.89010302  0.09935146  1  0  -0.300526  0  3.24432  0  0  -0.225418  0  3.507314  0  0  -0.240874  0  3.523324  0  0  -0.321165  -0.215229  0  3.496807  0
N  N54  1  0.86236180  0.39010882  0.40064990  1  0  -0.300552  0  3.244282  0  0  -0.225502  0  3.507273  0  0  -0.240963  0  3.523283  0  0  -0.321185  -0.215305  0  3.496766  0
N  N55  1  0.13763558  0.10989365  0.90065184  1  0  -0.30051  0  3.244258  0  0  -0.225402  0  3.507252  0  0  -0.240863  0  3.523263  0  0  -0.321151  -0.215212  0  3.496741  0
N  N56  1  0.75022983  0.62663393  0.60131320  1  0  -0.229444  0  3.32203  0  0  -0.149977  0  3.593162  0  0  -0.162498  0  3.608765  0  0  -0.318938  -0.14189  0  3.583188  0
N  N57  1  0.24977156  0.87336054  0.10132251  1  0  -0.229674  0  3.321954  0  0  -0.150227  0  3.593167  0  0  -0.162743  0  3.608763  0  0  -0.319119  -0.142141  0  3.583202  0
N  N58  1  0.24976034  0.37336263  0.39868242  1  0  -0.229738  0  3.322293  0  0  -0.150375  0  3.593612  0  0  -0.162874  0  3.609189  0  0  -0.319071  -0.142282  0  3.583638  0
N  N59  1  0.75023717  0.12664239  0.89868271  1  0  -0.22957  0  3.322288  0  0  -0.150147  0  3.593483  0  0  -0.16264  0  3.609053  0  0  -0.318997  -0.142062  0  3.583513  0
O  O60  1  0.47994484  0.70542766  0.43732624  1  0  -0.724462  0  1.685293  0  0  -0.72713  0  2.023013  0  0  -0.750283  0  2.006398  0  0  -0.480179  -0.711693  0  2.034216  0
O  O61  1  0.52006481  0.79456735  0.93732439  1  0  -0.72438  0  1.685279  0  0  -0.727091  0  2.023014  0  0  -0.750254  0  2.006405  0  0  -0.480154  -0.71163  0  2.034138  0
O  O62  1  0.52003966  0.29456761  0.56267322  1  0  -0.7244  0  1.685365  0  0  -0.727065  0  2.023068  0  0  -0.750216  0  2.006456  0  0  -0.480117  -0.711616  0  2.034251  0
O  O63  1  0.47994762  0.20542685  0.06267635  1  0  -0.724321  0  1.685283  0  0  -0.72703  0  2.023066  0  0  -0.750195  0  2.006462  0  0  -0.480148  -0.711571  0  2.034194  0
O  O64  1  0.21634364  0.93668611  0.37711301  1  0  -0.673784  0  1.481514  0  0  -0.675063  0  1.734334  0  0  -0.697553  0  1.726115  0  0  -0.478766  -0.659442  0  1.73988  0
O  O65  1  0.78367443  0.56334170  0.87710673  1  0  -0.673786  0  1.481429  0  0  -0.675058  0  1.734185  0  0  -0.697542  0  1.725947  0  0  -0.478845  -0.659447  0  1.739729  0
O  O66  1  0.78364955  0.06331422  0.62288837  1  0  -0.673711  0  1.481446  0  0  -0.675029  0  1.734283  0  0  -0.697509  0  1.726032  0  0  -0.478766  -0.659412  0  1.739826  0
O  O67  1  0.21633599  0.43666625  0.12288825  1  0  -0.67369  0  1.481468  0  0  -0.675021  0  1.734296  0  0  -0.697513  0  1.726079  0  0  -0.478799  -0.659401  0  1.739842  0
O  O68  1  0.60570815  0.04580491  0.40412593  1  0  -0.695946  0  1.58814  0  0  -0.700769  0  1.888903  0  0  -0.72542  0  1.877519  0  0  -0.474115  -0.684098  0  1.896557  0
O  O69  1  0.39431895  0.45420267  0.90411705  1  0  -0.696021  0  1.588272  0  0  -0.700806  0  1.888975  0  0  -0.725472  0  1.8776  0  0  -0.474148  -0.684143  0  1.89663  0
O  O70  1  0.39428475  0.95419041  0.59588377  1  0  -0.695902  0  1.588258  0  0  -0.700742  0  1.88904  0  0  -0.7254  0  1.877654  0  0  -0.474123  -0.684078  0  1.896688  0
O  O71  1  0.60570070  0.54579534  0.09587921  1  0  -0.69595  0  1.588376  0  0  -0.70076  0  1.889131  0  0  -0.725415  0  1.877748  0  0  -0.4741  -0.684097  0  1.896787  0
O  O72  1  0.50049937  0.82311917  0.26560060  1  0  -0.695608  0  1.605763  0  0  -0.692559  0  1.907444  0  0  -0.7167  0  1.894839  0  0  -0.476506  -0.676335  0  1.916093  0
O  O73  1  0.49950126  0.67691252  0.76558925  1  0  -0.695794  0  1.605312  0  0  -0.692797  0  1.907052  0  0  -0.716943  0  1.894452  0  0  -0.47659  -0.67657  0  1.9157  0
O  O74  1  0.49949874  0.17689370  0.73440206  1  0  -0.695662  0  1.605722  0  0  -0.692633  0  1.907397  0  0  -0.716775  0  1.894795  0  0  -0.476542  -0.676405  0  1.916046  0
O  O75  1  0.50049951  0.32309787  0.23440701  1  0  -0.695768  0  1.605526  0  0  -0.692695  0  1.907195  0  0  -0.71683  0  1.894587  0  0  -0.476596  -0.676476  0  1.915843  0
