# generated using pymatgen
data_CdH12(C8O3)2
_symmetry_space_group_name_H-M   'P 1'
_cell_length_a   7.53403867
_cell_length_b   7.81876760
_cell_length_c   12.69573739
_cell_angle_alpha   107.93203196
_cell_angle_beta   99.27946089
_cell_angle_gamma   90.01614090
_symmetry_Int_Tables_number   1
_chemical_formula_structural   CdH12(C8O3)2
_chemical_formula_sum   'Cd2 H24 C32 O12'
_cell_volume   701.23202993
_cell_formula_units_Z   2
loop_
 _symmetry_equiv_pos_site_id
 _symmetry_equiv_pos_as_xyz
  1  'x, y, z'
loop_
 _atom_site_type_symbol
 _atom_site_label
 _atom_site_symmetry_multiplicity
 _atom_site_fract_x
 _atom_site_fract_y
 _atom_site_fract_z
 _atom_site_occupancy
 _atom_site_hle17_bader_spin_density
 _atom_site_hle17_ddec_charge
 _atom_site_hle17_ddec_spin_density
 _atom_site_hle17_ddec_sum_bond_order
 _atom_site_hle17_magmom
 _atom_site_hse06_10hf_bader_spin_density
 _atom_site_hse06_10hf_ddec_charge
 _atom_site_hse06_10hf_ddec_spin_density
 _atom_site_hse06_10hf_ddec_sum_bond_order
 _atom_site_hse06_10hf_magmom
 _atom_site_hse06_bader_spin_density
 _atom_site_hse06_ddec_charge
 _atom_site_hse06_ddec_spin_density
 _atom_site_hse06_ddec_sum_bond_order
 _atom_site_hse06_magmom
 _atom_site_pbe_bader_spin_density
 _atom_site_pbe_cm5_charge
 _atom_site_pbe_ddec_charge
 _atom_site_pbe_ddec_spin_density
 _atom_site_pbe_ddec_sum_bond_order
 _atom_site_pbe_magmom
Cd  Cd0  1  0.25006853  0.01569717  0.00008154  1  0  1.268078  0  1.528773  0  0  1.074798  0  1.959987  0  0  1.143909  0  1.898072  0  0  0.795819  1.024768  0  2.002513  0
Cd  Cd1  1  0.74992823  0.98430350  0.99991923  1  0  1.268068  0  1.528745  0  0  1.074766  0  1.959977  0  0  1.143877  0  1.898065  0  0  0.795816  1.024732  0  2.002502  0
H  H2  1  0.42306543  0.52267317  0.67508493  1  0  0.113658  0  0.979797  0  0  0.124775  0  1.041069  0  0  0.12836  0  1.039104  0  0  0.107413  0.122158  0  1.042687  0
H  H3  1  0.07711556  0.84780597  0.32490326  1  0  0.113978  0  0.979238  0  0  0.125023  0  1.040651  0  0  0.12859  0  1.038684  0  0  0.107462  0.122466  0  1.042181  0
H  H4  1  0.57693902  0.47732076  0.32491451  1  0  0.113631  0  0.979925  0  0  0.124741  0  1.041198  0  0  0.128325  0  1.039235  0  0  0.107392  0.122123  0  1.042814  0
H  H5  1  0.92287917  0.15218260  0.67509418  1  0  0.113892  0  0.979302  0  0  0.124943  0  1.040727  0  0  0.128509  0  1.038761  0  0  0.107418  0.122384  0  1.042256  0
H  H6  1  0.77352770  0.56532330  0.44537715  1  0  0.097294  0  0.964104  0  0  0.109486  0  1.022888  0  0  0.112603  0  1.021654  0  0  0.101964  0.107276  0  1.023879  0
H  H7  1  0.72631939  0.11936943  0.55455796  1  0  0.09655  0  0.964841  0  0  0.108887  0  1.023485  0  0  0.111958  0  1.022319  0  0  0.101596  0.10668  0  1.024469  0
H  H8  1  0.22647714  0.43467737  0.55462284  1  0  0.097289  0  0.964109  0  0  0.10948  0  1.02289  0  0  0.112595  0  1.021661  0  0  0.101969  0.10727  0  1.023885  0
H  H9  1  0.27368271  0.88062993  0.44543915  1  0  0.096549  0  0.96477  0  0  0.108898  0  1.023402  0  0  0.111963  0  1.022243  0  0  0.101588  0.106689  0  1.024387  0
H  H10  1  0.01793865  0.68485678  0.60567059  1  0  0.100759  0  0.958876  0  0  0.10923  0  1.023012  0  0  0.111874  0  1.022078  0  0  0.103918  0.107343  0  1.02368  0
H  H11  1  0.48203894  0.07863412  0.39420036  1  0  0.100659  0  0.958726  0  0  0.109147  0  1.022925  0  0  0.111776  0  1.021915  0  0  0.104296  0.107264  0  1.023607  0
H  H12  1  0.98206729  0.31513982  0.39433030  1  0  0.1007  0  0.958837  0  0  0.109194  0  1.022957  0  0  0.111825  0  1.022026  0  0  0.103877  0.107306  0  1.023623  0
H  H13  1  0.51796075  0.92137060  0.60579991  1  0  0.100662  0  0.958742  0  0  0.109159  0  1.022937  0  0  0.111788  0  1.021928  0  0  0.104304  0.107284  0  1.023601  0
H  H14  1  0.52219933  0.40964914  0.83179441  1  0  0.085531  0  0.954335  0  0  0.101006  0  1.022574  0  0  0.101054  0  1.02285  0  0  0.095568  0.100895  0  1.02243  0
H  H15  1  0.97775483  0.57784144  0.16829662  1  0  0.084921  0  0.955416  0  0  0.100977  0  1.023128  0  0  0.101043  0  1.023399  0  0  0.095485  0.100848  0  1.02299  0
H  H16  1  0.47779868  0.59035017  0.16820701  1  0  0.085517  0  0.954306  0  0  0.100997  0  1.022547  0  0  0.101045  0  1.022822  0  0  0.095573  0.100883  0  1.022404  0
H  H17  1  0.02224044  0.42215655  0.83170270  1  0  0.084958  0  0.955388  0  0  0.101037  0  1.023064  0  0  0.101103  0  1.023335  0  0  0.095482  0.1009  0  1.022936  0
H  H18  1  0.38846411  0.60433317  0.84234586  1  0  0.103275  0  0.974708  0  0  0.118653  0  1.039884  0  0  0.120267  0  1.038411  0  0  0.098234  0.117428  0  1.041023  0
H  H19  1  0.11149137  0.76192631  0.15763470  1  0  0.10435  0  0.973752  0  0  0.119387  0  1.039354  0  0  0.121018  0  1.037879  0  0  0.098487  0.118157  0  1.040473  0
H  H20  1  0.61153809  0.39566882  0.15765649  1  0  0.103239  0  0.974715  0  0  0.118615  0  1.039904  0  0  0.120229  0  1.038432  0  0  0.098214  0.117389  0  1.041045  0
H  H21  1  0.88850382  0.23807034  0.84236434  1  0  0.104326  0  0.973732  0  0  0.119338  0  1.039366  0  0  0.120967  0  1.037897  0  0  0.098467  0.118109  0  1.040482  0
H  H22  1  0.53169546  0.58554954  0.96414855  1  0  0.101151  0  0.965674  0  0  0.116549  0  1.030324  0  0  0.117595  0  1.029658  0  0  0.103163  0.115705  0  1.030908  0
H  H23  1  0.96830588  0.62115341  0.03586366  1  0  0.100711  0  0.965474  0  0  0.116428  0  1.029903  0  0  0.117465  0  1.029247  0  0  0.103123  0.115587  0  1.030483  0
H  H24  1  0.46830802  0.41445111  0.03585288  1  0  0.101183  0  0.965653  0  0  0.116572  0  1.030317  0  0  0.117622  0  1.029643  0  0  0.103183  0.115728  0  1.0309  0
H  H25  1  0.03169059  0.37884190  0.96413446  1  0  0.10073  0  0.965485  0  0  0.116445  0  1.029896  0  0  0.117483  0  1.029242  0  0  0.103134  0.115605  0  1.030476  0
C  C26  1  0.01638899  0.76089077  0.82132476  1  0  0.659361  0  3.899005  0  0  0.606025  0  4.193567  0  0  0.643286  0  4.184798  0  0  0.19933  0.580609  0  4.198723  0
C  C27  1  0.48373638  0.93912564  0.17856472  1  0  0.659848  0  3.896281  0  0  0.60678  0  4.190548  0  0  0.644007  0  4.181793  0  0  0.19997  0.581365  0  4.195688  0
C  C28  1  0.98361296  0.23910717  0.17867835  1  0  0.659391  0  3.899282  0  0  0.606099  0  4.193785  0  0  0.643356  0  4.18501  0  0  0.199396  0.580681  0  4.198941  0
C  C29  1  0.51626022  0.06087234  0.82143552  1  0  0.65991  0  3.896093  0  0  0.606895  0  4.190307  0  0  0.644118  0  4.181549  0  0  0.200065  0.581494  0  4.195457  0
C  C30  1  0.86339313  0.67369671  0.73066963  1  0  -0.172488  0  3.740022  0  0  -0.158522  0  3.985139  0  0  -0.170099  0  4.004839  0  0  -0.031328  -0.151128  0  3.972211  0
C  C31  1  0.63669026  0.94270752  0.26926175  1  0  -0.173385  0  3.741472  0  0  -0.159631  0  3.986199  0  0  -0.171236  0  4.005867  0  0  -0.031328  -0.152133  0  3.973147  0
C  C32  1  0.13661161  0.32630258  0.26933323  1  0  -0.172444  0  3.74008  0  0  -0.158533  0  3.985254  0  0  -0.170082  0  4.004918  0  0  -0.031368  -0.151138  0  3.972323  0
C  C33  1  0.36330627  0.05728911  0.73073822  1  0  -0.173386  0  3.741482  0  0  -0.159685  0  3.986239  0  0  -0.171268  0  4.00587  0  0  -0.031364  -0.152242  0  3.973266  0
C  C34  1  0.69276954  0.62478654  0.74859729  1  0  0.279534  0  3.76628  0  0  0.262605  0  4.02293  0  0  0.276012  0  4.03935  0  0  0.091444  0.253557  0  4.011779  0
C  C35  1  0.80734119  0.87605103  0.25135552  1  0  0.279141  0  3.768214  0  0  0.262969  0  4.023458  0  0  0.276459  0  4.039785  0  0  0.09134  0.253859  0  4.012355  0
C  C36  1  0.30723371  0.37521007  0.25140334  1  0  0.279542  0  3.76615  0  0  0.262608  0  4.0228  0  0  0.276016  0  4.03922  0  0  0.091451  0.25356  0  4.011646  0
C  C37  1  0.19265536  0.12394563  0.74864209  1  0  0.278997  0  3.768405  0  0  0.262949  0  4.023612  0  0  0.276422  0  4.039935  0  0  0.091372  0.253851  0  4.012527  0
C  C38  1  0.55360059  0.55445010  0.65794445  1  0  -0.233724  0  3.69837  0  0  -0.260803  0  3.947271  0  0  -0.268812  0  3.966973  0  0  -0.103144  -0.255441  0  3.934032  0
C  C39  1  0.94652113  0.89653639  0.34202939  1  0  -0.235061  0  3.698009  0  0  -0.262192  0  3.947193  0  0  -0.270167  0  3.96684  0  0  -0.103505  -0.256869  0  3.933947  0
C  C40  1  0.44640805  0.44554651  0.34205592  1  0  -0.233621  0  3.698408  0  0  -0.260672  0  3.947297  0  0  -0.26868  0  3.967004  0  0  -0.103056  -0.255309  0  3.934053  0
C  C41  1  0.05347384  0.10345622  0.65796885  1  0  -0.234873  0  3.698163  0  0  -0.262017  0  3.94728  0  0  -0.269995  0  3.966935  0  0  -0.103463  -0.256689  0  3.934031  0
C  C42  1  0.57647496  0.53330220  0.54703745  1  0  0.086787  0  3.771205  0  0  0.102408  0  4.001004  0  0  0.105718  0  4.023105  0  0  0.001364  0.100346  0  3.985828  0
C  C43  1  0.92354491  0.98614906  0.45294945  1  0  0.088557  0  3.766878  0  0  0.103373  0  3.998251  0  0  0.106682  0  4.020341  0  0  0.001853  0.101307  0  3.983087  0
C  C44  1  0.42353224  0.46669304  0.45296409  1  0  0.086701  0  3.77113  0  0  0.102265  0  4.000982  0  0  0.105572  0  4.023088  0  0  0.001309  0.100205  0  3.985805  0
C  C45  1  0.07644880  0.01384491  0.54704814  1  0  0.088366  0  3.766973  0  0  0.103228  0  3.998299  0  0  0.106538  0  4.020389  0  0  0.001823  0.101164  0  3.983136  0
C  C46  1  0.74746368  0.57959678  0.52937523  1  0  -0.134556  0  3.736596  0  0  -0.157341  0  3.988936  0  0  -0.163323  0  4.010172  0  0  -0.097228  -0.153448  0  3.974536  0
C  C47  1  0.75248615  0.04980034  0.47057946  1  0  -0.134518  0  3.735203  0  0  -0.15695  0  3.987734  0  0  -0.162919  0  4.008996  0  0  -0.097218  -0.153059  0  3.973344  0
C  C48  1  0.25254368  0.42040117  0.47062606  1  0  -0.134477  0  3.73651  0  0  -0.157239  0  3.988838  0  0  -0.163222  0  4.010075  0  0  -0.097175  -0.153347  0  3.974439  0
C  C49  1  0.24751064  0.95020037  0.52941896  1  0  -0.134483  0  3.735175  0  0  -0.156919  0  3.987683  0  0  -0.162884  0  4.008952  0  0  -0.097194  -0.153025  0  3.97329  0
C  C50  1  0.88646888  0.64695503  0.61936819  1  0  -0.034258  0  3.745947  0  0  -0.057978  0  3.997026  0  0  -0.054594  0  4.016345  0  0  -0.080507  -0.059947  0  3.983879  0
C  C51  1  0.61352767  0.02713901  0.38055304  1  0  -0.0338  0  3.745786  0  0  -0.057704  0  3.996942  0  0  -0.054239  0  4.016224  0  0  -0.080523  -0.059703  0  3.983747  0
C  C52  1  0.11353857  0.35304429  0.38063180  1  0  -0.034254  0  3.746091  0  0  -0.057988  0  3.997205  0  0  -0.054594  0  4.016505  0  0  -0.080493  -0.059954  0  3.98405  0
C  C53  1  0.38646903  0.97286035  0.61944510  1  0  -0.033791  0  3.745778  0  0  -0.057708  0  3.996961  0  0  -0.05425  0  4.016241  0  0  -0.080517  -0.05969  0  3.983788  0
C  C54  1  0.51638925  0.55478259  0.87329297  1  0  -0.083321  0  3.585612  0  0  -0.178034  0  3.842796  0  0  -0.171131  0  3.845522  0  0  -0.148561  -0.182499  0  3.840853  0
C  C55  1  0.98354564  0.68137877  0.12670527  1  0  -0.083801  0  3.586325  0  0  -0.179297  0  3.843476  0  0  -0.172395  0  3.84624  0  0  -0.149123  -0.18374  0  3.841518  0
C  C56  1  0.48361289  0.44521806  0.12670833  1  0  -0.083237  0  3.585504  0  0  -0.177981  0  3.842728  0  0  -0.17107  0  3.845459  0  0  -0.148569  -0.182444  0  3.840783  0
C  C57  1  0.01644956  0.31861789  0.87329299  1  0  -0.083867  0  3.586186  0  0  -0.179277  0  3.843345  0  0  -0.172388  0  3.846104  0  0  -0.149089  -0.183715  0  3.84139  0
O  O58  1  0.98741670  0.83628129  0.92377043  1  0  -0.71307  0  2.13637  0  0  -0.625396  0  2.408036  0  0  -0.662575  0  2.395015  0  0  -0.340785  -0.599037  0  2.415824  0
O  O59  1  0.51262677  0.91185344  0.07607407  1  0  -0.713659  0  2.135467  0  0  -0.626116  0  2.407041  0  0  -0.663312  0  2.39416  0  0  -0.341108  -0.599751  0  2.41474  0
O  O60  1  0.01258107  0.16371397  0.07623175  1  0  -0.71314  0  2.136647  0  0  -0.625487  0  2.408295  0  0  -0.66267  0  2.395279  0  0  -0.340868  -0.599129  0  2.416084  0
O  O61  1  0.48736586  0.08814589  0.92392682  1  0  -0.713699  0  2.135481  0  0  -0.626137  0  2.406966  0  0  -0.663333  0  2.39409  0  0  -0.34116  -0.59977  0  2.41466  0
O  O62  1  0.17270016  0.76722965  0.79930454  1  0  -0.614323  0  1.953087  0  0  -0.561837  0  2.186289  0  0  -0.589049  0  2.178943  0  0  -0.310286  -0.542642  0  2.190604  0
O  O63  1  0.32748625  0.96774624  0.20065396  1  0  -0.614391  0  1.951416  0  0  -0.561856  0  2.184438  0  0  -0.589048  0  2.177072  0  0  -0.310729  -0.542683  0  2.188765  0
O  O64  1  0.82730187  0.23276962  0.20069963  1  0  -0.614363  0  1.953163  0  0  -0.561862  0  2.186311  0  0  -0.589074  0  2.178963  0  0  -0.310285  -0.542666  0  2.190626  0
O  O65  1  0.67251195  0.03225580  0.79934486  1  0  -0.614459  0  1.951316  0  0  -0.561931  0  2.184316  0  0  -0.589124  0  2.176953  0  0  -0.310783  -0.542758  0  2.188638  0
O  O66  1  0.66890988  0.64943716  0.85712783  1  0  -0.2753  0  2.385116  0  0  -0.187895  0  2.624593  0  0  -0.208816  0  2.627683  0  0  -0.188428  -0.173237  0  2.622002  0
O  O67  1  0.83108937  0.79216609  0.14281525  1  0  -0.274418  0  2.385631  0  0  -0.186877  0  2.624571  0  0  -0.207885  0  2.627777  0  0  -0.188009  -0.172227  0  2.621968  0
O  O68  1  0.33109361  0.35056350  0.14287281  1  0  -0.275369  0  2.385081  0  0  -0.187914  0  2.624532  0  0  -0.208862  0  2.627637  0  0  -0.188419  -0.173255  0  2.62194  0
O  O69  1  0.16890703  0.20782788  0.85718182  1  0  -0.274255  0  2.385586  0  0  -0.186954  0  2.624668  0  0  -0.207932  0  2.62785  0  0  -0.188047  -0.172298  0  2.622061  0
