# generated using pymatgen
data_SnH10C5O2
_symmetry_space_group_name_H-M   'P 1'
_cell_length_a   7.95069979
_cell_length_b   7.95075254
_cell_length_c   12.85710337
_cell_angle_alpha   73.70186554
_cell_angle_beta   73.70260654
_cell_angle_gamma   73.40688351
_symmetry_Int_Tables_number   1
_chemical_formula_structural   SnH10C5O2
_chemical_formula_sum   'Sn4 H40 C20 O8'
_cell_volume   729.63081096
_cell_formula_units_Z   4
loop_
 _symmetry_equiv_pos_site_id
 _symmetry_equiv_pos_as_xyz
  1  'x, y, z'
loop_
 _atom_site_type_symbol
 _atom_site_label
 _atom_site_symmetry_multiplicity
 _atom_site_fract_x
 _atom_site_fract_y
 _atom_site_fract_z
 _atom_site_occupancy
 _atom_site_hle17_bader_spin_density
 _atom_site_hle17_ddec_charge
 _atom_site_hle17_ddec_spin_density
 _atom_site_hle17_ddec_sum_bond_order
 _atom_site_hle17_magmom
 _atom_site_hse06_10hf_bader_spin_density
 _atom_site_hse06_10hf_ddec_charge
 _atom_site_hse06_10hf_ddec_spin_density
 _atom_site_hse06_10hf_ddec_sum_bond_order
 _atom_site_hse06_10hf_magmom
 _atom_site_hse06_bader_spin_density
 _atom_site_hse06_ddec_charge
 _atom_site_hse06_ddec_spin_density
 _atom_site_hse06_ddec_sum_bond_order
 _atom_site_hse06_magmom
 _atom_site_pbe_bader_spin_density
 _atom_site_pbe_cm5_charge
 _atom_site_pbe_ddec_charge
 _atom_site_pbe_ddec_spin_density
 _atom_site_pbe_ddec_sum_bond_order
 _atom_site_pbe_magmom
Sn  Sn0  1  0.07661978  0.28478457  0.79194173  1  0  1.362206  0  2.88242  0  0  1.231649  0  3.370939  0  0  1.270176  0  3.355728  0  0  0.517358  1.205123  0  3.381039  0
Sn  Sn1  1  0.71520630  0.92337313  0.70805766  1  0  1.362296  0  2.882252  0  0  1.231633  0  3.370952  0  0  1.270161  0  3.355732  0  0  0.51742  1.205105  0  3.381041  0
Sn  Sn2  1  0.92338475  0.71521908  0.20806460  1  0  1.362178  0  2.88227  0  0  1.231562  0  3.370872  0  0  1.270088  0  3.355663  0  0  0.517405  1.205031  0  3.380968  0
Sn  Sn3  1  0.28479472  0.07661160  0.29193780  1  0  1.362052  0  2.882162  0  0  1.231469  0  3.370728  0  0  1.269994  0  3.355519  0  0  0.517408  1.204934  0  3.380826  0
H  H4  1  0.26995085  0.33372587  0.91948211  1  0  0.146865  0  1.00682  0  0  0.165819  0  1.064669  0  0  0.167711  0  1.06668  0  0  0.081734  0.164426  0  1.063356  0
H  H5  1  0.66625224  0.73004595  0.58052413  1  0  0.146924  0  1.006912  0  0  0.165867  0  1.064739  0  0  0.167747  0  1.066762  0  0  0.081763  0.164473  0  1.063425  0
H  H6  1  0.73003940  0.66628844  0.08052174  1  0  0.146912  0  1.006775  0  0  0.165829  0  1.064661  0  0  0.167725  0  1.066671  0  0  0.081713  0.164434  0  1.06335  0
H  H7  1  0.33372411  0.26995475  0.41947208  1  0  0.146854  0  1.006835  0  0  0.165784  0  1.064703  0  0  0.167675  0  1.066719  0  0  0.081726  0.164389  0  1.063391  0
H  H8  1  0.28879745  0.49873610  0.79291908  1  0  0.146319  0  0.998154  0  0  0.166048  0  1.054056  0  0  0.168242  0  1.055328  0  0  0.08246  0.164469  0  1.053217  0
H  H9  1  0.50124271  0.71119902  0.70709501  1  0  0.146206  0  0.99799  0  0  0.165964  0  1.053892  0  0  0.168156  0  1.055167  0  0  0.082439  0.164389  0  1.053047  0
H  H10  1  0.71118658  0.50127681  0.20708844  1  0  0.146241  0  0.998132  0  0  0.165976  0  1.054039  0  0  0.168169  0  1.05531  0  0  0.082422  0.164405  0  1.053189  0
H  H11  1  0.49874118  0.28880310  0.29290663  1  0  0.146201  0  0.998098  0  0  0.165964  0  1.053981  0  0  0.168157  0  1.055254  0  0  0.082442  0.164389  0  1.053136  0
H  H12  1  0.09030594  0.52868651  0.90030117  1  0  0.164187  0  0.985454  0  0  0.182043  0  1.040817  0  0  0.185157  0  1.040989  0  0  0.08753  0.179808  0  1.040763  0
H  H13  1  0.47129896  0.90968958  0.59970470  1  0  0.164129  0  0.985523  0  0  0.181985  0  1.040891  0  0  0.185098  0  1.041063  0  0  0.087507  0.17975  0  1.040838  0
H  H14  1  0.90967247  0.47132231  0.09970337  1  0  0.164192  0  0.985604  0  0  0.182089  0  1.04089  0  0  0.185205  0  1.041058  0  0  0.087546  0.179851  0  1.040842  0
H  H15  1  0.52870063  0.09031267  0.40029729  1  0  0.164159  0  0.985378  0  0  0.181987  0  1.040792  0  0  0.185102  0  1.040962  0  0  0.087515  0.179751  0  1.040739  0
H  H16  1  0.97768982  0.53212124  0.61313447  1  0  0.149083  0  1.008916  0  0  0.168274  0  1.06726  0  0  0.170453  0  1.06862  0  0  0.085242  0.166704  0  1.066387  0
H  H17  1  0.46789053  0.02230314  0.88685404  1  0  0.149054  0  1.008983  0  0  0.168223  0  1.067341  0  0  0.170402  0  1.068699  0  0  0.085226  0.166654  0  1.066471  0
H  H18  1  0.02230883  0.46788504  0.38686310  1  0  0.149111  0  1.00897  0  0  0.168267  0  1.067335  0  0  0.170449  0  1.068689  0  0  0.085238  0.166696  0  1.066467  0
H  H19  1  0.53212003  0.97768571  0.11314215  1  0  0.149085  0  1.009041  0  0  0.168266  0  1.067365  0  0  0.170447  0  1.068721  0  0  0.085259  0.166696  0  1.066498  0
H  H20  1  0.06487273  0.31626275  0.57851785  1  0  0.147188  0  1.002074  0  0  0.165894  0  1.059769  0  0  0.168611  0  1.060048  0  0  0.083741  0.163941  0  1.059656  0
H  H21  1  0.68374260  0.93512615  0.92148790  1  0  0.14701  0  1.001971  0  0  0.165713  0  1.05971  0  0  0.16843  0  1.05999  0  0  0.083664  0.163748  0  1.059609  0
H  H22  1  0.93512588  0.68373816  0.42148999  1  0  0.147062  0  1.002017  0  0  0.165765  0  1.059735  0  0  0.168483  0  1.060013  0  0  0.083707  0.163809  0  1.059626  0
H  H23  1  0.31627121  0.06486004  0.07851364  1  0  0.147129  0  1.002129  0  0  0.165837  0  1.059813  0  0  0.168556  0  1.060091  0  0  0.083706  0.163884  0  1.059702  0
H  H24  1  0.84030230  0.37136947  0.65737341  1  0  0.161953  0  0.98739  0  0  0.178817  0  1.045594  0  0  0.181922  0  1.045945  0  0  0.086618  0.176594  0  1.045413  0
H  H25  1  0.62862484  0.15968447  0.84262011  1  0  0.161958  0  0.987566  0  0  0.178818  0  1.045749  0  0  0.181924  0  1.046098  0  0  0.086606  0.176596  0  1.045568  0
H  H26  1  0.15970048  0.62862472  0.34262633  1  0  0.161899  0  0.987487  0  0  0.178774  0  1.045671  0  0  0.181878  0  1.046023  0  0  0.086617  0.176551  0  1.045489  0
H  H27  1  0.37137942  0.84029759  0.15737370  1  0  0.161923  0  0.987481  0  0  0.178793  0  1.045676  0  0  0.181898  0  1.046027  0  0  0.086604  0.17657  0  1.045494  0
H  H28  1  0.16167421  0.96086372  0.93438946  1  0  0.155809  0  1.00313  0  0  0.172378  0  1.064117  0  0  0.17542  0  1.064131  0  0  0.084362  0.17018  0  1.064204  0
H  H29  1  0.03914048  0.83832070  0.56560855  1  0  0.155748  0  1.003011  0  0  0.172328  0  1.064007  0  0  0.17537  0  1.064021  0  0  0.084338  0.17013  0  1.064093  0
H  H30  1  0.83832706  0.03914259  0.06560920  1  0  0.155868  0  1.00295  0  0  0.172437  0  1.063948  0  0  0.175482  0  1.063958  0  0  0.084386  0.170237  0  1.064038  0
H  H31  1  0.96087212  0.16167625  0.43438355  1  0  0.155859  0  1.003057  0  0  0.172433  0  1.064031  0  0  0.175477  0  1.064043  0  0  0.084411  0.170233  0  1.064121  0
H  H32  1  0.98284474  0.96184090  0.87617785  1  0  0.152561  0  0.997674  0  0  0.173668  0  1.051531  0  0  0.175826  0  1.05302  0  0  0.086444  0.172083  0  1.05059  0
H  H33  1  0.03816154  0.01714490  0.62382033  1  0  0.152515  0  0.997768  0  0  0.173623  0  1.051618  0  0  0.175782  0  1.053106  0  0  0.086414  0.172039  0  1.050676  0
H  H34  1  0.01716003  0.03815600  0.12382417  1  0  0.152537  0  0.997706  0  0  0.173657  0  1.051542  0  0  0.17582  0  1.053024  0  0  0.086445  0.17207  0  1.050605  0
H  H35  1  0.96183898  0.98285330  0.37617366  1  0  0.152542  0  0.997737  0  0  0.173653  0  1.051575  0  0  0.175811  0  1.053064  0  0  0.086434  0.172068  0  1.050634  0
H  H36  1  0.20846904  0.93126365  0.79539449  1  0  0.155752  0  0.997192  0  0  0.175868  0  1.051739  0  0  0.178314  0  1.052794  0  0  0.087059  0.174097  0  1.051075  0
H  H37  1  0.06873913  0.79152610  0.70460873  1  0  0.15578  0  0.997147  0  0  0.175881  0  1.051703  0  0  0.178325  0  1.052759  0  0  0.087041  0.174109  0  1.05104  0
H  H38  1  0.79153804  0.06873461  0.20460534  1  0  0.155828  0  0.997205  0  0  0.175925  0  1.051783  0  0  0.17837  0  1.052839  0  0  0.087082  0.174152  0  1.051119  0
H  H39  1  0.93127865  0.20846552  0.29538883  1  0  0.155832  0  0.997218  0  0  0.175924  0  1.051793  0  0  0.178369  0  1.052847  0  0  0.087072  0.174152  0  1.051128  0
H  H40  1  0.47671957  0.70206078  0.94668448  1  0  0.124152  0  0.945829  0  0  0.133498  0  1.00646  0  0  0.137078  0  1.00505  0  0  0.116297  0.130987  0  1.007515  0
H  H41  1  0.29794381  0.52327423  0.55330762  1  0  0.12423  0  0.945723  0  0  0.133567  0  1.006373  0  0  0.137156  0  1.004942  0  0  0.116365  0.131052  0  1.007429  0
H  H42  1  0.52326875  0.29795620  0.05331613  1  0  0.124217  0  0.945936  0  0  0.133527  0  1.006576  0  0  0.137093  0  1.005196  0  0  0.116257  0.131016  0  1.007631  0
H  H43  1  0.70206656  0.47672675  0.44668960  1  0  0.124162  0  0.945783  0  0  0.133516  0  1.006374  0  0  0.137083  0  1.004995  0  0  0.116295  0.131003  0  1.007432  0
C  C44  1  0.19501848  0.42991508  0.85953599  1  0  -0.707342  0  3.516846  0  0  -0.748358  0  3.744237  0  0  -0.762257  0  3.751602  0  0  -0.335228  -0.738663  0  3.739198  0
C  C45  1  0.57008536  0.80498217  0.64046105  1  0  -0.707268  0  3.516846  0  0  -0.748277  0  3.744279  0  0  -0.76216  0  3.751665  0  0  -0.335223  -0.738589  0  3.739232  0
C  C46  1  0.80497632  0.57009656  0.14046442  1  0  -0.707317  0  3.516858  0  0  -0.748317  0  3.744243  0  0  -0.76222  0  3.751599  0  0  -0.335167  -0.738635  0  3.739201  0
C  C47  1  0.42991689  0.19502548  0.35953099  1  0  -0.707098  0  3.516591  0  0  -0.748081  0  3.744038  0  0  -0.761975  0  3.751409  0  0  -0.335133  -0.738395  0  3.738993  0
C  C48  1  0.97762910  0.38891659  0.64202634  1  0  -0.716827  0  3.527291  0  0  -0.760297  0  3.761799  0  0  -0.773591  0  3.767361  0  0  -0.334936  -0.751079  0  3.758017  0
C  C49  1  0.61108392  0.02237826  0.85796926  1  0  -0.716597  0  3.527274  0  0  -0.760025  0  3.761751  0  0  -0.773315  0  3.767315  0  0  -0.334838  -0.750794  0  3.757987  0
C  C50  1  0.02237692  0.61107494  0.35797718  1  0  -0.716611  0  3.527328  0  0  -0.760034  0  3.761839  0  0  -0.773324  0  3.767401  0  0  -0.334842  -0.750817  0  3.758062  0
C  C51  1  0.38892644  0.97762271  0.14202020  1  0  -0.716699  0  3.527475  0  0  -0.760145  0  3.761967  0  0  -0.773435  0  3.767527  0  0  -0.33489  -0.750933  0  3.758191  0
C  C52  1  0.11154036  0.00031173  0.85787688  1  0  -0.71361  0  3.500159  0  0  -0.752939  0  3.724616  0  0  -0.766763  0  3.731401  0  0  -0.335384  -0.743304  0  3.720016  0
C  C53  1  0.99968800  0.88845671  0.64212788  1  0  -0.713576  0  3.499957  0  0  -0.752875  0  3.72444  0  0  -0.7667  0  3.731228  0  0  -0.335357  -0.743241  0  3.719836  0
C  C54  1  0.88846448  0.99969058  0.14213042  1  0  -0.713633  0  3.500085  0  0  -0.752984  0  3.724524  0  0  -0.766811  0  3.7313  0  0  -0.335393  -0.743348  0  3.719931  0
C  C55  1  0.00030928  0.11154416  0.35786854  1  0  -0.713641  0  3.500133  0  0  -0.752966  0  3.724595  0  0  -0.766788  0  3.731376  0  0  -0.335424  -0.743334  0  3.719997  0
C  C56  1  0.72376708  0.50709911  0.89119845  1  0  0.677933  0  3.884199  0  0  0.629719  0  4.171852  0  0  0.664749  0  4.162153  0  0  0.229865  0.606086  0  4.177643  0
C  C57  1  0.49289699  0.27623525  0.60879248  1  0  0.677791  0  3.884425  0  0  0.629579  0  4.172062  0  0  0.6646  0  4.162377  0  0  0.22984  0.605942  0  4.177858  0
C  C58  1  0.27619004  0.49293380  0.10881571  1  0  0.677822  0  3.885639  0  0  0.629633  0  4.173187  0  0  0.664663  0  4.16347  0  0  0.229818  0.606004  0  4.178974  0
C  C59  1  0.50707501  0.72381794  0.39118677  1  0  0.677864  0  3.885692  0  0  0.629604  0  4.173346  0  0  0.664632  0  4.163627  0  0  0.229828  0.605974  0  4.179135  0
C  C60  1  0.54181375  0.55945858  0.96092497  1  0  -0.154388  0  3.636706  0  0  -0.175682  0  3.893302  0  0  -0.180579  0  3.906422  0  0  -0.0725  -0.172495  0  3.884529  0
C  C61  1  0.44056236  0.45816632  0.53907071  1  0  -0.154507  0  3.637264  0  0  -0.175778  0  3.893829  0  0  -0.180679  0  3.906961  0  0  -0.072565  -0.172581  0  3.885047  0
C  C62  1  0.45819426  0.44053565  0.03907618  1  0  -0.154378  0  3.636246  0  0  -0.175669  0  3.892824  0  0  -0.180544  0  3.905924  0  0  -0.072397  -0.172496  0  3.884055  0
C  C63  1  0.55946215  0.54181323  0.46092701  1  0  -0.154291  0  3.636152  0  0  -0.175568  0  3.892716  0  0  -0.180439  0  3.905817  0  0  -0.072366  -0.172398  0  3.883943  0
O  O64  1  0.80412001  0.33967366  0.90634195  1  0  -0.610426  0  2.00396  0  0  -0.538376  0  2.233383  0  0  -0.565212  0  2.227121  0  0  -0.276343  -0.519795  0  2.237017  0
O  O65  1  0.66033552  0.19586413  0.59365330  1  0  -0.610423  0  2.00384  0  0  -0.538389  0  2.233312  0  0  -0.565226  0  2.227067  0  0  -0.276398  -0.519804  0  2.236945  0
O  O66  1  0.19590348  0.66029917  0.09367345  1  0  -0.610224  0  2.005368  0  0  -0.538155  0  2.234766  0  0  -0.564997  0  2.228516  0  0  -0.276205  -0.519577  0  2.238396  0
O  O67  1  0.33971790  0.80409813  0.40634084  1  0  -0.610125  0  2.005246  0  0  -0.538083  0  2.234719  0  0  -0.564921  0  2.228457  0  0  -0.276219  -0.519493  0  2.238343  0
O  O68  1  0.79491236  0.62794252  0.81983962  1  0  -0.641635  0  2.053115  0  0  -0.568175  0  2.287785  0  0  -0.595418  0  2.282271  0  0  -0.274486  -0.549293  0  2.29093  0
O  O69  1  0.37205895  0.20507780  0.68016240  1  0  -0.641569  0  2.052914  0  0  -0.568139  0  2.287621  0  0  -0.595381  0  2.282114  0  0  -0.274487  -0.549257  0  2.290773  0
O  O70  1  0.20508839  0.37207724  0.18014901  1  0  -0.641486  0  2.053625  0  0  -0.568114  0  2.288354  0  0  -0.595355  0  2.282833  0  0  -0.274462  -0.549234  0  2.291499  0
O  O71  1  0.62792156  0.79491085  0.31985774  1  0  -0.641505  0  2.053871  0  0  -0.568104  0  2.28861  0  0  -0.595343  0  2.283085  0  0  -0.274422  -0.549227  0  2.29176  0
