# generated using pymatgen
data_ZnH10C20N3O8
_symmetry_space_group_name_H-M   'P 1'
_cell_length_a   14.77746705
_cell_length_b   16.12179777
_cell_length_c   19.20446837
_cell_angle_alpha   89.99512044
_cell_angle_beta   90.01633611
_cell_angle_gamma   89.56014306
_symmetry_Int_Tables_number   1
_chemical_formula_structural   ZnH10C20N3O8
_chemical_formula_sum   'Zn2 H20 C40 N6 O16'
_cell_volume   4575.12475258
_cell_formula_units_Z   2
loop_
 _symmetry_equiv_pos_site_id
 _symmetry_equiv_pos_as_xyz
  1  'x, y, z'
loop_
 _atom_site_type_symbol
 _atom_site_label
 _atom_site_symmetry_multiplicity
 _atom_site_fract_x
 _atom_site_fract_y
 _atom_site_fract_z
 _atom_site_occupancy
 _atom_site_pbe_bader_charge
 _atom_site_pbe_bader_spin_density
 _atom_site_pbe_cm5_charge
 _atom_site_pbe_ddec_charge
 _atom_site_pbe_ddec_spin_density
 _atom_site_pbe_ddec_sum_bond_order
 _atom_site_pbe_magmom
Zn  Zn0  1  0.59521071  0.49690356  0.49999431  1  1.310363  0  0.681029  0.890755  0  2.427125  0
Zn  Zn1  1  0.40479960  0.50007293  0.50002555  1  1.300759  0  0.68101  0.891006  0  2.4275  0
H  H2  1  0.64455253  0.51442414  0.27955397  1  0.098719  0  0.10605  0.113223  0  0.995726  0
H  H3  1  0.56967158  0.05486771  0.39342492  1  0.107049  0  0.108393  0.126642  0  0.983206  0
H  H4  1  0.93808616  0.63461110  0.54029548  1  0.110452  0  0.125018  0.148794  0  0.960405  0
H  H5  1  0.06189531  0.36551281  0.45971232  1  0.110908  0  0.125152  0.149174  0  0.9604  0
H  H6  1  0.98003543  0.34339925  0.60450745  1  0.618346  0  0.349101  0.380028  0  0.857307  0
H  H7  1  0.01995958  0.65672462  0.39549931  1  0.61854  0  0.349249  0.380157  0  0.85717  0
H  H8  1  0.61159147  0.01676180  0.64327457  1  0.602381  0  0.332875  0.362059  0  0.88457  0
H  H9  1  0.38849992  0.98096932  0.35673331  1  0.593227  0  0.332738  0.360472  0  0.885396  0
H  H10  1  0.28310460  0.01172887  0.50774663  1  0.586933  0  0.329892  0.35776  0  0.890761  0
H  H11  1  0.71697052  0.98601161  0.49233361  1  0.595993  0  0.330311  0.358416  0  0.889395  0
H  H12  1  0.02129081  0.54184617  0.66418103  1  0.621113  0  0.348683  0.378641  0  0.859895  0
H  H13  1  0.35547650  0.51521707  0.72043067  1  0.09869  0  0.106351  0.113816  0  0.99515  0
H  H14  1  0.97874121  0.45875334  0.33575022  1  0.61934  0  0.348748  0.379099  0  0.859529  0
H  H15  1  0.64543806  0.53900111  0.15033033  1  0.089363  0  0.102904  0.099768  0  1.018219  0
H  H16  1  0.35441837  0.54001151  0.84964468  1  0.088737  0  0.102752  0.099723  0  1.018867  0
H  H17  1  0.35418907  0.54039167  0.14987468  1  0.083688  0  0.102683  0.099979  0  1.019355  0
H  H18  1  0.64565620  0.53898695  0.85011645  1  0.084672  0  0.102627  0.0996  0  1.020078  0
H  H19  1  0.35464903  0.51606727  0.27915204  1  0.094599  0  0.104672  0.111125  0  0.997821  0
H  H20  1  0.64533451  0.51390034  0.72088831  1  0.094566  0  0.104437  0.110209  0  0.99862  0
H  H21  1  0.43040768  0.94270343  0.60653973  1  0.077179  0  0.108724  0.127298  0  0.982713  0
C  C22  1  0.50305025  0.66042429  0.49982858  1  1.708835  0  0.216431  0.670512  0  4.241389  0
C  C23  1  0.41251058  0.02519517  0.50423904  1  0.562161  0  0.075386  0.211781  0  3.767206  0
C  C24  1  0.50286811  0.91333263  0.49894820  1  0.121395  0  0.000316  0.037029  0  3.809997  0
C  C25  1  0.49724770  0.08423839  0.50102063  1  0.042599  0  0.000619  0.034925  0  3.812758  0
C  C26  1  0.50367005  0.82565239  0.49875631  1  -0.56997  0  -0.042012  -0.029178  0  4.090991  0
C  C27  1  0.49644446  0.17190685  0.50120782  1  -0.383105  0  -0.042496  -0.029591  0  4.092008  0
C  C28  1  0.96645934  0.57548228  0.52262218  1  -0.067279  0  -0.076911  -0.233917  0  3.640163  0
C  C29  1  0.03347077  0.42462442  0.47738197  1  -0.074101  0  -0.077157  -0.23448  0  3.639863  0
C  C30  1  0.02968334  0.51586184  0.56599831  1  0.611731  0  0.092192  0.228048  0  3.775874  0
C  C31  1  0.97027781  0.48426461  0.43400897  1  0.612832  0  0.092006  0.22789  0  3.775785  0
C  C32  1  0.02902890  0.56209268  0.45726975  1  0.620658  0  0.091198  0.226169  0  3.779963  0
C  C33  1  0.49710027  0.33711002  0.50024022  1  1.64213  0  0.21748  0.672349  0  4.242878  0
C  C34  1  0.97095263  0.43801820  0.54274482  1  0.622136  0  0.090939  0.226005  0  3.780122  0
C  C35  1  0.09230327  0.50135756  0.50028664  1  0.178342  0  0.012869  -0.039834  0  3.789788  0
C  C36  1  0.90765328  0.49874038  0.49971751  1  0.169933  0  0.01295  -0.039431  0  3.790886  0
C  C37  1  0.49938187  0.50370760  0.36423536  1  1.581535  0  0.215314  0.589934  0  4.176945  0
C  C38  1  0.50068659  0.50318085  0.63578477  1  1.5819  0  0.215135  0.589993  0  4.17513  0
C  C39  1  0.18784150  0.50276282  0.50060865  1  0.758252  0  0.237615  0.318604  0  3.908851  0
C  C40  1  0.81213361  0.49669058  0.49940542  1  0.768585  0  0.237342  0.317293  0  3.909786  0
C  C41  1  0.58165129  0.51996930  0.25027597  1  -0.091544  0  -0.081313  -0.088468  0  3.968913  0
C  C42  1  0.41833306  0.52030495  0.74971724  1  -0.09191  0  -0.081338  -0.088718  0  3.968622  0
C  C43  1  0.58203449  0.53347263  0.17881883  1  0.004055  0  -0.083762  -0.10779  0  3.973064  0
C  C44  1  0.54567815  0.02662119  0.55675126  1  0.581075  0  0.07754  0.215532  0  3.766262  0
C  C45  1  0.41785550  0.53395050  0.82115127  1  0.003263  0  -0.083536  -0.108525  0  3.972689  0
C  C46  1  0.49981441  0.54154689  0.14236259  1  -0.049328  0  -0.008072  0.014744  0  4.007726  0
C  C47  1  0.50002806  0.54148646  0.85759252  1  -0.054349  0  -0.008526  0.015609  0  4.005796  0
C  C48  1  0.41747468  0.53423001  0.17857473  1  -0.065779  0  -0.08444  -0.109539  0  3.976034  0
C  C49  1  0.58241515  0.53337300  0.82139954  1  -0.000425  0  -0.085281  -0.111147  0  3.97678  0
C  C50  1  0.41764195  0.52080684  0.25002461  1  0.003706  0  -0.082128  -0.08962  0  3.973599  0
C  C51  1  0.58233684  0.51964607  0.74998734  1  -0.057646  0  -0.082025  -0.088378  0  3.972187  0
C  C52  1  0.49957274  0.51426311  0.28651568  1  0.034994  0  -0.007428  -0.010684  0  3.933264  0
C  C53  1  0.50044609  0.51378958  0.71349660  1  0.034314  0  -0.007812  -0.010474  0  3.931734  0
C  C54  1  0.49986856  0.55752383  0.93267098  1  0.95601  0  0.237005  0.24509  0  3.995935  0
C  C55  1  0.45441937  0.97095423  0.44322277  1  0.578314  0  0.078101  0.215341  0  3.76296  0
C  C56  1  0.49982383  0.55751601  0.06727860  1  0.954152  0  0.237259  0.245162  0  3.996129  0
C  C57  1  0.46108206  0.96860837  0.55960085  1  -0.073382  0  -0.089959  -0.243583  0  3.66013  0
C  C58  1  0.53903986  0.02895829  0.44037786  1  -0.087521  0  -0.090013  -0.242137  0  3.661327  0
C  C59  1  0.50349604  0.75012156  0.49919516  1  0.219535  0  -0.051527  -0.191752  0  3.981783  0
C  C60  1  0.49658667  0.24743592  0.50079293  1  0.174947  0  -0.051527  -0.19147  0  3.98076  0
C  C61  1  0.58760853  0.97239321  0.49573863  1  0.553315  0  0.076239  0.205498  0  3.776217  0
N  N62  1  0.41962863  0.56894999  0.03418203  1  -0.649699  0  -0.161611  -0.154942  0  3.226857  0
N  N63  1  0.57987033  0.56892497  0.96575704  1  -0.654319  0  -0.161967  -0.156358  0  3.228042  0
N  N64  1  0.41964966  0.56894798  0.96568402  1  -0.468257  0  -0.161627  -0.155637  0  3.227427  0
N  N65  1  0.57985479  0.56891331  0.03427328  1  -0.464728  0  -0.161311  -0.155021  0  3.226843  0
N  N66  1  0.26636953  0.50322396  0.50069270  1  -1.076631  0  -0.266663  -0.279799  0  3.104406  0
N  N67  1  0.73363805  0.49506879  0.49933807  1  -1.085975  0  -0.266383  -0.278393  0  3.104798  0
O  O68  1  0.58004217  0.62434620  0.50017332  1  -1.146661  0  -0.319047  -0.551959  0  2.252137  0
O  O69  1  0.06704890  0.62089836  0.41503250  1  -1.128769  0  -0.358629  -0.461108  0  2.235324  0
O  O70  1  0.59216850  0.06114831  0.61204560  1  -1.135356  0  -0.378108  -0.480755  0  2.233932  0
O  O71  1  0.40789002  0.93651718  0.38791228  1  -1.124693  0  -0.377802  -0.478899  0  2.235379  0
O  O72  1  0.32560467  0.05770212  0.50695088  1  -1.111483  0  -0.380402  -0.482248  0  2.238118  0
O  O73  1  0.67455196  0.93996926  0.49304346  1  -1.122901  0  -0.381385  -0.481068  0  2.237853  0
O  O74  1  0.06823742  0.52958039  0.62989747  1  -1.128296  0  -0.359453  -0.461471  0  2.236572  0
O  O75  1  0.93174309  0.47060245  0.37009315  1  -1.126189  0  -0.359505  -0.461981  0  2.236274  0
O  O76  1  0.42008254  0.37320122  0.49978665  1  -1.139791  0  -0.320579  -0.553138  0  2.255463  0
O  O77  1  0.42555914  0.62630079  0.50008499  1  -1.137703  0  -0.318248  -0.549505  0  2.253133  0
O  O78  1  0.57458557  0.37117956  0.50013795  1  -1.135149  0  -0.317901  -0.548964  0  2.258829  0
O  O79  1  0.57618406  0.49951076  0.39410572  1  -1.160286  0  -0.317282  -0.550449  0  2.320917  0
O  O80  1  0.42384525  0.50036550  0.60590105  1  -1.158384  0  -0.317348  -0.550812  0  2.318769  0
O  O81  1  0.42241040  0.50098552  0.39394454  1  -1.167774  0  -0.318386  -0.551696  0  2.317118  0
O  O82  1  0.57761672  0.49921702  0.60609346  1  -1.168561  0  -0.317921  -0.551278  0  2.3183  0
O  O83  1  0.93293668  0.37921499  0.58497998  1  -1.128379  0  -0.358516  -0.461059  0  2.235728  0
