# generated using pymatgen
data_SbH13C6NO2F3
_symmetry_space_group_name_H-M   'P 1'
_cell_length_a   5.81186078
_cell_length_b   6.15769417
_cell_length_c   28.59400000
_cell_angle_alpha   90.00000000
_cell_angle_beta   90.00000000
_cell_angle_gamma   90.00000000
_symmetry_Int_Tables_number   1
_chemical_formula_structural   SbH13C6NO2F3
_chemical_formula_sum   'Sb4 H52 C24 N4 O8 F12'
_cell_volume   1023.31238551
_cell_formula_units_Z   4
loop_
 _symmetry_equiv_pos_site_id
 _symmetry_equiv_pos_as_xyz
  1  'x, y, z'
loop_
 _atom_site_type_symbol
 _atom_site_label
 _atom_site_symmetry_multiplicity
 _atom_site_fract_x
 _atom_site_fract_y
 _atom_site_fract_z
 _atom_site_occupancy
 _atom_site_pbe_bader_charge
 _atom_site_pbe_bader_spin_density
 _atom_site_pbe_cm5_charge
 _atom_site_pbe_ddec_charge
 _atom_site_pbe_ddec_spin_density
 _atom_site_pbe_ddec_sum_bond_order
 _atom_site_pbe_magmom
Sb  Sb0  1  0.56722969  0.22245990  0.70194761  1  2.043903  0  0.728066  1.282372  0  3.269819  0
Sb  Sb1  1  0.93277871  0.77755404  0.20194516  1  2.043812  0  0.728101  1.282245  0  3.269894  0
Sb  Sb2  1  0.43277878  0.72244900  0.79805589  1  2.043763  0  0.728087  1.282394  0  3.269631  0
Sb  Sb3  1  0.06722116  0.27753733  0.29805379  1  2.043807  0  0.7281  1.282266  0  3.270004  0
H  H4  1  0.90219126  0.57200632  0.59472372  1  0.055759  0  0.09871  0.108986  0  0.978193  0
H  H5  1  0.59781714  0.42800762  0.09472022  1  0.055885  0  0.098729  0.108981  0  0.978308  0
H  H6  1  0.09780344  0.07199773  0.90527768  1  0.055875  0  0.098706  0.109017  0  0.978206  0
H  H7  1  0.40218444  0.92799834  0.40527803  1  0.055945  0  0.09875  0.109067  0  0.978337  0
H  H8  1  0.06068969  0.81704610  0.58872736  1  0.038423  0  0.097089  0.098681  0  0.989786  0
H  H9  1  0.43933090  0.18296946  0.08872456  1  0.038481  0  0.097071  0.098668  0  0.989767  0
H  H10  1  0.93931018  0.31704075  0.91127264  1  0.038465  0  0.097078  0.098688  0  0.989778  0
H  H11  1  0.56066553  0.68295207  0.41127369  1  0.03836  0  0.097092  0.098743  0  0.989805  0
H  H12  1  0.14216789  0.45848656  0.66116843  1  0.105979  0  0.112044  0.076712  0  1.010812  0
H  H13  1  0.35784064  0.54152576  0.16116563  1  0.105878  0  0.112025  0.076678  0  1.010743  0
H  H14  1  0.85782853  0.95848216  0.83883227  1  0.105909  0  0.112054  0.076703  0  1.010744  0
H  H15  1  0.64216266  0.04151067  0.33883157  1  0.105996  0  0.112034  0.076641  0  1.010849  0
H  H16  1  0.40907897  0.60381206  0.56582465  1  0.020814  0  0.0908  0.053963  0  0.964625  0
H  H17  1  0.09093129  0.39618564  0.06582080  1  0.020926  0  0.090805  0.053954  0  0.964759  0
H  H18  1  0.59091574  0.10381808  0.93417815  1  0.020758  0  0.090788  0.05393  0  0.964715  0
H  H19  1  0.90907718  0.89617150  0.43417465  1  0.020817  0  0.090818  0.053958  0  0.964656  0
H  H20  1  0.32386357  0.24463703  0.60344583  1  0.039432  0  0.080362  0.11428  0  1.056652  0
H  H21  1  0.17612259  0.75535742  0.10344338  1  0.039326  0  0.080413  0.114306  0  1.056599  0
H  H22  1  0.67612425  0.74464075  0.89655837  1  0.039215  0  0.080421  0.114329  0  1.056493  0
H  H23  1  0.82386867  0.25535370  0.39655522  1  0.0393  0  0.080404  0.114331  0  1.056597  0
H  H24  1  0.36214219  0.21339157  0.54268553  1  -0.004259  0  0.083464  0.113459  0  1.031143  0
H  H25  1  0.13784398  0.78660776  0.04268343  1  -0.004396  0  0.083448  0.113439  0  1.031025  0
H  H26  1  0.63784735  0.71339853  0.95731832  1  -0.004348  0  0.083484  0.113496  0  1.031011  0
H  H27  1  0.86215245  0.28659754  0.45731517  1  -0.004269  0  0.083486  0.113493  0  1.031116  0
H  H28  1  0.07996406  0.21312036  0.56702385  1  -0.013194  0  0.08169  0.110971  0  1.017897  0
H  H29  1  0.42002211  0.78689845  0.06702210  1  -0.013324  0  0.081662  0.110886  0  1.017889  0
H  H30  1  0.92002204  0.71311759  0.93297895  1  -0.013452  0  0.08171  0.110923  0  1.017913  0
H  H31  1  0.57997088  0.28687849  0.43297755  1  -0.01332  0  0.081699  0.110956  0  1.017917  0
H  H32  1  0.97676806  0.51904656  0.50704064  1  -0.01146  0  0.083938  0.109268  0  1.032307  0
H  H33  1  0.52324034  0.48096737  0.00703714  1  -0.010948  0  0.083912  0.109261  0  1.032391  0
H  H34  1  0.02323868  0.01905096  0.99296006  1  -0.011189  0  0.083934  0.109271  0  1.032346  0
H  H35  1  0.47677501  0.98094836  0.49296181  1  -0.011083  0  0.08392  0.109264  0  1.032344  0
H  H36  1  0.26347156  0.51015687  0.48574456  1  0.01857  0  0.085408  0.114044  0  1.014359  0
H  H37  1  0.23653870  0.48984895  0.98574176  1  0.018351  0  0.085408  0.114065  0  1.014338  0
H  H38  1  0.73653863  0.01016777  0.01425754  1  0.018309  0  0.085418  0.11407  0  1.014429  0
H  H39  1  0.76348009  0.98983643  0.51425544  1  0.018553  0  0.085447  0.114114  0  1.014318  0
H  H40  1  0.14448041  0.75946123  0.50570644  1  2.4e-05  0  0.085486  0.111844  0  1.028679  0
H  H41  1  0.35552813  0.24054621  0.00570329  1  2.7e-05  0  0.085503  0.111886  0  1.028683  0
H  H42  1  0.85552290  0.25947213  0.99429426  1  -8.2e-05  0  0.085493  0.111901  0  1.02861  0
H  H43  1  0.64448550  0.74052720  0.49429461  1  -8.5e-05  0  0.085504  0.111909  0  1.028619  0
H  H44  1  0.98740837  0.91746356  0.66679408  1  0.515943  0  0.305066  0.308562  0  0.930545  0
H  H45  1  0.51260691  0.08254876  0.16679373  1  0.51602  0  0.305133  0.308577  0  0.930583  0
H  H46  1  0.01258461  0.41745659  0.83320627  1  0.515965  0  0.305096  0.308599  0  0.930569  0
H  H47  1  0.48739123  0.58253461  0.33320452  1  0.515865  0  0.305104  0.308532  0  0.930512  0
H  H48  1  0.04021087  0.76049246  0.71255648  1  0.531544  0  0.304715  0.320702  0  0.915815  0
H  H49  1  0.45980282  0.23952797  0.21255473  1  0.53164  0  0.304715  0.320797  0  0.915742  0
H  H50  1  0.95978383  0.26048549  0.78744387  1  0.5316  0  0.304718  0.3208  0  0.915731  0
H  H51  1  0.54018672  0.73951545  0.28744317  1  0.531535  0  0.304724  0.320706  0  0.915784  0
H  H52  1  0.82349701  0.69533008  0.67460236  1  0.547183  0  0.302399  0.309786  0  0.959316  0
H  H53  1  0.67652515  0.30467898  0.17460062  1  0.54761  0  0.302385  0.30977  0  0.959436  0
H  H54  1  0.17650113  0.19532636  0.82539799  1  0.547191  0  0.302387  0.309794  0  0.959335  0
H  H55  1  0.32347299  0.80466159  0.32539869  1  0.547562  0  0.302375  0.309752  0  0.959438  0
C  C56  1  0.07564359  0.64314172  0.59734839  1  -0.028947  0  -0.156501  -0.221621  0  3.845866  0
C  C57  1  0.42436839  0.35687060  0.09734560  1  -0.029091  0  -0.156575  -0.221572  0  3.845869  0
C  C58  1  0.92435284  0.14313637  0.90265300  1  -0.029059  0  -0.1565  -0.221619  0  3.845974  0
C  C59  1  0.57562976  0.85685321  0.40265265  1  -0.029109  0  -0.156588  -0.221852  0  3.846043  0
C  C60  1  0.15296994  0.62620031  0.64853256  1  0.240021  0  0.009138  0.034294  0  3.77311  0
C  C61  1  0.34704204  0.37381363  0.14852976  1  0.240081  0  0.009207  0.034481  0  3.772796  0
C  C62  1  0.84702476  0.12619334  0.85146919  1  0.23996  0  0.00913  0.034451  0  3.772962  0
C  C63  1  0.65295095  0.87379786  0.35146849  1  0.239962  0  0.009167  0.034544  0  3.772871  0
C  C64  1  0.23539105  0.53343344  0.56177590  1  0.044526  0  -0.092561  0.125676  0  3.878158  0
C  C65  1  0.26462093  0.46656750  0.06177380  1  0.044303  0  -0.092569  0.125633  0  3.878261  0
C  C66  1  0.76460538  0.03343947  0.93822585  1  0.044491  0  -0.092518  0.125695  0  3.878283  0
C  C67  1  0.73538754  0.96655499  0.43822375  1  0.044459  0  -0.09256  0.125667  0  3.878305  0
C  C68  1  0.25160272  0.28819229  0.56932119  1  -0.021221  0  -0.248908  -0.392562  0  3.914777  0
C  C69  1  0.24838517  0.71180703  0.06931874  1  -0.020812  0  -0.248903  -0.392498  0  3.914595  0
C  C70  1  0.74838338  0.78819764  0.93068266  1  -0.020546  0  -0.249053  -0.39266  0  3.914571  0
C  C71  1  0.75160954  0.21179844  0.43067951  1  -0.0208  0  -0.249022  -0.392695  0  3.914832  0
C  C72  1  0.15117189  0.58389064  0.51229174  1  -0.020285  0  -0.243029  -0.395977  0  3.938155  0
C  C73  1  0.34883492  0.41611680  0.01228859  1  -0.02063  0  -0.242995  -0.396008  0  3.93813  0
C  C74  1  0.84883141  0.08389991  0.98771001  1  -0.020148  0  -0.243022  -0.396045  0  3.938168  0
C  C75  1  0.65118215  0.91609779  0.48770896  1  -0.020555  0  -0.243021  -0.396038  0  3.938087  0
C  C76  1  0.39646683  0.71707199  0.65478527  1  1.582254  0  0.22069  0.583003  0  4.148007  0
C  C77  1  0.10354687  0.28292409  0.15478492  1  1.582294  0  0.220664  0.582833  0  4.14826  0
C  C78  1  0.60352616  0.21705690  0.84521578  1  1.582099  0  0.220687  0.582876  0  4.148127  0
C  C79  1  0.89644267  0.78289695  0.34521438  1  1.582424  0  0.220496  0.582688  0  4.148452  0
N  N80  1  0.99218309  0.75717466  0.67773799  1  -1.177214  0  -0.612173  -0.458907  0  3.419106  0
N  N81  1  0.50783219  0.24283928  0.17773624  1  -1.177714  0  -0.612263  -0.459197  0  3.419227  0
N  N82  1  0.00781161  0.25716932  0.82226306  1  -1.177142  0  -0.612179  -0.459125  0  3.419159  0
N  N83  1  0.49216079  0.74282513  0.32226236  1  -1.177688  0  -0.612211  -0.458906  0  3.418848  0
O  O84  1  0.41637095  0.92065793  0.65207141  1  -1.176846  0  -0.301912  -0.563208  0  2.296538  0
O  O85  1  0.08366167  0.07934464  0.15207561  1  -1.176796  0  -0.301824  -0.563038  0  2.296842  0
O  O86  1  0.58363236  0.42065746  0.84792999  1  -1.176714  0  -0.301927  -0.563189  0  2.296337  0
O  O87  1  0.91633131  0.57934024  0.34792439  1  -1.17709  0  -0.301721  -0.562895  0  2.297095  0
O  O88  1  0.56294535  0.58407090  0.66082605  1  -1.191264  0  -0.290689  -0.561055  0  2.327779  0
O  O89  1  0.93705789  0.41592192  0.16082255  1  -1.191199  0  -0.290718  -0.560995  0  2.32772  0
O  O90  1  0.43705452  0.08407043  0.83917500  1  -1.191245  0  -0.290657  -0.560984  0  2.327968  0
O  O91  1  0.06294026  0.91591103  0.33917395  1  -1.190882  0  -0.290668  -0.561066  0  2.327637  0
F  F92  1  0.70059146  0.97913599  0.74107575  1  -0.725327  0  -0.278796  -0.481241  0  1.139844  0
F  F93  1  0.79943071  0.02089743  0.24106666  1  -0.725359  0  -0.278815  -0.481198  0  1.139905  0
F  F94  1  0.29942562  0.47911278  0.75893124  1  -0.725291  0  -0.278811  -0.481232  0  1.139834  0
F  F95  1  0.20057948  0.52086543  0.25892880  1  -0.725303  0  -0.278801  -0.481231  0  1.139981  0
F  F96  1  0.77782834  0.40530431  0.74126985  1  -0.712027  0  -0.277634  -0.465479  0  1.099239  0
F  F97  1  0.72217146  0.59471937  0.24126775  1  -0.711946  0  -0.277656  -0.465404  0  1.099129  0
F  F98  1  0.22218529  0.90528855  0.75873155  1  -0.711937  0  -0.277661  -0.465463  0  1.099095  0
F  F99  1  0.27782840  0.09469779  0.25873085  1  -0.712062  0  -0.27765  -0.465464  0  1.099199  0
F  F100  1  0.83481697  0.18811912  0.65956389  1  -0.702378  0  -0.266875  -0.436598  0  1.067641  0
F  F101  1  0.66520004  0.81187858  0.15956145  1  -0.702413  0  -0.26686  -0.436513  0  1.06768  0
F  F102  1  0.16519150  0.68812284  0.84043925  1  -0.702399  0  -0.266858  -0.436569  0  1.067604  0
F  F103  1  0.33480327  0.31186187  0.34043785  1  -0.702347  0  -0.266872  -0.436523  0  1.067631  0
