# generated using pymatgen
data_Zn4H53C71N19O4
_symmetry_space_group_name_H-M   'P 1'
_cell_length_a   18.58121969
_cell_length_b   19.99628905
_cell_length_c   20.22064013
_cell_angle_alpha   112.33742324
_cell_angle_beta   106.77494266
_cell_angle_gamma   108.50665761
_symmetry_Int_Tables_number   1
_chemical_formula_structural   Zn4H53C71N19O4
_chemical_formula_sum   'Zn4 H53 C71 N19 O4'
_cell_volume   5828.67381514
_cell_formula_units_Z   1
loop_
 _symmetry_equiv_pos_site_id
 _symmetry_equiv_pos_as_xyz
  1  'x, y, z'
loop_
 _atom_site_type_symbol
 _atom_site_label
 _atom_site_symmetry_multiplicity
 _atom_site_fract_x
 _atom_site_fract_y
 _atom_site_fract_z
 _atom_site_occupancy
 _atom_site_pbe_bader_charge
 _atom_site_pbe_bader_spin_density
 _atom_site_pbe_cm5_charge
 _atom_site_pbe_ddec_charge
 _atom_site_pbe_ddec_spin_density
 _atom_site_pbe_ddec_sum_bond_order
 _atom_site_pbe_magmom
Zn  Zn0  1  0.99731181  0.62546296  0.12859425  1  1.19243  0  0.756399  0.636207  0  2.415989  0
Zn  Zn1  1  0.01580018  0.41615992  0.91737812  1  1.183975  0  0.739768  0.673953  0  2.278645  0
Zn  Zn2  1  0.11104495  0.62369068  0.02471448  1  1.199697  0  0.751276  0.655305  0  2.363792  0
Zn  Zn3  1  0.90584702  0.41147588  0.01044751  1  1.18658  0  0.745655  0.657091  0  2.33065  0
H  H4  1  0.96345418  0.78242904  0.13631929  1  0.107194  0  0.122566  0.112717  0  0.984063  0
H  H5  1  0.38925148  0.82439072  0.52087920  1  0.065626  0  0.102404  0.114329  0  1.044351  0
H  H6  1  0.16725074  0.58756980  0.66136879  1  0.062455  0  0.106563  0.126028  0  0.9952  0
H  H7  1  0.92573029  0.36190488  0.49400909  1  0.075482  0  0.103902  0.1114  0  0.992594  0
H  H8  1  0.93865023  0.37559017  0.38022279  1  0.082295  0  0.105473  0.108982  0  0.986315  0
H  H9  1  0.80202566  0.87830809  0.94495297  1  0.05306  0  0.101344  0.113572  0  1.0015  0
H  H10  1  0.00327390  0.99573687  0.85371230  1  0.063405  0  0.099499  0.110709  0  1.026858  0
H  H11  1  0.73045647  0.37656935  0.88829454  1  0.131453  0  0.124087  0.116428  0  0.998067  0
H  H12  1  0.91743711  0.37596868  0.75123209  1  0.139967  0  0.119406  0.11421  0  1.015816  0
H  H13  1  0.84275609  0.64264496  0.03221129  1  0.09465  0  0.121222  0.107879  0  1.015871  0
H  H14  1  0.72255236  0.21298028  0.86084238  1  0.097319  0  0.119054  0.109061  0  0.989395  0
H  H15  1  0.17080930  0.39591900  0.88214604  1  0.10663  0  0.124988  0.115855  0  0.984806  0
H  H16  1  0.07476863  0.74123184  0.97379333  1  0.139069  0  0.115469  0.104981  0  1.04177  0
H  H17  1  0.99338823  0.63807451  0.30057789  1  0.100944  0  0.123981  0.114847  0  0.980923  0
H  H18  1  0.88531453  0.30472947  0.07152166  1  0.421339  0  0.301079  0.233617  0  0.995996  0
H  H19  1  0.82398384  0.18473936  0.06687468  1  0.048144  0  0.103  0.107368  0  0.980065  0
H  H20  1  0.92474358  0.18874908  0.07893827  1  0.05579  0  0.096904  0.103024  0  0.977591  0
H  H21  1  0.83461173  0.12846191  0.98148895  1  0.128752  0  0.098152  0.11227  0  1.057338  0
H  H22  1  0.78612659  0.17274254  0.63076289  1  0.081778  0  0.104745  0.067825  0  0.963936  0
H  H23  1  0.83831484  0.11614445  0.64942568  1  0.058808  0  0.102661  0.065918  0  0.967175  0
H  H24  1  0.96352104  0.20313092  0.63983968  1  0.039967  0  0.094521  0.128941  0  0.990507  0
H  H25  1  0.86570355  0.15117958  0.54934142  1  0.055168  0  0.096805  0.1292  0  0.991125  0
H  H26  1  0.26844117  0.61976635  0.13808925  1  0.112732  0  0.122643  0.115947  0  1.00494  0
H  H27  1  0.90996251  0.25818838  0.61954338  1  0.024021  0  0.092585  0.126488  0  1.002626  0
H  H28  1  0.41747923  0.87249520  0.65278916  1  0.04217  0  0.098171  0.054585  0  0.985419  0
H  H29  1  0.39021599  0.93440449  0.61677136  1  0.034379  0  0.100518  0.059219  0  0.96174  0
H  H30  1  0.47810031  0.05792748  0.75891701  1  0.03986  0  0.095642  0.129938  0  0.989139  0
H  H31  1  0.39637880  0.97585254  0.75298866  1  0.045832  0  0.094353  0.125047  0  0.996222  0
H  H32  1  0.50473419  0.99577902  0.79459154  1  0.0393  0  0.091556  0.122526  0  1.001769  0
H  H33  1  0.20225652  0.54134715  0.45130409  1  0.046235  0  0.097792  0.060121  0  1.009019  0
H  H34  1  0.29075961  0.58228169  0.54638720  1  0.055269  0  0.097589  0.057507  0  0.957895  0
H  H35  1  0.33329064  0.72561356  0.56947588  1  0.045183  0  0.085431  0.111599  0  1.02137  0
H  H36  1  0.33221848  0.66028482  0.47963832  1  0.03029  0  0.095405  0.133288  0  0.993023  0
H  H37  1  0.07788686  0.28997267  0.92486998  1  0.099276  0  0.119504  0.109798  0  0.989272  0
H  H38  1  0.24570115  0.68241119  0.47301783  1  0.020386  0  0.088418  0.119833  0  1.003008  0
H  H39  1  0.73324637  0.94834656  0.91592088  1  0.396107  0  0.301874  0.239556  0  0.94772  0
H  H40  1  0.67453635  0.99974403  0.84197675  1  0.020353  0  0.096798  0.101864  0  0.99503  0
H  H41  1  0.69335545  0.92696780  0.77425588  1  0.02126  0  0.087583  0.089644  0  0.993862  0
H  H42  1  0.76634534  0.03469504  0.82839785  1  0.075506  0  0.09608  0.107769  0  1.028946  0
H  H43  1  0.01801183  0.83646875  0.89567602  1  0.442974  0  0.300035  0.242803  0  0.985983  0
H  H44  1  0.09455586  0.85520281  0.82514950  1  0.027043  0  0.10178  0.102904  0  1.00888  0
H  H45  1  0.11825561  0.96019682  0.88010767  1  0.018346  0  0.090642  0.08717  0  0.990819  0
H  H46  1  0.02976453  0.89065390  0.78098086  1  0.048908  0  0.099672  0.102917  0  0.981776  0
H  H47  1  0.07181171  0.65298820  0.77288987  1  0.065273  0  0.107338  0.074405  0  0.959593  0
H  H48  1  0.14768410  0.66813465  0.29208777  1  0.102583  0  0.119757  0.106079  0  1.011885  0
H  H49  1  0.16139388  0.63809823  0.80958620  1  0.037827  0  0.10577  0.0716  0  0.967776  0
H  H50  1  0.24418171  0.78460036  0.92724189  1  0.05758  0  0.095367  0.129194  0  0.991072  0
H  H51  1  0.20964851  0.78198687  0.83407453  1  0.050021  0  0.099921  0.133891  0  0.987143  0
H  H52  1  0.15457800  0.79985312  0.89232891  1  0.026845  0  0.09238  0.124068  0  1.010268  0
H  H53  1  0.98185938  0.40408287  0.16745544  1  0.102943  0  0.122663  0.11153  0  1.016959  0
H  H54  1  0.30565502  0.66341450  0.01676152  1  0.109056  0  0.123618  0.114129  0  0.985029  0
H  H55  1  0.67169049  0.93752415  0.52515677  1  0.062503  0  0.102535  0.105306  0  0.993276  0
H  H56  1  0.54764283  0.80822737  0.40251153  1  0.047081  0  0.102361  0.110005  0  0.996863  0
C  C57  1  0.99687862  0.76569118  0.10213749  1  0.420186  0  0.011101  -0.054024  0  3.96917  0
C  C58  1  0.16390080  0.65173317  0.24288762  1  0.43117  0  0.021829  -0.030808  0  3.923505  0
C  C59  1  0.97508860  0.45930568  0.18614592  1  0.409708  0  0.015209  -0.04314  0  3.965648  0
C  C60  1  0.85521804  0.24468246  0.78481597  1  1.046391  0  0.188452  0.289025  0  4.100426  0
C  C61  1  0.26029685  0.59817933  0.98561820  1  0.427183  0  0.017161  -0.051737  0  3.966078  0
C  C62  1  0.99989288  0.51952162  0.26521512  1  0.160301  0  -0.029365  0.043245  0  4.203139  0
C  C63  1  0.27004151  0.52924224  0.94437417  1  0.149014  0  -0.031613  0.023349  0  4.227802  0
C  C64  1  0.24216789  0.65670224  0.24526418  1  0.108887  0  -0.024625  0.048919  0  4.183944  0
C  C65  1  0.98000119  0.23877065  0.96109885  1  0.108788  0  -0.033295  -0.044593  0  4.147721  0
C  C66  1  0.66972715  0.50326011  0.92187230  1  -0.11849  0  -0.027283  -0.0578  0  4.070839  0
C  C67  1  0.60286472  0.50645029  0.91383525  1  -0.033571  0  -0.051116  -0.066888  0  4.343915  0
C  C68  1  0.77803632  0.18722292  0.77433338  1  0.1244  0  -0.043225  -0.086917  0  4.220348  0
C  C69  1  0.53199577  0.51112834  0.91190611  1  -0.14371  0  -0.033014  -0.024325  0  4.262907  0
C  C70  1  0.46901809  0.51703252  0.91627292  1  -0.003279  0  -0.033771  -0.023007  0  4.266492  0
C  C71  1  0.40165868  0.52270920  0.92407789  1  0.101304  0  -0.053826  -0.070059  0  4.353541  0
C  C72  1  0.04517745  0.57619801  0.85395042  1  1.023923  0  0.194761  0.299982  0  4.060581  0
C  C73  1  0.34050107  0.52730008  0.93358942  1  -0.300128  0  -0.031344  -0.062911  0  4.095002  0
C  C74  1  0.54085552  0.83975307  0.45575858  1  0.046361  0  -0.102008  -0.160803  0  4.010426  0
C  C75  1  0.45999001  0.80880605  0.45337159  1  0.090671  0  -0.008164  0.158686  0  4.142779  0
C  C76  1  0.45174100  0.84908885  0.52317040  1  0.02245  0  -0.11133  -0.282637  0  3.971439  0
C  C77  1  0.52151168  0.92085317  0.59203736  1  0.470623  0  0.08662  0.213666  0  4.0488  0
C  C78  1  0.60182156  0.95543820  0.59273376  1  0.084976  0  -0.015099  0.036339  0  4.122532  0
C  C79  1  0.00406303  0.50154333  0.77820015  1  0.124859  0  -0.03913  -0.073393  0  4.198318  0
C  C80  1  0.60991372  0.91189942  0.52424700  1  -0.094356  0  -0.091411  -0.116818  0  4.018098  0
C  C81  1  0.38576302  0.74354864  0.38036662  1  -0.140319  0  -0.054218  -0.118668  0  4.134872  0
C  C82  1  0.66808364  0.03365460  0.65854382  1  -0.127524  0  -0.058458  -0.119449  0  4.167909  0
C  C83  1  0.72070905  0.10498119  0.71235000  1  -0.193507  0  -0.051288  -0.079017  0  4.210831  0
C  C84  1  0.77125308  0.44256075  0.92995222  1  0.426687  0  0.023839  -0.031378  0  3.906424  0
C  C85  1  0.31995071  0.69656786  0.31599342  1  -0.222882  0  -0.055528  -0.104426  0  4.158178  0
C  C86  1  0.11653989  0.54060498  0.59999221  1  -0.01409  0  -0.098873  -0.249817  0  3.93362  0
C  C87  1  0.04271740  0.47643824  0.58606660  1  0.11494  0  -0.004106  0.163042  0  4.144844  0
C  C88  1  0.98118561  0.41361005  0.50553486  1  -0.022138  0  -0.097139  -0.155802  0  3.997595  0
C  C89  1  0.98879815  0.42102083  0.44223493  1  -0.04491  0  -0.085423  -0.105216  0  4.0051  0
C  C90  1  0.75015598  0.50693311  0.94588605  1  0.123909  0  -0.025467  0.032576  0  4.198249  0
C  C91  1  0.05756715  0.48999511  0.45592347  1  0.100433  0  -0.016947  0.019421  0  4.121609  0
C  C92  1  0.12511507  0.54706585  0.53615247  1  0.537934  0  0.086614  0.216701  0  4.055357  0
C  C93  1  0.02838469  0.47849975  0.65154895  1  -0.452326  0  -0.056866  -0.137835  0  4.140332  0
C  C94  1  0.05070338  0.50478062  0.39187536  1  -0.081949  0  -0.053228  -0.105771  0  4.180065  0
C  C95  1  0.02992036  0.51483240  0.33472130  1  -0.329793  0  -0.05415  -0.104378  0  4.155323  0
C  C96  1  0.95722192  0.44225348  0.79239214  1  0.414756  0  0.010961  -0.032566  0  3.953952  0
C  C97  1  0.01396381  0.48786183  0.70881260  1  0.072943  0  -0.053531  -0.08237  0  4.218186  0
C  C98  1  0.83726934  0.95945784  0.90042498  1  0.364005  0  0.080983  0.161662  0  4.052966  0
C  C99  1  0.90270393  0.99973048  0.88435160  1  0.08209  0  -0.012053  0.066335  0  4.115363  0
C  C100  1  0.95704692  0.96660466  0.87023835  1  0.015132  0  -0.113544  -0.259401  0  3.981175  0
C  C101  1  0.98289558  0.57981296  0.25502670  1  0.420797  0  0.016788  -0.047015  0  3.964395  0
C  C102  1  0.95882201  0.90440162  0.88544759  1  0.379544  0  0.094868  0.187316  0  4.082614  0
C  C103  1  0.90874408  0.87988808  0.92244537  1  0.137256  0  -0.021717  0.044754  0  4.133023  0
C  C104  1  0.84488061  0.90314381  0.92314774  1  -0.018796  0  -0.105271  -0.240746  0  3.994037  0
C  C105  1  0.92336258  0.07931889  0.89684749  1  -0.097364  0  -0.051978  -0.109379  0  4.139878  0
C  C106  1  0.93040311  0.83839538  0.96128959  1  -0.259225  0  -0.055455  -0.109982  0  4.173052  0
C  C107  1  0.96336454  0.81239843  0.00032460  1  -0.144952  0  -0.063116  -0.12356  0  4.167392  0
C  C108  1  0.82943425  0.57894063  0.00379767  1  0.448543  0  0.024945  -0.027314  0  3.91867  0
C  C109  1  0.95239347  0.15389396  0.92566299  1  -0.216166  0  -0.055026  -0.08931  0  4.153828  0
C  C110  1  0.77193064  0.23336153  0.84376107  1  0.463321  0  0.01329  -0.032796  0  3.993078  0
C  C111  1  0.05451685  0.74551264  0.01980237  1  0.420669  0  0.013419  -0.037203  0  3.947739  0
C  C112  1  0.19120687  0.46126900  0.91694571  1  0.436693  0  0.020659  -0.040814  0  3.948212  0
C  C113  1  0.00216805  0.77884724  0.03954761  1  0.085958  0  -0.030026  0.048117  0  4.198681  0
C  C114  1  0.86735813  0.18625360  0.03977158  1  0.204647  0  -0.141383  -0.210581  0  3.962372  0
C  C115  1  0.84910514  0.17595521  0.65533618  1  0.367193  0  -0.061582  0.095304  0  3.884028  0
C  C116  1  0.90033788  0.19879363  0.61394452  1  -0.054791  0  -0.241167  -0.39779  0  3.97963  0
C  C117  1  0.43956639  0.93589696  0.66437639  1  0.428676  0  -0.063271  0.086702  0  3.927626  0
C  C118  1  0.45579479  0.99498704  0.74775164  1  -0.067698  0  -0.240602  -0.394165  0  3.98339  0
C  C119  1  0.24533482  0.59607211  0.51235372  1  0.388876  0  -0.066569  0.08846  0  3.908192  0
C  C120  1  0.29179303  0.67059147  0.50849605  1  -0.039708  0  -0.245138  -0.391539  0  3.984978  0
C  C121  1  0.72439491  0.98535632  0.83262967  1  0.26036  0  -0.144962  -0.220776  0  3.983578  0
C  C122  1  0.06588990  0.89572371  0.83809989  1  0.335425  0  -0.133276  -0.201596  0  4.029589  0
C  C123  1  0.22618727  0.62701872  0.16440710  1  0.437882  0  0.017931  -0.037184  0  3.915567  0
C  C124  1  0.12844077  0.67326549  0.82754600  1  0.421863  0  -0.060375  0.091105  0  3.880651  0
C  C125  1  0.18761941  0.76529631  0.87323071  1  -0.076098  0  -0.239465  -0.398349  0  3.979676  0
C  C126  1  0.94913328  0.28405510  0.00772838  1  0.901842  0  0.20286  0.282553  0  4.058992  0
C  C127  1  0.03917582  0.29846563  0.95538646  1  0.40873  0  0.010038  -0.037405  0  3.985539  0
N  N128  1  0.04080418  0.72621272  0.11687907  1  -0.803063  0  -0.281189  -0.205469  0  3.522246  0
N  N129  1  0.02451455  0.56112862  0.90712806  1  -0.787915  0  -0.294924  -0.290557  0  3.551478  0
N  N130  1  0.85574121  0.47470992  0.97687870  1  -0.772603  0  -0.275545  -0.17705  0  3.617196  0
N  N131  1  0.97098086  0.47794581  0.86969045  1  -0.780115  0  -0.287984  -0.206277  0  3.528726  0
N  N132  1  0.89135557  0.55829720  0.02204387  1  -0.810471  0  -0.277589  -0.176795  0  3.603939  0
N  N133  1  0.83871584  0.30976506  0.89028483  1  -0.809157  0  -0.269569  -0.190528  0  3.555646  0
N  N134  1  0.07689714  0.71401329  0.06531234  1  -0.797921  0  -0.274945  -0.192714  0  3.53974  0
N  N135  1  0.94970443  0.55653360  0.17624229  1  -0.794032  0  -0.278258  -0.203636  0  3.493655  0
N  N136  1  0.88811432  0.25797737  0.03060496  1  -1.192263  0  -0.448846  -0.31771  0  3.586001  0
N  N137  1  0.77300850  0.98177456  0.90159117  1  -1.112397  0  -0.45607  -0.31593  0  3.524947  0
N  N138  1  0.00922263  0.86946682  0.86947602  1  -1.22206  0  -0.453729  -0.296251  0  3.641195  0
N  N139  1  0.13980469  0.48786888  0.93980095  1  -0.837696  0  -0.260341  -0.181069  0  3.529893  0
N  N140  1  0.14530871  0.60811740  0.11863870  1  -0.801226  0  -0.283259  -0.203084  0  3.612286  0
N  N141  1  0.98646031  0.36335739  0.02561032  1  -0.786768  0  -0.304547  -0.318316  0  3.4874  0
N  N142  1  0.04217802  0.37213834  0.99240952  1  -0.783357  0  -0.299167  -0.220752  0  3.531316  0
N  N143  1  0.10763501  0.62350387  0.16730014  1  -0.80159  0  -0.28213  -0.17544  0  3.642173  0
N  N144  1  0.94434064  0.48087350  0.13347916  1  -0.802173  0  -0.273791  -0.203291  0  3.568654  0
N  N145  1  0.18275571  0.57274931  0.98249877  1  -0.745552  0  -0.260298  -0.177863  0  3.539957  0
N  N146  1  0.89037774  0.31692083  0.85352696  1  -0.795794  0  -0.279778  -0.297202  0  3.511906  0
O  O147  1  0.89794891  0.23964191  0.74059790  1  -1.100385  0  -0.187048  -0.236795  0  2.536146  0
O  O148  1  0.51914691  0.96447530  0.66140069  1  -1.071001  0  -0.1785  -0.196412  0  2.551937  0
O  O149  1  0.19616438  0.61369539  0.55455870  1  -1.072768  0  -0.204794  -0.240237  0  2.489824  0
O  O150  1  0.10037705  0.65507701  0.88153177  1  -1.093345  0  -0.175911  -0.222868  0  2.561846  0
