# generated using pymatgen
data_GdH15C20SN4O7
_symmetry_space_group_name_H-M   'P 1'
_cell_length_a   9.60218062
_cell_length_b   9.76740349
_cell_length_c   12.14376556
_cell_angle_alpha   74.13929643
_cell_angle_beta   77.32586103
_cell_angle_gamma   63.98343617
_symmetry_Int_Tables_number   1
_chemical_formula_structural   GdH15C20SN4O7
_chemical_formula_sum   'Gd2 H30 C40 S2 N8 O14'
_cell_volume   978.01740676
_cell_formula_units_Z   2
loop_
 _symmetry_equiv_pos_site_id
 _symmetry_equiv_pos_as_xyz
  1  'x, y, z'
loop_
 _atom_site_type_symbol
 _atom_site_label
 _atom_site_symmetry_multiplicity
 _atom_site_fract_x
 _atom_site_fract_y
 _atom_site_fract_z
 _atom_site_occupancy
 _atom_site_hle17_bader_spin_density
 _atom_site_hle17_ddec_charge
 _atom_site_hle17_ddec_spin_density
 _atom_site_hle17_ddec_sum_bond_order
 _atom_site_hle17_magmom
 _atom_site_hse06_10hf_bader_spin_density
 _atom_site_hse06_10hf_ddec_charge
 _atom_site_hse06_10hf_ddec_spin_density
 _atom_site_hse06_10hf_ddec_sum_bond_order
 _atom_site_hse06_10hf_magmom
 _atom_site_hse06_bader_spin_density
 _atom_site_hse06_ddec_charge
 _atom_site_hse06_ddec_spin_density
 _atom_site_hse06_ddec_sum_bond_order
 _atom_site_hse06_magmom
 _atom_site_pbe_bader_spin_density
 _atom_site_pbe_cm5_charge
 _atom_site_pbe_ddec_charge
 _atom_site_pbe_ddec_spin_density
 _atom_site_pbe_ddec_sum_bond_order
 _atom_site_pbe_magmom
Gd  Gd0  1  0.69632125  0.48962078  0.93513218  1  0  2.145451  0  1.866317  0  0  2.016032  0  2.291195  0  0  2.076967  0  2.222625  0  0  1.439048  1.969822  0  2.343245  0
Gd  Gd1  1  0.30367417  0.51038376  0.06486813  1  0  2.145429  0  1.86631  0  0  2.016003  0  2.291212  0  0  2.076905  0  2.222689  0  0  1.439019  1.969785  0  2.34327  0
H  H2  1  0.81400121  0.67963486  0.06603630  1  0  0.079722  0  0.971907  0  0  0.089256  0  1.035874  0  0  0.092144  0  1.03298  0  0  0.121869  0.086975  0  1.038345  0
H  H3  1  0.18600915  0.32037015  0.93395500  1  0  0.079781  0  0.971888  0  0  0.089332  0  1.035849  0  0  0.092224  0  1.032946  0  0  0.121864  0.087051  0  1.038321  0
H  H4  1  0.80194236  0.93876025  0.07049577  1  0  0.109027  0  0.946291  0  0  0.119479  0  1.005052  0  0  0.12277  0  1.00378  0  0  0.110694  0.116914  0  1.006472  0
H  H5  1  0.19806669  0.06123995  0.92950167  1  0  0.109036  0  0.946256  0  0  0.119474  0  1.005029  0  0  0.122808  0  1.003706  0  0  0.110657  0.11691  0  1.006449  0
H  H6  1  0.65726870  0.17169883  0.92781937  1  0  0.127915  0  0.95212  0  0  0.13694  0  1.01266  0  0  0.140926  0  1.009156  0  0  0.124001  0.134014  0  1.015284  0
H  H7  1  0.34273930  0.82830366  0.07218023  1  0  0.127974  0  0.952071  0  0  0.136981  0  1.012604  0  0  0.140968  0  1.009099  0  0  0.123971  0.134053  0  1.015226  0
H  H8  1  0.30985014  0.51111168  0.63432815  1  0  0.093436  0  0.931029  0  0  0.105293  0  0.990721  0  0  0.107046  0  0.988813  0  0  0.138435  0.104154  0  0.991961  0
H  H9  1  0.69015348  0.48888368  0.36567196  1  0  0.09341  0  0.931041  0  0  0.105272  0  0.990726  0  0  0.107026  0  0.988817  0  0  0.138409  0.104132  0  0.991969  0
H  H10  1  0.30963449  0.04476771  0.54645657  1  0  0.094439  0  0.946751  0  0  0.106417  0  1.006665  0  0  0.109208  0  1.004755  0  0  0.107871  0.104461  0  1.00813  0
H  H11  1  0.69035682  0.95522840  0.45355353  1  0  0.094457  0  0.946637  0  0  0.106387  0  1.006618  0  0  0.109174  0  1.00471  0  0  0.107898  0.104431  0  1.008081  0
H  H12  1  0.36910252  0.76624253  0.55153250  1  0  0.101801  0  0.9611  0  0  0.114145  0  1.018022  0  0  0.117052  0  1.017358  0  0  0.10725  0.11223  0  1.018293  0
H  H13  1  0.63087715  0.23375328  0.44848031  1  0  0.101766  0  0.96112  0  0  0.114128  0  1.01803  0  0  0.117033  0  1.017377  0  0  0.107245  0.112214  0  1.018305  0
H  H14  1  0.53382524  0.55791714  0.69785524  1  0  0.089735  0  0.963657  0  0  0.094022  0  1.032486  0  0  0.097247  0  1.02935  0  0  0.124569  0.09092  0  1.036301  0
H  H15  1  0.46616424  0.44207300  0.30215967  1  0  0.089821  0  0.963602  0  0  0.09403  0  1.032508  0  0  0.097254  0  1.029369  0  0  0.124604  0.090929  0  1.036322  0
H  H16  1  0.98274274  0.32084119  0.28553072  1  0  0.098214  0  0.971071  0  0  0.10952  0  1.031947  0  0  0.113289  0  1.028286  0  0  0.108088  0.10654  0  1.035265  0
H  H17  1  0.01724787  0.67915511  0.71446462  1  0  0.098194  0  0.971032  0  0  0.109501  0  1.031895  0  0  0.113233  0  1.028278  0  0  0.108051  0.106519  0  1.035219  0
H  H18  1  0.13060869  0.12677645  0.44113330  1  0  0.088058  0  0.952776  0  0  0.100012  0  1.009154  0  0  0.102981  0  1.008067  0  0  0.100657  0.097663  0  1.010326  0
H  H19  1  0.86938000  0.87323148  0.55886572  1  0  0.088038  0  0.952758  0  0  0.100046  0  1.009094  0  0  0.103018  0  1.008002  0  0  0.100664  0.097695  0  1.010269  0
H  H20  1  0.19118141  0.84336732  0.46005095  1  0  0.091688  0  0.980602  0  0  0.101278  0  1.044941  0  0  0.104187  0  1.043145  0  0  0.101262  0.098951  0  1.046446  0
H  H21  1  0.80881647  0.15663371  0.53995300  1  0  0.091671  0  0.980612  0  0  0.101254  0  1.044969  0  0  0.104163  0  1.04317  0  0  0.101249  0.098937  0  1.046461  0
H  H22  1  0.95548328  0.96025172  0.16336237  1  0  0.112266  0  0.940907  0  0  0.121622  0  1.004387  0  0  0.12577  0  1.000512  0  0  0.113376  0.118342  0  1.007532  0
H  H23  1  0.04452419  0.03974497  0.83663192  1  0  0.112268  0  0.94095  0  0  0.121612  0  1.004441  0  0  0.125758  0  1.000571  0  0  0.113356  0.118333  0  1.007587  0
H  H24  1  0.00114679  0.42524004  0.77948735  1  0  0.434659  0  0.861392  0  0  0.405736  0  0.921855  0  0  0.416192  0  0.90646  0  0  0.298732  0.398412  0  0.932565  0
H  H25  1  0.99885084  0.57476461  0.22050848  1  0  0.434694  0  0.861343  0  0  0.405792  0  0.921783  0  0  0.416251  0  0.906382  0  0  0.298773  0.398469  0  0.932493  0
H  H26  1  0.02119099  0.52191492  0.86135725  1  0  0.441133  0  0.857156  0  0  0.411596  0  0.918605  0  0  0.422597  0  0.902554  0  0  0.297918  0.403805  0  0.929963  0
H  H27  1  0.97880489  0.47808613  0.13864207  1  0  0.441193  0  0.857057  0  0  0.411646  0  0.918522  0  0  0.42265  0  0.902467  0  0  0.297953  0.403857  0  0.929878  0
H  H28  1  0.51333703  0.60297849  0.14170053  1  0  0.407022  0  0.917078  0  0  0.368602  0  0.996883  0  0  0.379669  0  0.981034  0  0  0.274431  0.360619  0  1.008399  0
H  H29  1  0.48666461  0.39702152  0.85829893  1  0  0.407  0  0.917108  0  0  0.368586  0  0.996903  0  0  0.379652  0  0.981058  0  0  0.274434  0.360604  0  1.008417  0
H  H30  1  0.25579972  0.31052607  0.58127620  1  0  0.332104  0  0.852434  0  0  0.316778  0  0.905921  0  0  0.324103  0  0.900196  0  0  0.333232  0.311156  0  0.910784  0
H  H31  1  0.74419400  0.68947721  0.41872794  1  0  0.332038  0  0.852559  0  0  0.31672  0  0.906038  0  0  0.324046  0  0.900309  0  0  0.3332  0.3111  0  0.910896  0
C  C32  1  0.75405953  0.78210314  0.00362932  1  0  0.155226  0  3.69708  0  0  0.119676  0  3.963403  0  0  0.127723  0  3.979405  0  0  0.055838  0.113859  0  3.953099  0
C  C33  1  0.24595441  0.21789842  0.99636296  1  0  0.155254  0  3.697112  0  0  0.119639  0  3.963481  0  0  0.127684  0  3.979498  0  0  0.055925  0.113819  0  3.953177  0
C  C34  1  0.74673252  0.92765480  0.00607144  1  0  -0.109487  0  3.714211  0  0  -0.124797  0  3.976232  0  0  -0.131434  0  3.996407  0  0  -0.078115  -0.120694  0  3.963087  0
C  C35  1  0.25328179  0.07234320  0.99392398  1  0  -0.109621  0  3.714417  0  0  -0.12491  0  3.976416  0  0  -0.131586  0  3.996587  0  0  -0.078142  -0.120808  0  3.963271  0
C  C36  1  0.66773286  0.05650119  0.92674560  1  0  -0.011818  0  3.622316  0  0  -0.039282  0  3.871886  0  0  -0.035824  0  3.887729  0  0  -0.052814  -0.04112  0  3.86076  0
C  C37  1  0.33228048  0.94349916  0.07324867  1  0  -0.011834  0  3.622487  0  0  -0.03924  0  3.872004  0  0  -0.035787  0  3.887862  0  0  -0.052757  -0.04107  0  3.86087  0
C  C38  1  0.59663981  0.03720330  0.84552165  1  0  -0.024303  0  3.773257  0  0  -0.011263  0  4.004625  0  0  -0.014619  0  4.029106  0  0  0.005431  -0.008346  0  3.987109  0
C  C39  1  0.40337070  0.96279108  0.15447511  1  0  -0.024219  0  3.773203  0  0  -0.01118  0  4.004628  0  0  -0.014537  0  4.029109  0  0  0.005386  -0.008269  0  3.98711  0
C  C40  1  0.50380558  0.16244205  0.76343161  1  0  0.090588  0  3.822671  0  0  0.082384  0  4.078847  0  0  0.083453  0  4.103607  0  0  0.091418  0.081486  0  4.061315  0
C  C41  1  0.49620334  0.83755344  0.23656681  1  0  0.090651  0  3.82249  0  0  0.08238  0  4.078735  0  0  0.08345  0  4.103492  0  0  0.091497  0.081485  0  4.061198  0
C  C42  1  0.36759977  0.38721129  0.66740425  1  0  0.248097  0  3.643626  0  0  0.189002  0  3.920675  0  0  0.202334  0  3.932478  0  0  0.159576  0.18022  0  3.912616  0
C  C43  1  0.63240747  0.61278295  0.33259716  1  0  0.24827  0  3.643523  0  0  0.189164  0  3.920541  0  0  0.202493  0  3.932342  0  0  0.15967  0.18038  0  3.912484  0
C  C44  1  0.42839784  0.13626517  0.68983407  1  0  0.095226  0  3.793956  0  0  0.07638  0  4.051908  0  0  0.078349  0  4.076339  0  0  0.090765  0.074823  0  4.035449  0
C  C45  1  0.57160832  0.86372672  0.31016635  1  0  0.095357  0  3.793774  0  0  0.076548  0  4.051728  0  0  0.078523  0  4.076153  0  0  0.090823  0.074991  0  4.035268  0
C  C46  1  0.44637259  0.98493717  0.68589226  1  0  -0.035539  0  3.803275  0  0  -0.022125  0  4.040251  0  0  -0.025446  0  4.063998  0  0  8.8e-05  -0.020435  0  4.024021  0
C  C47  1  0.55363099  0.01505584  0.31410751  1  0  -0.035719  0  3.803253  0  0  -0.022285  0  4.040186  0  0  -0.025643  0  4.06399  0  0  -9e-06  -0.020588  0  4.023959  0
C  C48  1  0.38181455  0.95089124  0.60861311  1  0  -0.035927  0  3.712724  0  0  -0.064381  0  3.971023  0  0  -0.061799  0  3.98914  0  0  -0.067621  -0.065493  0  3.957884  0
C  C49  1  0.61818220  0.04910510  0.39138950  1  0  -0.035816  0  3.712446  0  0  -0.064231  0  3.970776  0  0  -0.061644  0  3.988896  0  0  -0.067578  -0.065344  0  3.957637  0
C  C50  1  0.41351421  0.79760439  0.61168338  1  0  -0.118561  0  3.74129  0  0  -0.134419  0  4.00073  0  0  -0.140912  0  4.021943  0  0  -0.085058  -0.129831  0  3.985838  0
C  C51  1  0.58647298  0.20239399  0.38832525  1  0  -0.118555  0  3.741262  0  0  -0.134448  0  4.000664  0  0  -0.140946  0  4.021878  0  0  -0.085065  -0.129861  0  3.985773  0
C  C52  1  0.50649010  0.67987140  0.69320895  1  0  0.159656  0  3.687746  0  0  0.128868  0  3.945789  0  0  0.137406  0  3.960436  0  0  0.061907  0.122354  0  3.937416  0
C  C53  1  0.49350446  0.32012484  0.30679733  1  0  0.159537  0  3.687935  0  0  0.128855  0  3.945923  0  0  0.137394  0  3.960566  0  0  0.061847  0.122343  0  3.937548  0
C  C54  1  0.54045551  0.85825863  0.76602328  1  0  0.154058  0  3.735756  0  0  0.148137  0  3.978513  0  0  0.15311  0  3.999596  0  0  0.129162  0.144561  0  3.963208  0
C  C55  1  0.45954708  0.14173671  0.23397616  1  0  0.154075  0  3.735635  0  0  0.148157  0  3.97842  0  0  0.153145  0  3.999477  0  0  0.129163  0.144562  0  3.963141  0
C  C56  1  0.61146632  0.88492384  0.84784823  1  0  0.130047  0  3.767258  0  0  0.123527  0  4.012031  0  0  0.12717  0  4.034895  0  0  0.121328  0.121424  0  3.995984  0
C  C57  1  0.38853639  0.11507621  0.15215022  1  0  0.129999  0  3.767322  0  0  0.123439  0  4.012134  0  0  0.127083  0  4.034991  0  0  0.121374  0.121346  0  3.996086  0
C  C58  1  0.87435580  0.27131855  0.11707008  1  0  0.639253  0  3.928583  0  0  0.590428  0  4.223925  0  0  0.624039  0  4.21835  0  0  0.1998  0.567987  0  4.225932  0
C  C59  1  0.12563707  0.72868946  0.88292993  1  0  0.639084  0  3.928871  0  0  0.590305  0  4.22416  0  0  0.62391  0  4.218586  0  0  0.199724  0.567858  0  4.226176  0
C  C60  1  0.95962945  0.15311640  0.21402820  1  0  -0.070357  0  3.754019  0  0  -0.042574  0  3.985221  0  0  -0.052371  0  4.009738  0  0  -0.01674  -0.035909  0  3.968575  0
C  C61  1  0.04036812  0.84688822  0.78597012  1  0  -0.070279  0  3.754028  0  0  -0.042507  0  3.985171  0  0  -0.052294  0  4.009664  0  0  -0.016781  -0.035831  0  3.968525  0
C  C62  1  0.00963862  0.19873813  0.29280612  1  0  -0.051219  0  3.705051  0  0  -0.081441  0  3.955311  0  0  -0.078281  0  3.972872  0  0  -0.078872  -0.0846  0  3.944863  0
C  C63  1  0.99035246  0.80126161  0.70719504  1  0  -0.051141  0  3.704828  0  0  -0.081341  0  3.955064  0  0  -0.078152  0  3.972644  0  0  -0.078765  -0.084507  0  3.944615  0
C  C64  1  0.09461908  0.08864465  0.38002258  1  0  -0.067385  0  3.766269  0  0  -0.078797  0  4.024968  0  0  -0.083519  0  4.046338  0  0  -0.089571  -0.075443  0  4.010222  0
C  C65  1  0.90537322  0.91136216  0.61997858  1  0  -0.067408  0  3.766287  0  0  -0.078876  0  4.024985  0  0  -0.083599  0  4.046349  0  0  -0.089583  -0.075519  0  4.010236  0
C  C66  1  0.12829081  0.93171359  0.39115217  1  0  -0.055938  0  3.769158  0  0  -0.086553  0  4.02167  0  0  -0.084209  0  4.042175  0  0  -0.082201  -0.087374  0  4.006959  0
C  C67  1  0.87170713  0.06828748  0.60884929  1  0  -0.055903  0  3.769214  0  0  -0.086513  0  4.021745  0  0  -0.084168  0  4.042253  0  0  -0.0822  -0.087338  0  4.007025  0
C  C68  1  0.07556786  0.88628353  0.31472113  1  0  -0.128807  0  3.738848  0  0  -0.099319  0  3.985289  0  0  -0.108124  0  4.007692  0  0  -0.018841  -0.093956  0  3.970066  0
C  C69  1  0.92443440  0.11371770  0.68527550  1  0  -0.12884  0  3.73878  0  0  -0.099378  0  3.985239  0  0  -0.108182  0  4.007643  0  0  -0.018902  -0.094017  0  3.970024  0
C  C70  1  0.99263117  0.99567474  0.22548239  1  0  -0.048064  0  3.695557  0  0  -0.086443  0  3.944469  0  0  -0.082846  0  3.962678  0  0  -0.069988  -0.088432  0  3.931968  0
C  C71  1  0.00736949  0.00432529  0.77451392  1  0  -0.048142  0  3.695691  0  0  -0.086488  0  3.944561  0  0  -0.082895  0  3.962774  0  0  -0.069986  -0.088482  0  3.932063  0
S  S72  1  0.11831128  0.68496565  0.33113636  1  0  1.332003  0  5.63164  0  0  1.238443  0  6.147878  0  0  1.287288  0  6.122612  0  0  0.519964  1.204757  0  6.16436  0
S  S73  1  0.88168842  0.31503903  0.66886079  1  0  1.332138  0  5.631196  0  0  1.238576  0  6.147439  0  0  1.287414  0  6.122174  0  0  0.519999  1.204889  0  6.163923  0
N  N74  1  0.68956309  0.75994027  0.92686437  1  0  -0.421319  0  3.231598  0  0  -0.373147  0  3.502936  0  0  -0.38935  0  3.521015  0  0  -0.371546  -0.361972  0  3.491115  0
N  N75  1  0.31044071  0.24006213  0.07313508  1  0  -0.42132  0  3.231576  0  0  -0.373123  0  3.502945  0  0  -0.389323  0  3.521024  0  0  -0.371606  -0.361954  0  3.491137  0
N  N76  1  0.46450399  0.31994175  0.74775393  1  0  -0.373887  0  3.048048  0  0  -0.327167  0  3.315733  0  0  -0.341448  0  3.329707  0  0  -0.312965  -0.316885  0  3.306324  0
N  N77  1  0.53550488  0.68005371  0.25224698  1  0  -0.37407  0  3.047992  0  0  -0.327289  0  3.315656  0  0  -0.341569  0  3.329626  0  0  -0.313025  -0.31701  0  3.306256  0
N  N78  1  0.34380337  0.28143614  0.62868270  1  0  -0.324249  0  3.406552  0  0  -0.262924  0  3.646525  0  0  -0.279529  0  3.661189  0  0  -0.3737  -0.25126  0  3.636519  0
N  N79  1  0.65619753  0.71855795  0.37131973  1  0  -0.324269  0  3.40663  0  0  -0.262988  0  3.646641  0  0  -0.279586  0  3.661289  0  0  -0.373731  -0.251324  0  3.636634  0
N  N80  1  0.56682014  0.70919686  0.76872351  1  0  -0.417481  0  3.228387  0  0  -0.368667  0  3.490831  0  0  -0.384108  0  3.506988  0  0  -0.367035  -0.357117  0  3.479865  0
N  N81  1  0.43317762  0.29079948  0.23128060  1  0  -0.417438  0  3.228433  0  0  -0.368637  0  3.490837  0  0  -0.384072  0  3.506983  0  0  -0.367017  -0.357079  0  3.479877  0
O  O82  1  0.81929152  0.23026944  0.05136116  1  0  -0.667795  0  1.929191  0  0  -0.622125  0  2.164108  0  0  -0.64708  0  2.155203  0  0  -0.368039  -0.60405  0  2.169506  0
O  O83  1  0.18069807  0.76973610  0.94864234  1  0  -0.66778  0  1.929186  0  0  -0.622111  0  2.16406  0  0  -0.647071  0  2.15518  0  0  -0.368006  -0.604033  0  2.16946  0
O  O84  1  0.85797929  0.41310353  0.10133097  1  0  -0.695409  0  2.004422  0  0  -0.638058  0  2.237615  0  0  -0.664911  0  2.228857  0  0  -0.348778  -0.618718  0  2.243034  0
O  O85  1  0.14201135  0.58691043  0.89865827  1  0  -0.69526  0  2.004614  0  0  -0.637955  0  2.237802  0  0  -0.664802  0  2.229055  0  0  -0.348704  -0.618612  0  2.243217  0
O  O86  1  0.96750151  0.67646431  0.33343324  1  0  -0.696143  0  1.942072  0  0  -0.646093  0  2.180676  0  0  -0.66611  0  2.164542  0  0  -0.34941  -0.631782  0  2.191776  0
O  O87  1  0.03249320  0.32354966  0.66656196  1  0  -0.696237  0  1.941982  0  0  -0.646182  0  2.180578  0  0  -0.666194  0  2.164446  0  0  -0.349461  -0.631871  0  2.191681  0
O  O88  1  0.19283535  0.60332057  0.43628771  1  0  -0.652574  0  1.890096  0  0  -0.614993  0  2.132245  0  0  -0.6344  0  2.117926  0  0  -0.349846  -0.601817  0  2.142848  0
O  O89  1  0.80715954  0.39668280  0.56371129  1  0  -0.652561  0  1.889968  0  0  -0.614968  0  2.132113  0  0  -0.634374  0  2.1178  0  0  -0.349808  -0.601792  0  2.142716  0
O  O90  1  0.22197621  0.64174664  0.22517327  1  0  -0.756047  0  2.086289  0  0  -0.699459  0  2.361947  0  0  -0.723964  0  2.347068  0  0  -0.397383  -0.681499  0  2.371656  0
O  O91  1  0.77803050  0.35824874  0.77482964  1  0  -0.756078  0  2.086242  0  0  -0.699506  0  2.361945  0  0  -0.724012  0  2.34706  0  0  -0.39734  -0.681546  0  2.371655  0
O  O92  1  0.95368123  0.47675544  0.84634767  1  0  -0.931146  0  1.90817  0  0  -0.88657  0  2.101362  0  0  -0.907467  0  2.068653  0  0  -0.641848  -0.87107  0  2.124305  0
O  O93  1  0.04631777  0.52324335  0.15365080  1  0  -0.931215  0  1.908036  0  0  -0.88668  0  2.101222  0  0  -0.907566  0  2.068488  0  0  -0.641929  -0.871176  0  2.124158  0
O  O94  1  0.50449868  0.56782871  0.07517971  1  0  -1.157414  0  1.829436  0  0  -1.102999  0  2.086921  0  0  -1.135279  0  2.059077  0  0  -0.816347  -1.078669  0  2.106797  0
O  O95  1  0.49549717  0.43217232  0.92482126  1  0  -1.157383  0  1.829439  0  0  -1.102968  0  2.086914  0  0  -1.135247  0  2.059072  0  0  -0.81635  -1.078637  0  2.106788  0
