# generated using pymatgen
data_Cd2H22C28(N2O3)3
_symmetry_space_group_name_H-M   'P 1'
_cell_length_a   10.31971315
_cell_length_b   10.92809043
_cell_length_c   13.94055458
_cell_angle_alpha   68.34279892
_cell_angle_beta   79.92329523
_cell_angle_gamma   83.32685074
_symmetry_Int_Tables_number   1
_chemical_formula_structural   Cd2H22C28(N2O3)3
_chemical_formula_sum   'Cd4 H44 C56 N12 O18'
_cell_volume   1436.33145776
_cell_formula_units_Z   2
loop_
 _symmetry_equiv_pos_site_id
 _symmetry_equiv_pos_as_xyz
  1  'x, y, z'
loop_
 _atom_site_type_symbol
 _atom_site_label
 _atom_site_symmetry_multiplicity
 _atom_site_fract_x
 _atom_site_fract_y
 _atom_site_fract_z
 _atom_site_occupancy
 _atom_site_hle17_bader_spin_density
 _atom_site_hle17_ddec_charge
 _atom_site_hle17_ddec_spin_density
 _atom_site_hle17_ddec_sum_bond_order
 _atom_site_hle17_magmom
 _atom_site_hse06_10hf_bader_spin_density
 _atom_site_hse06_10hf_ddec_charge
 _atom_site_hse06_10hf_ddec_spin_density
 _atom_site_hse06_10hf_ddec_sum_bond_order
 _atom_site_hse06_10hf_magmom
 _atom_site_hse06_bader_spin_density
 _atom_site_hse06_ddec_charge
 _atom_site_hse06_ddec_spin_density
 _atom_site_hse06_ddec_sum_bond_order
 _atom_site_hse06_magmom
 _atom_site_pbe_bader_spin_density
 _atom_site_pbe_cm5_charge
 _atom_site_pbe_ddec_charge
 _atom_site_pbe_ddec_spin_density
 _atom_site_pbe_ddec_sum_bond_order
 _atom_site_pbe_magmom
Cd  Cd0  1  0.45574737  0.55626633  0.36113842  1  0  1.171934  0  1.756692  0  0  0.987504  0  2.20666  0  0  1.041557  0  2.154201  0  0  0.781802  0.949175  0  2.24288  0
Cd  Cd1  1  0.54425368  0.44373316  0.63886367  1  0  1.171911  0  1.756705  0  0  0.987481  0  2.206666  0  0  1.041534  0  2.154206  0  0  0.78181  0.949151  0  2.242885  0
Cd  Cd2  1  0.55879740  0.49251102  0.13047476  1  0  1.175477  0  1.712039  0  0  0.985889  0  2.158917  0  0  1.04128  0  2.106376  0  0  0.781322  0.946689  0  2.194834  0
Cd  Cd3  1  0.44120463  0.50748848  0.86952576  1  0  1.175496  0  1.712038  0  0  0.985904  0  2.158918  0  0  1.041295  0  2.106375  0  0  0.781322  0.946705  0  2.194836  0
H  H4  1  0.38833586  0.05358071  0.09907034  1  0  0.124355  0  0.952397  0  0  0.131447  0  1.014921  0  0  0.135642  0  1.012189  0  0  0.112192  0.128338  0  1.017103  0
H  H5  1  0.61166328  0.94641779  0.90093156  1  0  0.124331  0  0.952395  0  0  0.131424  0  1.014925  0  0  0.135618  0  1.012195  0  0  0.112173  0.128313  0  1.017109  0
H  H6  1  0.39127955  0.16339522  0.22918124  1  0  0.098967  0  0.947259  0  0  0.109778  0  1.005809  0  0  0.112451  0  1.004584  0  0  0.108736  0.107867  0  1.006711  0
H  H7  1  0.60871959  0.83660328  0.77082066  1  0  0.099007  0  0.947193  0  0  0.109779  0  1.005791  0  0  0.112451  0  1.004568  0  0  0.10873  0.107869  0  1.006692  0
H  H8  1  0.45405380  0.02564678  0.40547636  1  0  0.132495  0  0.959513  0  0  0.135752  0  1.029004  0  0  0.140583  0  1.025114  0  0  0.112461  0.132042  0  1.032296  0
H  H9  1  0.54594725  0.97435271  0.59452501  1  0  0.132476  0  0.959568  0  0  0.135718  0  1.029085  0  0  0.140551  0  1.025191  0  0  0.112425  0.132009  0  1.032376  0
H  H10  1  0.15577974  0.58964056  0.27739868  1  0  0.105272  0  0.954433  0  0  0.117063  0  1.012543  0  0  0.119623  0  1.011381  0  0  0.11568  0.115196  0  1.013441  0
H  H11  1  0.84422328  0.41035894  0.72260386  1  0  0.105254  0  0.954399  0  0  0.117044  0  1.012513  0  0  0.119612  0  1.01134  0  0  0.11568  0.115176  0  1.01341  0
H  H12  1  0.92832649  0.68875458  0.37067017  1  0  0.136451  0  0.981966  0  0  0.144748  0  1.044429  0  0  0.148712  0  1.040921  0  0  0.121409  0.141775  0  1.047161  0
H  H13  1  0.07167467  0.31124294  0.62933103  1  0  0.136416  0  0.981988  0  0  0.144716  0  1.044447  0  0  0.148679  0  1.040941  0  0  0.121388  0.141743  0  1.047178  0
H  H14  1  0.22967415  0.59730585  0.56294129  1  0  0.104138  0  0.948977  0  0  0.110664  0  1.01778  0  0  0.113661  0  1.014136  0  0  0.133159  0.108483  0  1.02042  0
H  H15  1  0.77032446  0.40270152  0.43705957  1  0  0.104233  0  0.948971  0  0  0.110755  0  1.017753  0  0  0.113745  0  1.014124  0  0  0.133195  0.108572  0  1.020395  0
H  H16  1  0.99221640  0.66314147  0.63696765  1  0  0.094645  0  0.903389  0  0  0.112042  0  0.96179  0  0  0.112944  0  0.960983  0  0  0.119313  0.111504  0  0.962159  0
H  H17  1  0.00778066  0.33685899  0.36303396  1  0  0.094638  0  0.903411  0  0  0.112037  0  0.961812  0  0  0.112941  0  0.961008  0  0  0.119333  0.111497  0  0.962183  0
H  H18  1  0.86773424  0.69927268  0.55768033  1  0  0.103849  0  0.894568  0  0  0.123308  0  0.947024  0  0  0.124235  0  0.94651  0  0  0.123713  0.122473  0  0.947553  0
H  H19  1  0.13226466  0.30072976  0.44231976  1  0  0.103822  0  0.894626  0  0  0.123286  0  0.947086  0  0  0.124216  0  0.946573  0  0  0.12369  0.12245  0  0.947615  0
H  H20  1  0.83365028  0.88186168  0.64738577  1  0  0.095825  0  0.962402  0  0  0.107769  0  1.022196  0  0  0.110231  0  1.021591  0  0  0.099866  0.105868  0  1.022849  0
H  H21  1  0.16634775  0.11813879  0.35261500  1  0  0.095791  0  0.962424  0  0  0.107766  0  1.022191  0  0  0.110227  0  1.021585  0  0  0.099859  0.105868  0  1.022835  0
H  H22  1  0.14545477  0.88008837  0.39801155  1  0  0.09166  0  0.973218  0  0  0.100416  0  1.037307  0  0  0.102375  0  1.038264  0  0  0.09784  0.09887  0  1.036891  0
H  H23  1  0.85454326  0.11991210  0.60198922  1  0  0.091693  0  0.973183  0  0  0.10044  0  1.037282  0  0  0.102404  0  1.038225  0  0  0.097862  0.098894  0  1.036866  0
H  H24  1  0.00439872  0.68182191  0.15376453  1  0  0.110633  0  0.952639  0  0  0.121059  0  1.012078  0  0  0.124269  0  1.010911  0  0  0.111735  0.1186  0  1.013349  0
H  H25  1  0.99560723  0.31817763  0.84623187  1  0  0.110602  0  0.952677  0  0  0.121037  0  1.012125  0  0  0.124248  0  1.010955  0  0  0.111721  0.118577  0  1.0134  0
H  H26  1  0.11196434  0.71753930  0.96968210  1  0  0.094476  0  0.962692  0  0  0.102317  0  1.02596  0  0  0.10479  0  1.025303  0  0  0.105819  0.100318  0  1.026924  0
H  H27  1  0.88803766  0.28246023  0.03031411  1  0  0.094472  0  0.962697  0  0  0.102313  0  1.025963  0  0  0.104792  0  1.025303  0  0  0.105811  0.100314  0  1.026926  0
H  H28  1  0.97973315  0.68404086  0.84628962  1  0  0.111656  0  0.947481  0  0  0.117685  0  1.013496  0  0  0.121595  0  1.011534  0  0  0.108932  0.114916  0  1.014912  0
H  H29  1  0.02026672  0.31596161  0.15370675  1  0  0.111672  0  0.947518  0  0  0.117701  0  1.013531  0  0  0.121611  0  1.011562  0  0  0.108925  0.11493  0  1.014951  0
H  H30  1  0.73545288  0.27777598  0.31328610  1  0  0.107324  0  0.958051  0  0  0.116894  0  1.017232  0  0  0.119372  0  1.016263  0  0  0.114793  0.115031  0  1.018141  0
H  H31  1  0.26454921  0.72222254  0.68671397  1  0  0.107335  0  0.958007  0  0  0.116881  0  1.01721  0  0  0.119368  0  1.016235  0  0  0.114788  0.114992  0  1.018144  0
H  H32  1  0.82091736  0.02185346  0.32275548  1  0  0.116432  0  0.949469  0  0  0.127906  0  1.006508  0  0  0.130522  0  1.005875  0  0  0.123332  0.126013  0  1.007051  0
H  H33  1  0.17908374  0.97814506  0.67724472  1  0  0.116425  0  0.949455  0  0  0.1279  0  1.006491  0  0  0.130517  0  1.005858  0  0  0.123323  0.126008  0  1.007036  0
H  H34  1  0.62718272  0.21304894  0.05739359  1  0  0.113233  0  0.986114  0  0  0.118568  0  1.052978  0  0  0.122838  0  1.048021  0  0  0.131373  0.115388  0  1.0566  0
H  H35  1  0.37281832  0.78695055  0.94260705  1  0  0.113259  0  0.986099  0  0  0.118589  0  1.052969  0  0  0.12286  0  1.048012  0  0  0.131382  0.115409  0  1.05659  0
H  H36  1  0.67535706  0.96435866  0.11356507  1  0  0.09962  0  0.92691  0  0  0.113799  0  0.987557  0  0  0.114429  0  0.987896  0  0  0.117086  0.113387  0  0.987238  0
H  H37  1  0.32463814  0.03563982  0.88643736  1  0  0.099615  0  0.926967  0  0  0.113803  0  0.987584  0  0  0.11443  0  0.987922  0  0  0.1171  0.113392  0  0.987266  0
H  H38  1  0.76619958  0.88197272  0.21931416  1  0  0.104098  0  0.94355  0  0  0.11705  0  1.005464  0  0  0.118955  0  1.003912  0  0  0.113072  0.115784  0  1.006451  0
H  H39  1  0.23379949  0.11802677  0.78068532  1  0  0.104084  0  0.943468  0  0  0.117031  0  1.005383  0  0  0.118935  0  1.003831  0  0  0.113083  0.115767  0  1.00637  0
H  H40  1  0.01485424  0.92909231  0.18923661  1  0  0.086309  0  0.953198  0  0  0.097968  0  1.014528  0  0  0.10066  0  1.013783  0  0  0.098677  0.096148  0  1.014903  0
H  H41  1  0.98514188  0.07090718  0.81076182  1  0  0.086223  0  0.953256  0  0  0.097895  0  1.014561  0  0  0.100586  0  1.013815  0  0  0.098658  0.096055  0  1.014958  0
H  H42  1  0.78075819  0.04283154  0.93995745  1  0  0.095448  0  0.986279  0  0  0.10505  0  1.050081  0  0  0.107315  0  1.049809  0  0  0.098577  0.103529  0  1.050172  0
H  H43  1  0.21923595  0.95716795  0.06004052  1  0  0.095425  0  0.986176  0  0  0.105014  0  1.049998  0  0  0.107274  0  1.049729  0  0  0.098561  0.103493  0  1.050089  0
H  H44  1  0.33360706  0.38543771  0.26713733  1  0  0.417334  0  0.89306  0  0  0.383491  0  0.961375  0  0  0.395798  0  0.943618  0  0  0.282961  0.374838  0  0.973816  0
H  H45  1  0.66639398  0.61456179  0.73286260  1  0  0.417358  0  0.89302  0  0  0.383522  0  0.961323  0  0  0.395829  0  0.943565  0  0  0.282985  0.37487  0  0.973762  0
H  H46  1  0.43233159  0.30728292  0.35590552  1  0  0.419647  0  0.890131  0  0  0.385618  0  0.957923  0  0  0.398154  0  0.940026  0  0  0.283012  0.376825  0  0.970425  0
H  H47  1  0.56766853  0.69271558  0.64409553  1  0  0.419716  0  0.890038  0  0  0.38565  0  0.9579  0  0  0.398188  0  0.940001  0  0  0.283025  0.376857  0  0.970403  0
C  C48  1  0.43421117  0.78764814  0.13392218  1  0  0.614929  0  3.943898  0  0  0.561722  0  4.245938  0  0  0.595812  0  4.237323  0  0  0.202234  0.53871  0  4.250615  0
C  C49  1  0.56578797  0.21235035  0.86607973  1  0  0.614839  0  3.943975  0  0  0.56169  0  4.245938  0  0  0.595772  0  4.237324  0  0  0.202174  0.53868  0  4.250615  0
C  C50  1  0.43113256  0.86031825  0.20891212  1  0  0.099191  0  3.735672  0  0  0.104309  0  3.978724  0  0  0.104847  0  3.997775  0  0  0.111052  0.103734  0  3.965587  0
C  C51  1  0.56886744  0.13968223  0.79108838  1  0  0.099218  0  3.735671  0  0  0.104319  0  3.978724  0  0  0.104881  0  3.997743  0  0  0.111064  0.103734  0  3.9656  0
C  C52  1  0.40582418  0.99694034  0.17863727  1  0  -0.100569  0  3.674048  0  0  -0.126209  0  3.925541  0  0  -0.128665  0  3.942681  0  0  -0.070511  -0.124352  0  3.913823  0
C  C53  1  0.59417496  0.00305816  0.82136391  1  0  -0.100554  0  3.674013  0  0  -0.126196  0  3.925505  0  0  -0.12866  0  3.942639  0  0  -0.070501  -0.124335  0  3.913791  0
C  C54  1  0.41106032  0.05723060  0.25031118  1  0  -0.006787  0  3.692574  0  0  -0.02273  0  3.947939  0  0  -0.021398  0  3.965348  0  0  -0.065754  -0.023595  0  3.936012  0
C  C55  1  0.58893974  0.94276889  0.74969032  1  0  -0.006829  0  3.692665  0  0  -0.022739  0  3.948015  0  0  -0.021409  0  3.965429  0  0  -0.065751  -0.023605  0  3.936087  0
C  C56  1  0.44529844  0.98148094  0.34857719  1  0  -0.098753  0  3.653792  0  0  -0.125596  0  3.907982  0  0  -0.127534  0  3.924823  0  0  -0.069224  -0.124114  0  3.896841  0
C  C57  1  0.55470168  0.01851756  0.65142458  1  0  -0.098745  0  3.653947  0  0  -0.125568  0  3.908089  0  0  -0.127509  0  3.924938  0  0  -0.069183  -0.124086  0  3.896947  0
C  C58  1  0.46866016  0.84552171  0.37275950  1  0  0.102481  0  3.73626  0  0  0.106669  0  3.980702  0  0  0.106956  0  3.999393  0  0  0.112735  0.106084  0  3.968369  0
C  C59  1  0.53134089  0.15447778  0.62724187  1  0  0.102564  0  3.736243  0  0  0.106757  0  3.980674  0  0  0.107042  0  3.999368  0  0  0.11279  0.106172  0  3.968342  0
C  C60  1  0.50441627  0.75459928  0.47760634  1  0  0.631916  0  3.900104  0  0  0.576906  0  4.197781  0  0  0.611534  0  4.189266  0  0  0.215222  0.553405  0  4.202717  0
C  C61  1  0.49558478  0.24540021  0.52239503  1  0  0.631906  0  3.900121  0  0  0.576919  0  4.197781  0  0  0.611547  0  4.189265  0  0  0.215245  0.553417  0  4.202719  0
C  C62  1  0.13730908  0.60834141  0.34995638  1  0  -0.00771  0  3.764492  0  0  -0.043109  0  4.039136  0  0  -0.041805  0  4.059849  0  0  -0.010735  -0.043805  0  4.024786  0
C  C63  1  0.86269290  0.39165907  0.65004601  1  0  -0.007673  0  3.764429  0  0  -0.043074  0  4.039083  0  0  -0.04178  0  4.059795  0  0  -0.010703  -0.043768  0  4.024732  0
C  C64  1  0.02521892  0.65929434  0.39464281  1  0  -0.076738  0  3.671006  0  0  -0.120452  0  3.936443  0  0  -0.118785  0  3.954223  0  0  -0.00466  -0.121411  0  3.924382  0
C  C65  1  0.97478317  0.34070417  0.60535870  1  0  -0.07673  0  3.671119  0  0  -0.120442  0  3.936556  0  0  -0.118775  0  3.95434  0  0  -0.004639  -0.121402  0  3.924496  0
C  C66  1  0.18052097  0.61006043  0.49681917  1  0  0.163442  0  3.655984  0  0  0.101598  0  3.928611  0  0  0.115463  0  3.941032  0  0  0.13884  0.092252  0  3.920429  0
C  C67  1  0.81947997  0.38994102  0.50318380  1  0  0.163099  0  3.656429  0  0  0.101295  0  3.92903  0  0  0.115157  0  3.941446  0  0  0.13867  0.091947  0  3.920849  0
C  C68  1  0.97054732  0.71719190  0.55709696  1  0  -0.035875  0  3.643834  0  0  -0.104694  0  3.899283  0  0  -0.099825  0  3.908935  0  0  -0.039291  -0.107843  0  3.892483  0
C  C69  1  0.02945170  0.28280857  0.44290440  1  0  -0.035759  0  3.643768  0  0  -0.104601  0  3.899239  0  0  -0.099745  0  3.908912  0  0  -0.039224  -0.10775  0  3.892425  0
C  C70  1  0.98745092  0.86359853  0.52607953  1  0  0.061878  0  3.753261  0  0  0.080238  0  3.994289  0  0  0.079284  0  4.018947  0  0  -0.015752  0.080695  0  3.977828  0
C  C71  1  0.01254718  0.13640095  0.47392222  1  0  0.06188  0  3.753268  0  0  0.080254  0  3.994291  0  0  0.079302  0  4.018954  0  0  -0.015743  0.080736  0  3.977795  0
C  C72  1  0.90682133  0.93345359  0.58249065  1  0  -0.117046  0  3.761632  0  0  -0.132816  0  4.002481  0  0  -0.135678  0  4.024873  0  0  -0.095024  -0.130706  0  3.987485  0
C  C73  1  0.09317776  0.06654589  0.41751170  1  0  -0.117038  0  3.761626  0  0  -0.132842  0  4.002473  0  0  -0.135703  0  4.024864  0  0  -0.095041  -0.130738  0  3.987469  0
C  C74  1  0.08092150  0.93186482  0.44321731  1  0  -0.128005  0  3.77989  0  0  -0.147827  0  4.027624  0  0  -0.150734  0  4.050672  0  0  -0.099088  -0.145986  0  4.012338  0
C  C75  1  0.91907752  0.06813565  0.55678404  1  0  -0.12804  0  3.780009  0  0  -0.147858  0  4.027721  0  0  -0.150763  0  4.050772  0  0  -0.099117  -0.146024  0  4.012427  0
C  C76  1  0.75445468  0.60048493  0.24000427  1  0  0.610529  0  3.945786  0  0  0.558096  0  4.249504  0  0  0.591433  0  4.241534  0  0  0.200832  0.5356  0  4.254113  0
C  C77  1  0.24554821  0.39951655  0.75999413  1  0  0.610502  0  3.945692  0  0  0.558039  0  4.249426  0  0  0.591373  0  4.241458  0  0  0.200782  0.535542  0  4.254038  0
C  C78  1  0.82479695  0.62245502  0.13002935  1  0  0.116328  0  3.717212  0  0  0.121023  0  3.956393  0  0  0.122324  0  3.975058  0  0  0.11623  0.119657  0  3.94467  0
C  C79  1  0.17520588  0.37754745  0.86996806  1  0  0.116315  0  3.717248  0  0  0.121128  0  3.956308  0  0  0.122434  0  3.974964  0  0  0.116285  0.119763  0  3.944593  0
C  C80  1  0.95312449  0.66519753  0.09823902  1  0  -0.098557  0  3.688918  0  0  -0.122831  0  3.936767  0  0  -0.125997  0  3.955825  0  0  -0.069298  -0.12103  0  3.924999  0
C  C81  1  0.04687833  0.33480495  0.90175696  1  0  -0.098539  0  3.688932  0  0  -0.122897  0  3.936817  0  0  -0.126064  0  3.955875  0  0  -0.069351  -0.121096  0  3.925049  0
C  C82  1  0.01141192  0.68623672  0.99589309  1  0  0.00287  0  3.700483  0  0  -0.014885  0  3.957594  0  0  -0.013281  0  3.976236  0  0  -0.064356  -0.015839  0  3.945544  0
C  C83  1  0.98858991  0.31376576  0.00410229  1  0  0.003019  0  3.700404  0  0  -0.014716  0  3.957516  0  0  -0.013118  0  3.976162  0  0  -0.064207  -0.015669  0  3.945463  0
C  C84  1  0.93921500  0.66727593  0.92729630  1  0  -0.101821  0  3.690244  0  0  -0.127171  0  3.942627  0  0  -0.13022  0  3.96187  0  0  -0.073009  -0.125167  0  3.929959  0
C  C85  1  0.06078586  0.33272653  0.07270209  1  0  -0.101995  0  3.690247  0  0  -0.127353  0  3.942655  0  0  -0.130397  0  3.961895  0  0  -0.073134  -0.125348  0  3.929986  0
C  C86  1  0.81178225  0.62370659  0.96471209  1  0  0.100253  0  3.74664  0  0  0.10448  0  3.987534  0  0  0.104331  0  4.007874  0  0  0.110917  0.104262  0  3.974102  0
C  C87  1  0.18821860  0.37629588  0.03528486  1  0  0.100312  0  3.746536  0  0  0.104516  0  3.987428  0  0  0.104367  0  4.007768  0  0  0.110953  0.104299  0  3.973997  0
C  C88  1  0.72899405  0.59814853  0.89505264  1  0  0.62445  0  3.911551  0  0  0.57212  0  4.207919  0  0  0.60614  0  4.200557  0  0  0.211756  0.549086  0  4.212254  0
C  C89  1  0.27100594  0.40185196  0.10494715  1  0  0.62437  0  3.911601  0  0  0.572093  0  4.207897  0  0  0.606113  0  4.200537  0  0  0.211727  0.54906  0  4.21223  0
C  C90  1  0.72824184  0.22721158  0.26080530  1  0  0.004657  0  3.762523  0  0  -0.028335  0  4.029861  0  0  -0.026341  0  4.050612  0  0  -0.007796  -0.029736  0  4.015822  0
C  C91  1  0.27175931  0.77278595  0.73919446  1  0  0.004676  0  3.762365  0  0  -0.028292  0  4.029694  0  0  -0.026308  0  4.050437  0  0  -0.007802  -0.029668  0  4.015671  0
C  C92  1  0.77017733  0.10088145  0.26642866  1  0  -0.071232  0  3.685336  0  0  -0.109557  0  3.941579  0  0  -0.108553  0  3.961004  0  0  0.000448  -0.1101  0  3.928288  0
C  C93  1  0.22982273  0.89911805  0.73357212  1  0  -0.071235  0  3.685317  0  0  -0.109562  0  3.941555  0  0  -0.108559  0  3.960985  0  0  0.000466  -0.110105  0  3.928258  0
C  C94  1  0.66958422  0.20063996  0.12709785  1  0  0.139975  0  3.664889  0  0  0.082508  0  3.933208  0  0  0.094909  0  3.946385  0  0  0.131677  0.074564  0  3.924013  0
C  C95  1  0.33041584  0.79935953  0.87290293  1  0  0.139976  0  3.664902  0  0  0.082512  0  3.93323  0  0  0.094914  0  3.946404  0  0  0.131665  0.074567  0  3.924035  0
C  C96  1  0.75958434  0.97075905  0.14945240  1  0  -0.058042  0  3.636148  0  0  -0.123119  0  3.882367  0  0  -0.119213  0  3.892995  0  0  -0.050889  -0.125786  0  3.87489  0
C  C97  1  0.24041283  0.02923945  0.85054833  1  0  -0.058008  0  3.636069  0  0  -0.123073  0  3.88224  0  0  -0.11916  0  3.892855  0  0  -0.050923  -0.12575  0  3.874778  0
C  C98  1  0.88437392  0.98392770  0.07252284  1  0  0.069618  0  3.759871  0  0  0.086697  0  4.002497  0  0  0.085726  0  4.027351  0  0  -0.013612  0.087657  0  3.985804  0
C  C99  1  0.11562213  0.01607278  0.92747460  1  0  0.069603  0  3.759857  0  0  0.08672  0  4.002404  0  0  0.085748  0  4.027255  0  0  -0.013631  0.087684  0  3.985704  0
C  C100  1  0.00802592  0.96085886  0.10615454  1  0  -0.110804  0  3.764277  0  0  -0.129839  0  4.012701  0  0  -0.13237  0  4.034346  0  0  -0.091327  -0.127831  0  3.997708  0
C  C101  1  0.99196920  0.03914064  0.89384259  1  0  -0.110695  0  3.764282  0  0  -0.129749  0  4.012706  0  0  -0.132279  0  4.034353  0  0  -0.091291  -0.127723  0  3.997712  0
C  C102  1  0.87730071  0.02325365  0.96588471  1  0  -0.120536  0  3.750959  0  0  -0.137301  0  3.992727  0  0  -0.140534  0  4.015862  0  0  -0.094566  -0.135152  0  3.977061  0
C  C103  1  0.12269448  0.97674485  0.03411341  1  0  -0.120468  0  3.750917  0  0  -0.137246  0  3.992673  0  0  -0.140472  0  4.015803  0  0  -0.094537  -0.135099  0  3.977015  0
N  N104  1  0.45919181  0.78773013  0.30466515  1  0  -0.351223  0  3.303708  0  0  -0.293738  0  3.554523  0  0  -0.309348  0  3.575283  0  0  -0.320005  -0.282798  0  3.540445  0
N  N105  1  0.54080930  0.21226838  0.69533650  1  0  -0.35124  0  3.303752  0  0  -0.293768  0  3.554592  0  0  -0.309385  0  3.575346  0  0  -0.320033  -0.282825  0  3.540518  0
N  N106  1  0.75753055  0.60090145  0.06416933  1  0  -0.35194  0  3.276535  0  0  -0.290333  0  3.525103  0  0  -0.306464  0  3.544874  0  0  -0.317243  -0.279278  0  3.512051  0
N  N107  1  0.24247129  0.39910101  0.93582892  1  0  -0.351975  0  3.276591  0  0  -0.290389  0  3.525118  0  0  -0.306521  0  3.544888  0  0  -0.317279  -0.279334  0  3.512067  0
N  N108  1  0.23303253  0.57800255  0.41447977  1  0  -0.394326  0  3.2583  0  0  -0.324261  0  3.548016  0  0  -0.344818  0  3.565011  0  0  -0.364403  -0.310224  0  3.536233  0
N  N109  1  0.76697129  0.42199991  0.58552109  1  0  -0.394143  0  3.258487  0  0  -0.324079  0  3.548166  0  0  -0.344634  0  3.565163  0  0  -0.364307  -0.310042  0  3.536382  0
N  N110  1  0.05420909  0.65904518  0.48788404  1  0  -0.067412  0  3.608421  0  0  0.026739  0  3.828351  0  0  0.011698  0  3.855392  0  0  -0.246857  0.037053  0  3.809867  0
N  N111  1  0.94579092  0.34095529  0.51211790  1  0  -0.067366  0  3.60869  0  0  0.026769  0  3.828636  0  0  0.011734  0  3.855678  0  0  -0.246877  0.037081  0  3.810153  0
N  N112  1  0.66608654  0.28802909  0.17366369  1  0  -0.401891  0  3.279448  0  0  -0.328523  0  3.567976  0  0  -0.350582  0  3.586828  0  0  -0.363597  -0.313325  0  3.554564  0
N  N113  1  0.33391450  0.71197041  0.82633624  1  0  -0.401947  0  3.27943  0  0  -0.328583  0  3.567953  0  0  -0.350641  0  3.586803  0  0  -0.363609  -0.313382  0  3.554532  0
N  N114  1  0.73195533  0.08582885  0.18149127  1  0  -0.057369  0  3.586904  0  0  0.035579  0  3.804832  0  0  0.020401  0  3.832837  0  0  -0.243736  0.045644  0  3.785721  0
N  N115  1  0.26804473  0.91417065  0.81850879  1  0  -0.057373  0  3.586905  0  0  0.035562  0  3.804826  0  0  0.020383  0  3.832827  0  0  -0.243722  0.045629  0  3.785718  0
O  O116  1  0.49526141  0.63122370  0.49841722  1  0  -0.659291  0  2.115562  0  0  -0.582656  0  2.385649  0  0  -0.613587  0  2.371861  0  0  -0.325782  -0.560751  0  2.394535  0
O  O117  1  0.50473970  0.36877481  0.50158370  1  0  -0.659274  0  2.115543  0  0  -0.582664  0  2.385634  0  0  -0.613592  0  2.371846  0  0  -0.325797  -0.560758  0  2.394519  0
O  O118  1  0.53852421  0.80577491  0.53620723  1  0  -0.587201  0  1.957173  0  0  -0.535505  0  2.171461  0  0  -0.559528  0  2.161443  0  0  -0.303899  -0.51864  0  2.178064  0
O  O119  1  0.46147788  0.19422360  0.46379356  1  0  -0.587181  0  1.957165  0  0  -0.535519  0  2.171439  0  0  -0.559543  0  2.16142  0  0  -0.303914  -0.518654  0  2.178044  0
O  O120  1  0.43407786  0.66100693  0.17520779  1  0  -0.680246  0  2.115373  0  0  -0.601941  0  2.37965  0  0  -0.633479  0  2.366753  0  0  -0.341872  -0.579739  0  2.387538  0
O  O121  1  0.56592122  0.33899255  0.82479312  1  0  -0.680229  0  2.115437  0  0  -0.60194  0  2.379681  0  0  -0.63348  0  2.366789  0  0  -0.341856  -0.579734  0  2.387558  0
O  O122  1  0.43766030  0.85501818  0.03924918  1  0  -0.581442  0  1.972227  0  0  -0.54223  0  2.206937  0  0  -0.564423  0  2.197799  0  0  -0.307585  -0.526626  0  2.21255  0
O  O123  1  0.56233779  0.14498130  0.96075258  1  0  -0.581408  0  1.972213  0  0  -0.542234  0  2.206913  0  0  -0.564426  0  2.197777  0  0  -0.307576  -0.526631  0  2.212524  0
O  O124  1  0.66373749  0.51668976  0.27327379  1  0  -0.676577  0  2.081921  0  0  -0.602196  0  2.345009  0  0  -0.63285  0  2.332919  0  0  -0.336574  -0.58105  0  2.352669  0
O  O125  1  0.33626441  0.48331172  0.72672402  1  0  -0.676553  0  2.08188  0  0  -0.602155  0  2.34494  0  0  -0.632808  0  2.332851  0  0  -0.336555  -0.581008  0  2.352595  0
O  O126  1  0.78861395  0.66397887  0.28878835  1  0  -0.585239  0  1.938131  0  0  -0.548659  0  2.166996  0  0  -0.570394  0  2.158623  0  0  -0.315011  -0.533373  0  2.172082  0
O  O127  1  0.21138900  0.33602163  0.71121032  1  0  -0.585232  0  1.938119  0  0  -0.548647  0  2.166988  0  0  -0.570382  0  2.158618  0  0  -0.314995  -0.533359  0  2.172074  0
O  O128  1  0.61547480  0.55355576  0.93837226  1  0  -0.653149  0  2.076687  0  0  -0.576081  0  2.341128  0  0  -0.606976  0  2.327437  0  0  -0.323654  -0.554484  0  2.349965  0
O  O129  1  0.38452624  0.44644374  0.06162767  1  0  -0.65312  0  2.076637  0  0  -0.576082  0  2.341063  0  0  -0.606977  0  2.327374  0  0  -0.323648  -0.554484  0  2.3499  0
O  O130  1  0.77739490  0.62334839  0.80059530  1  0  -0.60208  0  1.945537  0  0  -0.55509  0  2.167688  0  0  -0.578611  0  2.157848  0  0  -0.31172  -0.538715  0  2.173979  0
O  O131  1  0.22260619  0.37665013  0.19940275  1  0  -0.602011  0  1.945657  0  0  -0.555032  0  2.167777  0  0  -0.578555  0  2.15794  0  0  -0.311687  -0.538658  0  2.174067  0
O  O132  1  0.41543797  0.39093662  0.29508786  1  0  -0.87202  0  1.971304  0  0  -0.79484  0  2.186824  0  0  -0.820913  0  2.149012  0  0  -0.591982  -0.776065  0  2.212553  0
O  O133  1  0.58456209  0.60906287  0.70491364  1  0  -0.87209  0  1.971245  0  0  -0.794904  0  2.186764  0  0  -0.82098  0  2.148949  0  0  -0.592017  -0.776131  0  2.212494  0
