# generated using pymatgen
data_Cd3H14C24(NO2)6
_symmetry_space_group_name_H-M   'P 1'
_cell_length_a   8.68615879
_cell_length_b   9.25037204
_cell_length_c   10.00615511
_cell_angle_alpha   101.30915425
_cell_angle_beta   105.11273308
_cell_angle_gamma   114.27053695
_symmetry_Int_Tables_number   1
_chemical_formula_structural   Cd3H14C24(NO2)6
_chemical_formula_sum   'Cd3 H14 C24 N6 O12'
_cell_volume   664.24864737
_cell_formula_units_Z   1
loop_
 _symmetry_equiv_pos_site_id
 _symmetry_equiv_pos_as_xyz
  1  'x, y, z'
loop_
 _atom_site_type_symbol
 _atom_site_label
 _atom_site_symmetry_multiplicity
 _atom_site_fract_x
 _atom_site_fract_y
 _atom_site_fract_z
 _atom_site_occupancy
 _atom_site_hle17_bader_spin_density
 _atom_site_hle17_ddec_charge
 _atom_site_hle17_ddec_spin_density
 _atom_site_hle17_ddec_sum_bond_order
 _atom_site_hle17_magmom
 _atom_site_hse06_10hf_bader_spin_density
 _atom_site_hse06_10hf_ddec_charge
 _atom_site_hse06_10hf_ddec_spin_density
 _atom_site_hse06_10hf_ddec_sum_bond_order
 _atom_site_hse06_10hf_magmom
 _atom_site_hse06_bader_spin_density
 _atom_site_hse06_ddec_charge
 _atom_site_hse06_ddec_spin_density
 _atom_site_hse06_ddec_sum_bond_order
 _atom_site_hse06_magmom
 _atom_site_pbe_bader_spin_density
 _atom_site_pbe_cm5_charge
 _atom_site_pbe_ddec_charge
 _atom_site_pbe_ddec_spin_density
 _atom_site_pbe_ddec_sum_bond_order
 _atom_site_pbe_magmom
Cd  Cd0  1  0.22764653  0.01407151  0.13718920  1  0  1.197667  0  1.578438  0  0  1.012724  0  2.018318  0  0  1.073486  0  1.961471  0  0  0.779577  0.966811  0  2.059277  0
Cd  Cd1  1  0.77235415  0.98592958  0.86281090  1  0  1.197661  0  1.57842  0  0  1.012727  0  2.018285  0  0  1.073488  0  1.961438  0  0  0.779581  0.966815  0  2.059245  0
Cd  Cd2  1  0.50000042  0.00000111  0.50000035  1  0  1.181047  0  1.807863  0  0  0.995015  0  2.288254  0  0  1.046871  0  2.233708  0  0  0.805896  0.958315  0  2.324951  0
H  H3  1  0.36815230  0.76972900  0.92100943  1  0  0.123752  0  0.943906  0  0  0.130556  0  1.008227  0  0  0.133329  0  1.005151  0  0  0.147062  0.128566  0  1.010445  0
H  H4  1  0.63184771  0.23027083  0.07899229  1  0  0.12373  0  0.943913  0  0  0.130535  0  1.008238  0  0  0.133309  0  1.00516  0  0  0.147056  0.128544  0  1.010455  0
H  H5  1  0.60494858  0.70139433  0.31381339  1  0  0.116474  0  0.926345  0  0  0.127744  0  0.984871  0  0  0.129193  0  0.983955  0  0  0.14949  0.12656  0  0.985634  0
H  H6  1  0.39505448  0.29860676  0.68618725  1  0  0.116489  0  0.926341  0  0  0.12778  0  0.984841  0  0  0.12922  0  0.983938  0  0  0.149494  0.126596  0  0.985604  0
H  H7  1  0.70416157  0.64117640  0.06867297  1  0  0.111424  0  0.957311  0  0  0.121615  0  1.021837  0  0  0.123953  0  1.020346  0  0  0.114974  0.119768  0  1.023082  0
H  H8  1  0.29583724  0.35882342  0.93132748  1  0  0.111414  0  0.957341  0  0  0.121615  0  1.021852  0  0  0.123954  0  1.020358  0  0  0.114978  0.119754  0  1.023116  0
H  H9  1  0.53853053  0.61034310  0.90156952  1  0  0.104258  0  0.957841  0  0  0.11565  0  1.022592  0  0  0.117978  0  1.02096  0  0  0.117183  0.113853  0  1.02391  0
H  H10  1  0.46146948  0.38965672  0.09843020  1  0  0.104262  0  0.957847  0  0  0.115652  0  1.022595  0  0  0.11798  0  1.020964  0  0  0.117184  0.113856  0  1.023911  0
H  H11  1  0.22941083  0.45600593  0.33706175  1  0  0.11409  0  0.933014  0  0  0.121512  0  0.995819  0  0  0.125926  0  0.992105  0  0  0.108717  0.118322  0  0.99842  0
H  H12  1  0.77058918  0.54399390  0.66293797  1  0  0.114064  0  0.933032  0  0  0.121468  0  0.995858  0  0  0.12588  0  0.992144  0  0  0.108703  0.118279  0  0.998458  0
H  H13  1  0.82833998  0.02664551  0.38737362  1  0  0.091682  0  0.980067  0  0  0.095161  0  1.058417  0  0  0.098353  0  1.05629  0  0  0.100272  0.092768  0  1.060203  0
H  H14  1  0.17165937  0.97335305  0.61262672  1  0  0.09168  0  0.980085  0  0  0.095161  0  1.058443  0  0  0.098351  0  1.056318  0  0  0.100263  0.092771  0  1.060224  0
H  H15  1  0.20060282  0.47819459  0.76332900  1  0  0.09691  0  0.965017  0  0  0.104467  0  1.035395  0  0  0.108174  0  1.032139  0  0  0.104212  0.101745  0  1.037794  0
H  H16  1  0.79939838  0.52180523  0.23667099  1  0  0.096892  0  0.965027  0  0  0.10445  0  1.035407  0  0  0.108158  0  1.032149  0  0  0.104207  0.101728  0  1.037806  0
C  C17  1  0.40789004  0.77431221  0.03457816  1  0  0.19715  0  3.590749  0  0  0.129933  0  3.861124  0  0  0.144179  0  3.872134  0  0  0.174778  0.120325  0  3.853835  0
C  C18  1  0.59210930  0.22568635  0.96542119  1  0  0.197231  0  3.590768  0  0  0.130009  0  3.861149  0  0  0.144254  0  3.872159  0  0  0.174828  0.120402  0  3.853859  0
C  C19  1  0.53283036  0.74147567  0.23658577  1  0  0.177196  0  3.597218  0  0  0.115371  0  3.861454  0  0  0.128702  0  3.872837  0  0  0.173598  0.106569  0  3.853678  0
C  C20  1  0.46716965  0.25852416  0.76341595  1  0  0.177139  0  3.597281  0  0  0.115299  0  3.861506  0  0  0.128636  0  3.872893  0  0  0.17359  0.106497  0  3.85373  0
C  C21  1  0.55739821  0.59255090  0.00880772  1  0  -0.045299  0  3.591018  0  0  -0.11003  0  3.851003  0  0  -0.107767  0  3.861754  0  0  -0.056539  -0.111331  0  3.843712  0
C  C22  1  0.44259994  0.40744767  0.99119135  1  0  -0.045252  0  3.591017  0  0  -0.109981  0  3.85098  0  0  -0.107715  0  3.861729  0  0  -0.056513  -0.111275  0  3.843698  0
C  C23  1  0.23154720  0.48760049  0.55682289  1  0  -0.068495  0  3.750601  0  0  -0.040907  0  3.987203  0  0  -0.050758  0  4.01041  0  0  -0.017077  -0.034906  0  3.971861  0
C  C24  1  0.76845400  0.51239934  0.44317910  1  0  -0.068511  0  3.750565  0  0  -0.040909  0  3.98716  0  0  -0.05076  0  4.010365  0  0  -0.017028  -0.034906  0  3.971817  0
C  C25  1  0.16749512  0.39608793  0.40670836  1  0  -0.048921  0  3.666867  0  0  -0.085461  0  3.910578  0  0  -0.081813  0  3.927674  0  0  -0.070422  -0.087316  0  3.898762  0
C  C26  1  0.83250675  0.60391317  0.59329201  1  0  -0.048903  0  3.666854  0  0  -0.085432  0  3.910565  0  0  -0.08178  0  3.927656  0  0  -0.07043  -0.087287  0  3.898747  0
C  C27  1  0.02319586  0.23023091  0.34519285  1  0  -0.058556  0  3.746553  0  0  -0.031721  0  3.983144  0  0  -0.040851  0  4.004998  0  0  -0.015715  -0.025976  0  3.968487  0
C  C28  1  0.97680534  0.76976893  0.65480914  1  0  -0.058502  0  3.746462  0  0  -0.031664  0  3.98306  0  0  -0.040794  0  4.004911  0  0  -0.01568  -0.025919  0  3.968406  0
C  C29  1  0.94221950  0.15487133  0.43477384  1  0  -0.044079  0  3.671861  0  0  -0.084381  0  3.925182  0  0  -0.079951  0  3.942494  0  0  -0.073605  -0.087263  0  3.914378  0
C  C30  1  0.05778051  0.84512850  0.56522588  1  0  -0.044098  0  3.671944  0  0  -0.084435  0  3.92528  0  0  -0.080004  0  3.942594  0  0  -0.073635  -0.087317  0  3.914478  0
C  C31  1  0.00901838  0.24260036  0.58604792  1  0  -0.071078  0  3.7589  0  0  -0.043784  0  3.996581  0  0  -0.0535  0  4.019159  0  0  -0.020363  -0.037879  0  3.982047  0
C  C32  1  0.99098349  0.75740073  0.41395245  1  0  -0.071154  0  3.759009  0  0  -0.043801  0  3.996632  0  0  -0.053519  0  4.019211  0  0  -0.020366  -0.037896  0  3.982099  0
C  C33  1  0.15352982  0.40940859  0.64639089  1  0  -0.077646  0  3.706596  0  0  -0.1169  0  3.959181  0  0  -0.113168  0  3.977182  0  0  -0.07875  -0.118876  0  3.947085  0
C  C34  1  0.84646900  0.59059124  0.35360856  1  0  -0.077599  0  3.706483  0  0  -0.116875  0  3.959057  0  0  -0.113143  0  3.977059  0  0  -0.078772  -0.118851  0  3.94696  0
C  C35  1  0.37892391  0.66995598  0.61457486  1  0  0.680117  0  3.900669  0  0  0.627602  0  4.194372  0  0  0.663279  0  4.186453  0  0  0.213582  0.60341  0  4.198985  0
C  C36  1  0.62107557  0.33004511  0.38542497  1  0  0.680217  0  3.900599  0  0  0.627691  0  4.194313  0  0  0.663367  0  4.186393  0  0  0.213605  0.603497  0  4.198925  0
C  C37  1  0.95774336  0.13876150  0.18319546  1  0  0.652777  0  3.907212  0  0  0.603205  0  4.193655  0  0  0.637905  0  4.187976  0  0  0.205649  0.579576  0  4.196503  0
C  C38  1  0.04225784  0.86123833  0.81680453  1  0  0.65273  0  3.907294  0  0  0.603158  0  4.193739  0  0  0.637858  0  4.188061  0  0  0.205613  0.579528  0  4.19659  0
C  C39  1  0.92861139  0.15871169  0.68348774  1  0  0.639074  0  3.90959  0  0  0.589291  0  4.196302  0  0  0.623066  0  4.192087  0  0  0.197346  0.566463  0  4.198092  0
C  C40  1  0.07138929  0.84128940  0.31651236  1  0  0.639088  0  3.909617  0  0  0.589291  0  4.196324  0  0  0.623067  0  4.192111  0  0  0.197342  0.566462  0  4.198115  0
N  N41  1  0.38582375  0.86168777  0.14198598  1  0  -0.263655  0  3.174132  0  0  -0.20783  0  3.466179  0  0  -0.225337  0  3.483524  0  0  -0.234924  -0.195745  0  3.454248  0
N  N42  1  0.61417625  0.13831206  0.85801374  1  0  -0.263657  0  3.174144  0  0  -0.207831  0  3.466193  0  0  -0.225339  0  3.483539  0  0  -0.234922  -0.195746  0  3.454262  0
N  N43  1  0.46496041  0.84153251  0.26932519  1  0  -0.247244  0  3.16314  0  0  -0.192189  0  3.452126  0  0  -0.206507  0  3.46768  0  0  -0.232773  -0.182373  0  3.441151  0
N  N44  1  0.53503960  0.15846731  0.73067454  1  0  -0.247249  0  3.163154  0  0  -0.1922  0  3.452154  0  0  -0.206517  0  3.467705  0  0  -0.232784  -0.182383  0  3.44118  0
N  N45  1  0.49977066  0.69666609  0.08975879  1  0  -0.062926  0  3.512442  0  0  0.032398  0  3.737561  0  0  0.016103  0  3.76085  0  0  -0.221653  0.043053  0  3.721753  0
N  N46  1  0.50022868  0.30333247  0.91024155  1  0  -0.062947  0  3.512489  0  0  0.032378  0  3.737605  0  0  0.016086  0  3.76089  0  0  -0.221694  0.043034  0  3.721796  0
O  O47  1  0.48820306  0.73393377  0.74945556  1  0  -0.662714  0  2.02267  0  0  -0.597919  0  2.276996  0  0  -0.626892  0  2.263865  0  0  -0.32493  -0.577245  0  2.285009  0
O  O48  1  0.51179762  0.26606732  0.25054354  1  0  -0.66275  0  2.022646  0  0  -0.597947  0  2.276968  0  0  -0.626921  0  2.263837  0  0  -0.32494  -0.577273  0  2.284981  0
O  O49  1  0.37933090  0.74285397  0.52001127  1  0  -0.652035  0  2.080676  0  0  -0.588447  0  2.344526  0  0  -0.618117  0  2.334063  0  0  -0.330338  -0.567916  0  2.350899  0
O  O50  1  0.62066791  0.25714586  0.47998718  1  0  -0.652081  0  2.080677  0  0  -0.58847  0  2.344492  0  0  -0.618139  0  2.334026  0  0  -0.330341  -0.56794  0  2.350866  0
O  O51  1  0.07695019  0.16702642  0.12432007  1  0  -0.669919  0  2.018759  0  0  -0.597728  0  2.268214  0  0  -0.627241  0  2.254955  0  0  -0.338757  -0.576076  0  2.277552  0
O  O52  1  0.92304915  0.83297214  0.87567827  1  0  -0.669901  0  2.018784  0  0  -0.597712  0  2.268235  0  0  -0.627225  0  2.254977  0  0  -0.33876  -0.576061  0  2.277574  0
O  O53  1  0.78741851  0.04237104  0.10968988  1  0  -0.622281  0  1.960041  0  0  -0.560629  0  2.19953  0  0  -0.590146  0  2.192528  0  0  -0.317753  -0.539203  0  2.203284  0
O  O54  1  0.21258270  0.95762879  0.89031012  1  0  -0.622275  0  1.96007  0  0  -0.560622  0  2.199553  0  0  -0.590142  0  2.192557  0  0  -0.317735  -0.539196  0  2.203308  0
O  O55  1  0.77833282  0.01549661  0.62231819  1  0  -0.697335  0  2.058969  0  0  -0.62114  0  2.323587  0  0  -0.652803  0  2.312637  0  0  -0.34383  -0.598255  0  2.329692  0
O  O56  1  0.22166666  0.98450448  0.37768264  1  0  -0.697328  0  2.058964  0  0  -0.621146  0  2.32361  0  0  -0.652802  0  2.312641  0  0  -0.343837  -0.598261  0  2.329715  0
O  O57  1  0.00948327  0.22529973  0.82186812  1  0  -0.600916  0  1.945248  0  0  -0.545691  0  2.171111  0  0  -0.572233  0  2.163169  0  0  -0.311966  -0.526602  0  2.176604  0
O  O58  1  0.99051555  0.77470010  0.17813233  1  0  -0.600904  0  1.945233  0  0  -0.545676  0  2.171096  0  0  -0.572219  0  2.163155  0  0  -0.311945  -0.52659  0  2.17659  0
