# generated using pymatgen
data_CsH6PdC3NCl2O3
_symmetry_space_group_name_H-M   'P 1'
_cell_length_a   4.53681396
_cell_length_b   11.55505152
_cell_length_c   17.02773410
_cell_angle_alpha   89.99965509
_cell_angle_beta   89.99999088
_cell_angle_gamma   89.99998870
_symmetry_Int_Tables_number   1
_chemical_formula_structural   CsH6PdC3NCl2O3
_chemical_formula_sum   'Cs4 H24 Pd4 C12 N4 Cl8 O12'
_cell_volume   892.64693234
_cell_formula_units_Z   4
loop_
 _symmetry_equiv_pos_site_id
 _symmetry_equiv_pos_as_xyz
  1  'x, y, z'
loop_
 _atom_site_type_symbol
 _atom_site_label
 _atom_site_symmetry_multiplicity
 _atom_site_fract_x
 _atom_site_fract_y
 _atom_site_fract_z
 _atom_site_occupancy
 _atom_site_hle17_bader_spin_density
 _atom_site_hle17_ddec_charge
 _atom_site_hle17_ddec_spin_density
 _atom_site_hle17_ddec_sum_bond_order
 _atom_site_hle17_magmom
 _atom_site_hse06_10hf_bader_spin_density
 _atom_site_hse06_10hf_ddec_charge
 _atom_site_hse06_10hf_ddec_spin_density
 _atom_site_hse06_10hf_ddec_sum_bond_order
 _atom_site_hse06_10hf_magmom
 _atom_site_hse06_bader_spin_density
 _atom_site_hse06_ddec_charge
 _atom_site_hse06_ddec_spin_density
 _atom_site_hse06_ddec_sum_bond_order
 _atom_site_hse06_magmom
 _atom_site_pbe_bader_spin_density
 _atom_site_pbe_cm5_charge
 _atom_site_pbe_ddec_charge
 _atom_site_pbe_ddec_spin_density
 _atom_site_pbe_ddec_sum_bond_order
 _atom_site_pbe_magmom
Cs  Cs0  1  0.65818863  0.38577884  0.10493858  1  0  0.904737  0  0.627114  0  0  0.840741  0  0.89726  0  0  0.856369  0  0.872202  0  0  0.652145  0.829186  0  0.915048  0
Cs  Cs1  1  0.65818833  0.61422349  0.89506145  1  0  0.904737  0  0.627119  0  0  0.840741  0  0.897272  0  0  0.856371  0  0.872208  0  0  0.652138  0.829177  0  0.915066  0
Cs  Cs2  1  0.34180573  0.11422182  0.60493697  1  0  0.904752  0  0.627104  0  0  0.840747  0  0.897264  0  0  0.85638  0  0.872201  0  0  0.652129  0.829157  0  0.915066  0
Cs  Cs3  1  0.34180559  0.88577621  0.39506307  1  0  0.90474  0  0.627133  0  0  0.840735  0  0.897305  0  0  0.856365  0  0.872241  0  0  0.652134  0.829168  0  0.915086  0
H  H4  1  0.57212593  0.61760067  0.24011405  1  0  0.368066  0  0.916836  0  0  0.346156  0  0.985347  0  0  0.357055  0  0.9731  0  0  0.295335  0.338472  0  0.993964  0
H  H5  1  0.57212584  0.38240080  0.75988539  1  0  0.367991  0  0.916906  0  0  0.346043  0  0.985454  0  0  0.356938  0  0.973213  0  0  0.29531  0.338358  0  0.994069  0
H  H6  1  0.42787029  0.88240040  0.74011310  1  0  0.368012  0  0.916867  0  0  0.346068  0  0.985407  0  0  0.356962  0  0.973172  0  0  0.295293  0.338384  0  0.994022  0
H  H7  1  0.42787064  0.11759849  0.25988635  1  0  0.367999  0  0.916906  0  0  0.346055  0  0.985447  0  0  0.356951  0  0.973206  0  0  0.295307  0.338371  0  0.994062  0
H  H8  1  0.15324385  0.42389485  0.45220903  1  0  0.281101  0  0.924015  0  0  0.264639  0  0.997559  0  0  0.271395  0  0.99231  0  0  0.266195  0.259758  0  1.001601  0
H  H9  1  0.15324378  0.57610492  0.54779043  1  0  0.281084  0  0.924016  0  0  0.264636  0  0.997538  0  0  0.271393  0  0.992289  0  0  0.26619  0.259754  0  1.001581  0
H  H10  1  0.84675250  0.07610534  0.95220755  1  0  0.281031  0  0.924053  0  0  0.264597  0  0.997567  0  0  0.271353  0  0.99232  0  0  0.266188  0.259716  0  1.0016  0
H  H11  1  0.84675476  0.92389438  0.04779247  1  0  0.281027  0  0.924037  0  0  0.264597  0  0.997578  0  0  0.271353  0  0.992328  0  0  0.266179  0.259726  0  1.001576  0
H  H12  1  0.43385486  0.50338491  0.41692231  1  0  0.294508  0  0.913655  0  0  0.281774  0  0.976279  0  0  0.288542  0  0.971802  0  0  0.272993  0.276969  0  0.979595  0
H  H13  1  0.43385482  0.49661571  0.58307773  1  0  0.294499  0  0.913651  0  0  0.281774  0  0.976262  0  0  0.288542  0  0.971787  0  0  0.272993  0.276967  0  0.979576  0
H  H14  1  0.56614125  0.99661633  0.91692088  1  0  0.294527  0  0.913613  0  0  0.281803  0  0.976229  0  0  0.288572  0  0.971753  0  0  0.272995  0.276996  0  0.979545  0
H  H15  1  0.56614177  0.00338255  0.08307915  1  0  0.294452  0  0.913725  0  0  0.28178  0  0.976264  0  0  0.288549  0  0.971789  0  0  0.272984  0.276971  0  0.97958  0
H  H16  1  0.91881638  0.42855302  0.34020996  1  0  0.082569  0  0.947014  0  0  0.084438  0  1.027071  0  0  0.088351  0  1.021131  0  0  0.104569  0.081416  0  1.031698  0
H  H17  1  0.91881625  0.57144756  0.65978947  1  0  0.082534  0  0.946997  0  0  0.08441  0  1.027078  0  0  0.088322  0  1.021141  0  0  0.104567  0.081386  0  1.031706  0
H  H18  1  0.08118886  0.07144469  0.84020971  1  0  0.08256  0  0.946973  0  0  0.08439  0  1.027097  0  0  0.088302  0  1.02116  0  0  0.104565  0.081367  0  1.031721  0
H  H19  1  0.08118663  0.92855422  0.15979035  1  0  0.082565  0  0.94698  0  0  0.084439  0  1.027071  0  0  0.088352  0  1.021134  0  0  0.104567  0.081413  0  1.031696  0
H  H20  1  0.09041345  0.54077458  0.23093214  1  0  0.056661  0  0.95182  0  0  0.067628  0  1.02334  0  0  0.068653  0  1.022433  0  0  0.098903  0.066796  0  1.024165  0
H  H21  1  0.09041111  0.45922606  0.76906791  1  0  0.05664  0  0.951798  0  0  0.0676  0  1.023334  0  0  0.068606  0  1.022445  0  0  0.098887  0.066769  0  1.024158  0
H  H22  1  0.90958277  0.95922483  0.73093026  1  0  0.056631  0  0.95178  0  0  0.067606  0  1.023325  0  0  0.068633  0  1.022415  0  0  0.098882  0.066774  0  1.024145  0
H  H23  1  0.90958316  0.04077488  0.26906917  1  0  0.0566  0  0.951774  0  0  0.067607  0  1.023309  0  0  0.0686  0  1.022435  0  0  0.098876  0.066774  0  1.024136  0
H  H24  1  0.16074911  0.61668904  0.31964901  1  0  0.055943  0  0.934173  0  0  0.070114  0  0.999737  0  0  0.071082  0  0.998972  0  0  0.097755  0.069393  0  1.000318  0
H  H25  1  0.16074906  0.38331246  0.68035045  1  0  0.05588  0  0.934166  0  0  0.070061  0  0.99973  0  0  0.07103  0  0.99896  0  0  0.09773  0.069339  0  1.00031  0
H  H26  1  0.83924926  0.88331046  0.81964863  1  0  0.055889  0  0.934141  0  0  0.070061  0  0.99974  0  0  0.07103  0  0.998972  0  0  0.097729  0.069338  0  1.000324  0
H  H27  1  0.83924746  0.11668840  0.18035140  1  0  0.055845  0  0.93407  0  0  0.070055  0  0.999668  0  0  0.071023  0  0.998898  0  0  0.097736  0.069331  0  1.000252  0
Pd  Pd28  1  0.57481728  0.28857148  0.42064432  1  0  0.493623  0  2.623139  0  0  0.445246  0  3.195548  0  0  0.482358  0  3.152489  0  0  0.650013  0.422005  0  3.225272  0
Pd  Pd29  1  0.57481712  0.71142999  0.57935512  1  0  0.49364  0  2.623176  0  0  0.445263  0  3.195589  0  0  0.48237  0  3.152538  0  0  0.650031  0.422017  0  3.225319  0
Pd  Pd30  1  0.42518571  0.21142985  0.92064231  1  0  0.493647  0  2.623196  0  0  0.445247  0  3.195632  0  0  0.482371  0  3.152558  0  0  0.650009  0.422  0  3.225372  0
Pd  Pd31  1  0.42518361  0.78856903  0.07935714  1  0  0.493662  0  2.623183  0  0  0.445262  0  3.19561  0  0  0.482374  0  3.152554  0  0  0.650024  0.422014  0  3.225342  0
C  C32  1  0.23551312  0.32434001  0.28208208  1  0  0.643257  0  3.799825  0  0  0.596182  0  4.096718  0  0  0.630494  0  4.08958  0  0  0.197988  0.572626  0  4.10106  0
C  C33  1  0.23551510  0.67566235  0.71791738  1  0  0.643155  0  3.799986  0  0  0.596165  0  4.096762  0  0  0.630483  0  4.089617  0  0  0.198041  0.57261  0  4.101102  0
C  C34  1  0.76449436  0.17565822  0.78208137  1  0  0.643273  0  3.800153  0  0  0.596204  0  4.097011  0  0  0.630528  0  4.089857  0  0  0.197962  0.572643  0  4.101347  0
C  C35  1  0.76449436  0.82433977  0.21791866  1  0  0.643254  0  3.800015  0  0  0.596264  0  4.096809  0  0  0.630579  0  4.089667  0  0  0.197999  0.572704  0  4.101146  0
C  C36  1  0.15903650  0.43135533  0.33046469  1  0  0.010516  0  3.594768  0  0  -0.009282  0  3.838798  0  0  -0.01027  0  3.849312  0  0  -0.014179  -0.008438  0  3.831428  0
C  C37  1  0.15903636  0.56864703  0.66953536  1  0  0.010609  0  3.594707  0  0  -0.009248  0  3.838771  0  0  -0.010239  0  3.849287  0  0  -0.014195  -0.008401  0  3.831382  0
C  C38  1  0.84096654  0.06864507  0.83046383  1  0  0.010581  0  3.594581  0  0  -0.009166  0  3.83859  0  0  -0.010155  0  3.849103  0  0  -0.01416  -0.008328  0  3.831228  0
C  C39  1  0.84096652  0.93135292  0.16953678  1  0  0.010561  0  3.594588  0  0  -0.009316  0  3.838799  0  0  -0.010305  0  3.849307  0  0  -0.014144  -0.008477  0  3.831423  0
C  C40  1  0.22612101  0.54071376  0.28453117  1  0  0.106413  0  3.65832  0  0  0.047336  0  3.924457  0  0  0.054144  0  3.930227  0  0  -0.078911  0.042823  0  3.920408  0
C  C41  1  0.22612310  0.45928773  0.71546888  1  0  0.106549  0  3.658221  0  0  0.047466  0  3.924391  0  0  0.054288  0  3.930163  0  0  -0.078843  0.042949  0  3.920342  0
C  C42  1  0.77387518  0.95928691  0.78452988  1  0  0.106518  0  3.658138  0  0  0.047366  0  3.92439  0  0  0.054174  0  3.930157  0  0  -0.078909  0.04285  0  3.92034  0
C  C43  1  0.77387561  0.04071109  0.21547014  1  0  0.106668  0  3.657931  0  0  0.047446  0  3.924322  0  0  0.054276  0  3.930096  0  0  -0.07888  0.042931  0  3.920265  0
N  N44  1  0.30902720  0.42972366  0.40829301  1  0  -0.509915  0  3.218629  0  0  -0.469008  0  3.478485  0  0  -0.48811  0  3.477994  0  0  -0.639936  -0.456546  0  3.479393  0
N  N45  1  0.30902931  0.57027783  0.59170703  1  0  -0.50988  0  3.218591  0  0  -0.469015  0  3.478535  0  0  -0.488119  0  3.478046  0  0  -0.639932  -0.456545  0  3.479436  0
N  N46  1  0.69097359  0.07027778  0.90829216  1  0  -0.509916  0  3.218628  0  0  -0.469027  0  3.47845  0  0  -0.488135  0  3.477968  0  0  -0.639936  -0.456551  0  3.47935  0
N  N47  1  0.69097361  0.92972108  0.09170787  1  0  -0.509819  0  3.218661  0  0  -0.468975  0  3.478467  0  0  -0.488079  0  3.477979  0  0  -0.639922  -0.456495  0  3.479367  0
Cl  Cl48  1  0.84570566  0.11910788  0.42981148  1  0  -0.578861  0  1.141689  0  0  -0.553174  0  1.476126  0  0  -0.567083  0  1.451651  0  0  -0.381618  -0.544188  0  1.49342  0
Cl  Cl49  1  0.84570982  0.88089097  0.57018854  1  0  -0.578883  0  1.14174  0  0  -0.553187  0  1.476162  0  0  -0.567093  0  1.451687  0  0  -0.381627  -0.54419  0  1.493445  0
Cl  Cl50  1  0.15429512  0.38089337  0.92980878  1  0  -0.578863  0  1.14169  0  0  -0.55318  0  1.476138  0  0  -0.567081  0  1.451645  0  0  -0.38161  -0.544188  0  1.493441  0
Cl  Cl51  1  0.15429091  0.61910727  0.07019186  1  0  -0.578876  0  1.141712  0  0  -0.553172  0  1.476122  0  0  -0.567082  0  1.451653  0  0  -0.381619  -0.544192  0  1.493438  0
Cl  Cl52  1  0.76333719  0.35276019  0.53870922  1  0  -0.477467  0  1.160018  0  0  -0.444463  0  1.481295  0  0  -0.458486  0  1.457959  0  0  -0.304523  -0.435355  0  1.497748  0
Cl  Cl53  1  0.76333493  0.64724299  0.46128963  1  0  -0.477441  0  1.160008  0  0  -0.444445  0  1.481295  0  0  -0.458465  0  1.457956  0  0  -0.304513  -0.435338  0  1.497757  0
Cl  Cl54  1  0.23665942  0.14724192  0.03870713  1  0  -0.477452  0  1.16004  0  0  -0.444461  0  1.481322  0  0  -0.45849  0  1.457992  0  0  -0.304515  -0.435356  0  1.497784  0
Cl  Cl55  1  0.23666336  0.85275525  0.96129174  1  0  -0.477452  0  1.160055  0  0  -0.444458  0  1.48136  0  0  -0.458481  0  1.458027  0  0  -0.304526  -0.435353  0  1.497817  0
O  O56  1  0.40830620  0.24659464  0.31396492  1  0  -0.521054  0  2.145541  0  0  -0.455099  0  2.413101  0  0  -0.486101  0  2.402973  0  0  -0.319143  -0.434188  0  2.419818  0
O  O57  1  0.40830595  0.75340597  0.68603570  1  0  -0.521004  0  2.145734  0  0  -0.455059  0  2.413246  0  0  -0.486057  0  2.403113  0  0  -0.319142  -0.434149  0  2.419963  0
O  O58  1  0.59170567  0.25340677  0.81396332  1  0  -0.521058  0  2.145642  0  0  -0.455087  0  2.413168  0  0  -0.4861  0  2.403041  0  0  -0.319125  -0.434175  0  2.419887  0
O  O59  1  0.59170132  0.74659124  0.18603671  1  0  -0.521085  0  2.145542  0  0  -0.455138  0  2.413047  0  0  -0.486143  0  2.402917  0  0  -0.319152  -0.434228  0  2.419772  0
O  O60  1  0.13645685  0.31251518  0.21463919  1  0  -0.634764  0  1.98748  0  0  -0.591024  0  2.230574  0  0  -0.618097  0  2.224697  0  0  -0.450334  -0.571479  0  2.233735  0
O  O61  1  0.13645657  0.68748719  0.78536145  1  0  -0.63479  0  1.987435  0  0  -0.591079  0  2.230493  0  0  -0.618155  0  2.224614  0  0  -0.450386  -0.571532  0  2.233652  0
O  O62  1  0.86355288  0.18748278  0.71463843  1  0  -0.634825  0  1.987639  0  0  -0.591084  0  2.230735  0  0  -0.618162  0  2.224851  0  0  -0.450327  -0.57153  0  2.233889  0
O  O63  1  0.86355505  0.81251434  0.28536218  1  0  -0.634838  0  1.987578  0  0  -0.591111  0  2.230644  0  0  -0.618185  0  2.224764  0  0  -0.450363  -0.571563  0  2.233803  0
O  O64  1  0.53250563  0.54207082  0.26595734  1  0  -0.575342  0  2.065066  0  0  -0.522197  0  2.299411  0  0  -0.540292  0  2.288609  0  0  -0.447256  -0.509225  0  2.306499  0
O  O65  1  0.53250330  0.45793066  0.73404328  1  0  -0.575318  0  2.065112  0  0  -0.522125  0  2.299542  0  0  -0.540211  0  2.288725  0  0  -0.447248  -0.509157  0  2.306627  0
O  O66  1  0.46749278  0.95793002  0.76595666  1  0  -0.575298  0  2.065086  0  0  -0.522078  0  2.299504  0  0  -0.540175  0  2.288712  0  0  -0.447166  -0.509112  0  2.306597  0
O  O67  1  0.46749319  0.04206886  0.23404396  1  0  -0.575306  0  2.065051  0  0  -0.522083  0  2.299536  0  0  -0.540162  0  2.288704  0  0  -0.447196  -0.509116  0  2.306625  0
