# generated using pymatgen
data_KMnH3(CO2)3
_symmetry_space_group_name_H-M   'P 1'
_cell_length_a   6.97958543
_cell_length_b   7.09808826
_cell_length_c   7.09801332
_cell_angle_alpha   80.34945375
_cell_angle_beta   87.02447479
_cell_angle_gamma   87.02324729
_symmetry_Int_Tables_number   1
_chemical_formula_structural   KMnH3(CO2)3
_chemical_formula_sum   'K2 Mn2 H6 C6 O12'
_cell_volume   345.87013303
_cell_formula_units_Z   2
loop_
 _symmetry_equiv_pos_site_id
 _symmetry_equiv_pos_as_xyz
  1  'x, y, z'
loop_
 _atom_site_type_symbol
 _atom_site_label
 _atom_site_symmetry_multiplicity
 _atom_site_fract_x
 _atom_site_fract_y
 _atom_site_fract_z
 _atom_site_occupancy
 _atom_site_pbe_cm5_charge
 _atom_site_pbe_ddec_charge
 _atom_site_pbe_ddec_spin_density
 _atom_site_pbe_ddec_sum_bond_order
 _atom_site_pbe_magmom
K  K0  1  0.25000594  0.59703230  0.40295525  1  0.820805  0.863522  -0.00225  0.700814  0.001
K  K1  1  0.75000012  0.40295822  0.59704343  1  0.820804  0.863516  -0.00225  0.700818  0.001
Mn  Mn2  1  0.00002074  0.49998261  0.00000315  1  0.589815  1.034255  4.683521  2.318585  4.502
Mn  Mn3  1  0.49998819  0.00000910  0.49999576  1  0.589724  1.034202  4.683401  2.319038  4.502
H  H4  1  0.00051178  0.06123747  0.19343966  1  0.11165  0.004242  0.001877  1.013997  0.001
H  H5  1  0.49948853  0.80652123  0.93877573  1  0.111718  0.004203  0.001874  1.014334  0.001
H  H6  1  0.99949541  0.93875877  0.80655094  1  0.111657  0.004204  0.001877  1.014037  0.001
H  H7  1  0.50048950  0.19348638  0.06122868  1  0.111671  0.004237  0.001875  1.014154  0.001
H  H8  1  0.25002819  0.11985234  0.88019476  1  0.111635  0.001828  0.000176  1.017774  0.0
H  H9  1  0.74997965  0.88016109  0.11980134  1  0.111547  0.001726  0.000175  1.017639  0.0
C  C10  1  0.24999731  0.24116720  0.75884034  1  0.15632  0.5181  0.025724  4.216622  0.022
C  C11  1  0.75000163  0.75882332  0.24116861  1  0.156291  0.518156  0.025712  4.216391  0.022
C  C12  1  0.12768666  0.11730025  0.25006097  1  0.163438  0.514072  0.012881  4.226646  0.012
C  C13  1  0.37230658  0.74994292  0.88273265  1  0.163339  0.514163  0.012867  4.227074  0.012
C  C14  1  0.87230603  0.88270025  0.74993959  1  0.163543  0.514305  0.012865  4.22672  0.012
C  C15  1  0.62770146  0.25006622  0.11726276  1  0.16348  0.514182  0.01287  4.226793  0.012
O  O16  1  0.11556011  0.36864266  0.75736965  1  -0.39601  -0.592202  0.044933  2.402388  0.028
O  O17  1  0.38442928  0.24261678  0.63132435  1  -0.395986  -0.592248  0.04492  2.401914  0.028
O  O18  1  0.88443997  0.63135212  0.24262019  1  -0.395882  -0.592113  0.044917  2.402217  0.028
O  O19  1  0.61556048  0.75738514  0.36867755  1  -0.395992  -0.592329  0.044914  2.40188  0.028
O  O20  1  0.14652745  0.29672611  0.21609962  1  -0.353007  -0.568585  0.043252  2.384307  0.028
O  O21  1  0.35347057  0.78391214  0.70328547  1  -0.352943  -0.568578  0.043246  2.383859  0.028
O  O22  1  0.85347368  0.70328018  0.78391921  1  -0.353008  -0.568682  0.043234  2.384312  0.028
O  O23  1  0.64652984  0.21607840  0.29672903  1  -0.353021  -0.568695  0.043251  2.383776  0.028
O  O24  1  0.24093873  0.99414830  0.34194784  1  -0.365309  -0.566287  0.04354  2.381327  0.028
O  O25  1  0.25907644  0.65806266  0.00585579  1  -0.365409  -0.566398  0.043535  2.381654  0.028
O  O26  1  0.75905920  0.00586223  0.65804790  1  -0.365455  -0.566442  0.04353  2.381114  0.028
O  O27  1  0.74093039  0.34194073  0.99413222  1  -0.365415  -0.566351  0.043527  2.381644  0.028
