# generated using pymatgen
data_K2H16Pt(C7N2)4
_symmetry_space_group_name_H-M   'P 1'
_cell_length_a   8.21943663
_cell_length_b   8.42262487
_cell_length_c   20.40500000
_cell_angle_alpha   90.00000000
_cell_angle_beta   90.00000000
_cell_angle_gamma   105.41168091
_symmetry_Int_Tables_number   1
_chemical_formula_structural   K2H16Pt(C7N2)4
_chemical_formula_sum   'K4 H32 Pt2 C56 N16'
_cell_volume   1361.82632161
_cell_formula_units_Z   2
loop_
 _symmetry_equiv_pos_site_id
 _symmetry_equiv_pos_as_xyz
  1  'x, y, z'
loop_
 _atom_site_type_symbol
 _atom_site_label
 _atom_site_symmetry_multiplicity
 _atom_site_fract_x
 _atom_site_fract_y
 _atom_site_fract_z
 _atom_site_occupancy
 _atom_site_hle17_bader_spin_density
 _atom_site_hle17_ddec_charge
 _atom_site_hle17_ddec_spin_density
 _atom_site_hle17_ddec_sum_bond_order
 _atom_site_hle17_magmom
 _atom_site_hse06_10hf_bader_spin_density
 _atom_site_hse06_10hf_ddec_charge
 _atom_site_hse06_10hf_ddec_spin_density
 _atom_site_hse06_10hf_ddec_sum_bond_order
 _atom_site_hse06_10hf_magmom
 _atom_site_hse06_bader_spin_density
 _atom_site_hse06_ddec_charge
 _atom_site_hse06_ddec_spin_density
 _atom_site_hse06_ddec_sum_bond_order
 _atom_site_hse06_magmom
 _atom_site_pbe_bader_charge
 _atom_site_pbe_bader_spin_density
 _atom_site_pbe_cm5_charge
 _atom_site_pbe_ddec_charge
 _atom_site_pbe_ddec_spin_density
 _atom_site_pbe_ddec_sum_bond_order
 _atom_site_pbe_magmom
K  K0  1  0.96857111  0.12022280  0.57792110  1  0  0.87219  0  0.524121  0  0  0.799436  0  0.727327  0  0  0.815408  0  0.706956  0  0.866173  0  0.821419  0.78786  0  0.741702  0
K  K1  1  0.03144950  0.37978103  0.07792404  1  0  0.872198  0  0.524072  0  0  0.799418  0  0.72732  0  0  0.815393  0  0.706945  0  0.866202  0  0.821352  0.78784  0  0.741696  0
K  K2  1  0.03144969  0.87978733  0.42207645  1  0  0.87222  0  0.524069  0  0  0.79944  0  0.727322  0  0  0.815415  0  0.706948  0  0.866191  0  0.821372  0.787863  0  0.741697  0
K  K3  1  0.96856695  0.62021308  0.92207890  1  0  0.872201  0  0.524128  0  0  0.799433  0  0.727372  0  0  0.815406  0  0.706999  0  0.866171  0  0.821452  0.787858  0  0.741748  0
H  H4  1  0.34216016  0.97938143  0.56488116  1  0  0.077215  0  0.931642  0  0  0.086104  0  0.992297  0  0  0.088185  0  0.991214  0  0.094667  0  0.121677  0.084599  0  0.993075  0
H  H5  1  0.65783689  0.52061405  0.06488018  1  0  0.077291  0  0.931541  0  0  0.086167  0  0.992215  0  0  0.088248  0  0.99113  0  0.094488  0  0.121697  0.084645  0  0.992996  0
H  H6  1  0.65784005  0.02062007  0.43511884  1  0  0.077304  0  0.931584  0  0  0.086184  0  0.992245  0  0  0.088265  0  0.99116  0  0.094674  0  0.121719  0.08466  0  0.993039  0
H  H7  1  0.34216386  0.47938499  0.93512080  1  0  0.077265  0  0.931567  0  0  0.086142  0  0.992238  0  0  0.088223  0  0.991152  0  0.094473  0  0.121678  0.084618  0  0.993026  0
H  H8  1  0.55872975  0.87146196  0.62155893  1  0  0.10121  0  0.96262  0  0  0.111876  0  1.022771  0  0  0.114469  0  1.022507  0  0.069867  0  0.108824  0.109988  0  1.02313  0
H  H9  1  0.44126520  0.62853476  0.12155550  1  0  0.101238  0  0.96258  0  0  0.111907  0  1.022735  0  0  0.114504  0  1.022462  0  0.069853  0  0.108838  0.110017  0  1.023096  0
H  H10  1  0.44126769  0.12853832  0.37844254  1  0  0.101197  0  0.962624  0  0  0.111852  0  1.022793  0  0  0.114446  0  1.022526  0  0.069827  0  0.108802  0.109962  0  1.023154  0
H  H11  1  0.55873656  0.37146798  0.87844401  1  0  0.101212  0  0.962537  0  0  0.111871  0  1.022709  0  0  0.114466  0  1.02244  0  0.069863  0  0.108835  0.109983  0  1.023068  0
H  H12  1  0.55354835  0.85587529  0.74532075  1  0  0.091725  0  0.942029  0  0  0.106334  0  0.998691  0  0  0.108754  0  0.997695  0  0.072015  0  0.106243  0.10459  0  0.999421  0
H  H13  1  0.44644152  0.64412513  0.24531683  1  0  0.091759  0  0.942016  0  0  0.106377  0  0.998659  0  0  0.108801  0  0.997663  0  0.071631  0  0.106236  0.104632  0  0.99939  0
H  H14  1  0.44644234  0.14412253  0.25468072  1  0  0.091742  0  0.94202  0  0  0.106359  0  0.998665  0  0  0.108783  0  0.997669  0  0.071747  0  0.106234  0.104615  0  0.999396  0
H  H15  1  0.55355848  0.35588007  0.75468268  1  0  0.091803  0  0.941995  0  0  0.10644  0  0.998605  0  0  0.108872  0  0.997611  0  0.071701  0  0.106267  0.104696  0  0.999338  0
H  H16  1  0.42374215  0.90876110  0.85048959  1  0  0.095327  0  0.955277  0  0  0.099687  0  1.029902  0  0  0.103346  0  1.02731  0  0.063356  0  0.099784  0.097001  0  1.031882  0
H  H17  1  0.57624353  0.59124178  0.35048763  1  0  0.095257  0  0.955291  0  0  0.099641  0  1.029888  0  0  0.1033  0  1.027296  0  0.063213  0  0.099743  0.096954  0  1.031871  0
H  H18  1  0.57624422  0.09123425  0.14951041  1  0  0.095282  0  0.955242  0  0  0.099683  0  1.02983  0  0  0.103342  0  1.027237  0  0.063239  0  0.099761  0.096996  0  1.031813  0
H  H19  1  0.42375127  0.40876219  0.64951237  1  0  0.095311  0  0.955292  0  0  0.099693  0  1.029893  0  0  0.103352  0  1.027302  0  0.06331  0  0.099768  0.097006  0  1.031876  0
H  H20  1  0.20712546  0.00876750  0.90912717  1  0  0.088529  0  0.976047  0  0  0.094201  0  1.047783  0  0  0.097237  0  1.046182  0  0.041186  0  0.100743  0.09197  0  1.048992  0
H  H21  1  0.79286343  0.49124495  0.40912668  1  0  0.088519  0  0.976056  0  0  0.094204  0  1.047784  0  0  0.09724  0  1.046183  0  0.041242  0  0.100752  0.091986  0  1.048964  0
H  H22  1  0.79286602  0.99123770  0.09087185  1  0  0.088501  0  0.976035  0  0  0.094154  0  1.047804  0  0  0.097193  0  1.046193  0  0.041212  0  0.100725  0.091935  0  1.048979  0
H  H23  1  0.20712960  0.50876148  0.59087479  1  0  0.088519  0  0.976017  0  0  0.094201  0  1.047754  0  0  0.09724  0  1.046145  0  0.041248  0  0.100769  0.091977  0  1.048936  0
H  H24  1  0.95033625  0.11201566  0.90654251  1  0  0.104229  0  0.93883  0  0  0.117199  0  0.99437  0  0  0.119235  0  0.993784  0  0.110591  0  0.11694  0.1157  0  0.994839  0
H  H25  1  0.04965353  0.38799556  0.40654545  1  0  0.104219  0  0.938723  0  0  0.117164  0  0.994304  0  0  0.119204  0  0.993712  0  0.110505  0  0.116951  0.11566  0  0.994772  0
H  H26  1  0.04965645  0.88798954  0.09345504  1  0  0.104269  0  0.938668  0  0  0.11721  0  0.994226  0  0  0.119256  0  0.993641  0  0.1105  0  0.116952  0.115711  0  0.994699  0
H  H27  1  0.95034106  0.61201210  0.59345847  1  0  0.104237  0  0.938812  0  0  0.117182  0  0.994372  0  0  0.119217  0  0.993786  0  0.110642  0  0.11693  0.115682  0  0.994842  0
H  H28  1  0.73512445  0.20333365  0.84087871  1  0  0.100703  0  0.959225  0  0  0.11137  0  1.020244  0  0  0.113976  0  1.020253  0  0.097686  0  0.106519  0.109478  0  1.020427  0
H  H29  1  0.26486520  0.29667264  0.34088312  1  0  0.100678  0  0.959274  0  0  0.111352  0  1.020282  0  0  0.113954  0  1.020299  0  0.097626  0  0.106494  0.109461  0  1.020465  0
H  H30  1  0.26486880  0.79666909  0.15911688  1  0  0.100704  0  0.959129  0  0  0.111349  0  1.020178  0  0  0.113955  0  1.020188  0  0.09772  0  0.106491  0.109458  0  1.020361  0
H  H31  1  0.73512871  0.70333256  0.65912227  1  0  0.100729  0  0.959178  0  0  0.111343  0  1.020254  0  0  0.113946  0  1.020269  0  0.097635  0  0.106487  0.10945  0  1.020438  0
H  H32  1  0.75569943  0.20208485  0.71797011  1  0  0.063495  0  0.935478  0  0  0.073788  0  0.997887  0  0  0.076297  0  0.995913  0  0.037769  0  0.111931  0.071952  0  0.999334  0
H  H33  1  0.24429274  0.29791283  0.21797501  1  0  0.063511  0  0.935499  0  0  0.073764  0  0.997946  0  0  0.076267  0  0.995971  0  0.037983  0  0.111961  0.071933  0  0.999394  0
H  H34  1  0.24429679  0.79791543  0.28202548  1  0  0.063493  0  0.93548  0  0  0.073779  0  0.997906  0  0  0.076284  0  0.99593  0  0.037948  0  0.111961  0.071943  0  0.999353  0
H  H35  1  0.75570558  0.70208622  0.78203087  1  0  0.063488  0  0.935489  0  0  0.073759  0  0.997919  0  0  0.076272  0  0.99594  0  0.03785  0  0.111916  0.071923  0  0.999366  0
Pt  Pt36  1  0.50001596  0.49999644  0.50000686  1  0  0.066833  0  4.0815  0  0  0.105417  0  4.638504  0  0  0.095304  0  4.614421  0  0.50037  0  0.538075  0.113929  0  4.653944  0
Pt  Pt37  1  0.50000995  0.99999781  0.99998922  1  0  0.066767  0  4.081506  0  0  0.105395  0  4.638454  0  0  0.095293  0  4.614359  0  0.500082  0  0.538071  0.113875  0  4.65393  0
C  C38  1  0.68212462  0.70225863  0.51650821  1  0  0.09477  0  3.676354  0  0  0.065815  0  4.024865  0  0  0.078464  0  4.032074  0  0.803185  0  -0.005  0.05684  0  4.019792  0
C  C39  1  0.31790142  0.79774055  0.01649449  1  0  0.094654  0  3.675959  0  0  0.065689  0  4.024465  0  0  0.078336  0  4.031673  0  0.802643  0  -0.005078  0.056722  0  4.019397  0
C  C40  1  0.31791377  0.29774903  0.48350061  1  0  0.094665  0  3.675785  0  0  0.065708  0  4.024315  0  0  0.078363  0  4.031522  0  0.802398  0  -0.005077  0.056726  0  4.019247  0
C  C41  1  0.68211226  0.20225234  0.98349326  1  0  0.094743  0  3.676055  0  0  0.06578  0  4.024574  0  0  0.078431  0  4.03178  0  0.802923  0  -0.005082  0.056807  0  4.019508  0
C  C42  1  0.64634313  0.36259826  0.53133546  1  0  0.073569  0  3.689403  0  0  0.047533  0  4.040104  0  0  0.058137  0  4.049147  0  0.782812  0  -0.017991  0.040023  0  4.03371  0
C  C43  1  0.35366847  0.13738587  0.03131879  1  0  0.073432  0  3.689451  0  0  0.047393  0  4.040152  0  0  0.057994  0  4.049196  0  0.782806  0  -0.018021  0.039892  0  4.03376  0
C  C44  1  0.35367341  0.63738724  0.46867827  1  0  0.073398  0  3.689318  0  0  0.047372  0  4.040022  0  0  0.057973  0  4.049067  0  0.78235  0  -0.018046  0.039863  0  4.033628  0
C  C45  1  0.64634474  0.86260086  0.96866258  1  0  0.073563  0  3.689355  0  0  0.047517  0  4.04005  0  0  0.058117  0  4.049092  0  0.782966  0  -0.018018  0.040016  0  4.033661  0
C  C46  1  0.34136508  0.97005973  0.61831463  1  0  0.143465  0  3.724319  0  0  0.118281  0  3.981014  0  0  0.124362  0  3.998193  0  0.562097  0  0.059039  0.114416  0  3.969138  0
C  C47  1  0.65863054  0.52993945  0.11831414  1  0  0.143423  0  3.724252  0  0  0.118244  0  3.980936  0  0  0.124326  0  3.998114  0  0.562302  0  0.059047  0.114402  0  3.969064  0
C  C48  1  0.65863081  0.02993932  0.38168488  1  0  0.143394  0  3.72433  0  0  0.118221  0  3.980999  0  0  0.124302  0  3.998177  0  0.56213  0  0.059043  0.114372  0  3.969125  0
C  C49  1  0.34137088  0.47006205  0.88168733  1  0  0.143409  0  3.724298  0  0  0.118231  0  3.98098  0  0  0.124313  0  3.998157  0  0.562218  0  0.059046  0.114389  0  3.969106  0
C  C50  1  0.46442490  0.90987320  0.65048272  1  0  -0.11779  0  3.749312  0  0  -0.130836  0  4.000355  0  0  -0.13662  0  4.022053  0  -0.004722  0  -0.08124  -0.12703  0  3.985592  0
C  C51  1  0.53556674  0.59012475  0.15048125  1  0  -0.117846  0  3.749185  0  0  -0.130896  0  4.000246  0  0  -0.136681  0  4.021949  0  -0.004916  0  -0.081295  -0.127085  0  3.985473  0
C  C52  1  0.53557011  0.09012707  0.34951728  1  0  -0.117748  0  3.749248  0  0  -0.13078  0  4.000278  0  0  -0.136563  0  4.021979  0  -0.004763  0  -0.081232  -0.126971  0  3.985506  0
C  C53  1  0.46443070  0.40987553  0.84951875  1  0  -0.117824  0  3.749164  0  0  -0.130871  0  4.000245  0  0  -0.136657  0  4.02195  0  -0.004901  0  -0.081315  -0.127062  0  3.985471  0
C  C54  1  0.46105444  0.90154414  0.71807449  1  0  -0.061252  0  3.723238  0  0  -0.085045  0  3.972042  0  0  -0.084177  0  3.992003  0  -0.085646  0  -0.069406  -0.085314  0  3.958319  0
C  C55  1  0.53893631  0.59845505  0.21807302  1  0  -0.061302  0  3.723209  0  0  -0.085109  0  3.972028  0  0  -0.084249  0  3.991995  0  -0.085261  0  -0.069406  -0.085378  0  3.958307  0
C  C56  1  0.53893713  0.09845244  0.28192551  1  0  -0.061301  0  3.723254  0  0  -0.085103  0  3.972081  0  0  -0.084241  0  3.992048  0  -0.085372  0  -0.069434  -0.085371  0  3.958358  0
C  C57  1  0.46106214  0.40154892  0.78192747  1  0  -0.06133  0  3.723279  0  0  -0.085165  0  3.972058  0  0  -0.084316  0  3.992038  0  -0.085347  0  -0.069417  -0.085434  0  3.958338  0
C  C58  1  0.33614623  0.95376367  0.75310414  1  0  0.022487  0  3.784671  0  0  0.038789  0  4.01439  0  0  0.036408  0  4.039357  0  -0.005491  0  -0.005116  0.040252  0  3.997517  0
C  C59  1  0.66384264  0.54623304  0.25310316  1  0  0.022431  0  3.784554  0  0  0.03873  0  4.01426  0  0  0.036346  0  4.039229  0  -0.005748  0  -0.005111  0.040193  0  3.99739  0
C  C60  1  0.66384467  0.04623044  0.24689537  1  0  0.02226  0  3.78465  0  0  0.038555  0  4.014421  0  0  0.036173  0  4.039387  0  -0.005718  0  -0.005165  0.040019  0  3.99755  0
C  C61  1  0.33615547  0.45376969  0.74689782  1  0  0.022426  0  3.784742  0  0  0.038787  0  4.014367  0  0  0.036405  0  4.039337  0  -0.005721  0  -0.005095  0.040249  0  3.997496  0
C  C62  1  0.21553211  0.01073677  0.71599265  1  0  0.135739  0  3.729225  0  0  0.134743  0  3.967785  0  0  0.138427  0  3.988671  0  0.50165  0  0.117271  0.132248  0  3.953745  0
C  C63  1  0.78445709  0.48926336  0.21599265  1  0  0.135912  0  3.729141  0  0  0.135026  0  3.967665  0  0  0.138713  0  3.988546  0  0.501914  0  0.117327  0.132525  0  3.953626  0
C  C64  1  0.78445913  0.98925858  0.28400588  1  0  0.135836  0  3.729096  0  0  0.13487  0  3.967724  0  0  0.138556  0  3.988608  0  0.502091  0  0.117267  0.132367  0  3.953695  0
C  C65  1  0.21554069  0.51073814  0.78400980  1  0  0.135853  0  3.729186  0  0  0.134895  0  3.967687  0  0  0.138583  0  3.988567  0  0.501913  0  0.117332  0.132402  0  3.953644  0
C  C66  1  0.32956848  0.95216634  0.82322715  1  0  -0.100703  0  3.761102  0  0  -0.127325  0  4.027213  0  0  -0.130122  0  4.049396  0  0.006191  0  -0.085778  -0.125319  0  4.012157  0
C  C67  1  0.67041930  0.54783531  0.32322715  1  0  -0.100584  0  3.760981  0  0  -0.127234  0  4.027119  0  0  -0.130025  0  4.049298  0  0.006315  0  -0.085704  -0.125235  0  4.012071  0
C  C68  1  0.67042066  0.04783024  0.17677138  1  0  -0.100543  0  3.76093  0  0  -0.127188  0  4.027037  0  0  -0.129983  0  4.049219  0  0.006337  0  -0.085722  -0.125187  0  4.011985  0
C  C69  1  0.32957516  0.45216743  0.67677432  1  0  -0.100752  0  3.761018  0  0  -0.127426  0  4.027149  0  0  -0.13022  0  4.049329  0  0.006228  0  -0.085789  -0.125425  0  4.012098  0
C  C70  1  0.20890797  0.00584623  0.85562656  1  0  -0.119686  0  3.784521  0  0  -0.140999  0  4.043511  0  0  -0.144345  0  4.06683  0  -0.023385  0  -0.089388  -0.13855  0  4.027667  0
C  C71  1  0.79108479  0.49416252  0.35562754  1  0  -0.119688  0  3.784332  0  0  -0.140999  0  4.043333  0  0  -0.144348  0  4.066651  0  -0.023658  0  -0.089359  -0.13855  0  4.0275  0
C  C72  1  0.79108372  0.99415527  0.14437148  1  0  -0.119567  0  3.784241  0  0  -0.140857  0  4.043248  0  0  -0.144203  0  4.066569  0  -0.023704  0  -0.089293  -0.138402  0  4.027409  0
C  C73  1  0.20891190  0.50584391  0.64437491  1  0  -0.119556  0  3.784414  0  0  -0.140886  0  4.043402  0  0  -0.144233  0  4.066721  0  -0.023405  0  -0.089364  -0.138431  0  4.027562  0
C  C74  1  0.08317859  0.06075551  0.82052830  1  0  0.023037  0  3.782601  0  0  0.0394  0  4.010051  0  0  0.036585  0  4.035182  0  0.006149  0  -0.000862  0.041113  0  3.993078  0
C  C75  1  0.91681072  0.43924956  0.32052977  1  0  0.023108  0  3.782322  0  0  0.039499  0  4.009843  0  0  0.036683  0  4.034977  0  0.006225  0  -0.000887  0.041207  0  3.992867  0
C  C76  1  0.91681344  0.93924723  0.17946974  1  0  0.023005  0  3.782472  0  0  0.039382  0  4.009988  0  0  0.036566  0  4.035124  0  0.006246  0  -0.000883  0.041092  0  3.993014  0
C  C77  1  0.08318529  0.56075441  0.67947317  1  0  0.022946  0  3.782635  0  0  0.039326  0  4.010064  0  0  0.036512  0  4.035197  0  0.006154  0  -0.00091  0.041037  0  3.993092  0
C  C78  1  0.08412435  0.06326790  0.75061309  1  0  0.135297  0  3.739494  0  0  0.133709  0  3.97968  0  0  0.137787  0  4.000503  0  0.489738  0  0.117188  0.130975  0  3.965686  0
C  C79  1  0.91586552  0.43673470  0.25061505  1  0  0.135046  0  3.73948  0  0  0.133228  0  3.98001  0  0  0.137304  0  4.000837  0  0.489682  0  0.117108  0.130513  0  3.965982  0
C  C80  1  0.91586756  0.93672991  0.24938446  1  0  0.135224  0  3.739348  0  0  0.13345  0  3.979842  0  0  0.137528  0  4.000668  0  0.489692  0  0.117183  0.130728  0  3.965829  0
C  C81  1  0.08413104  0.56326680  0.74938790  1  0  0.135279  0  3.73944  0  0  0.133605  0  3.979734  0  0  0.137684  0  4.000556  0  0.489553  0  0.117197  0.130874  0  3.965736  0
C  C82  1  0.95481061  0.11275583  0.85318059  1  0  -0.036784  0  3.681627  0  0  -0.060432  0  3.927057  0  0  -0.058291  0  3.946183  0  -0.025617  0  -0.056273  -0.061534  0  3.913908  0
C  C83  1  0.04518038  0.38725539  0.35318353  1  0  -0.036713  0  3.681263  0  0  -0.060319  0  3.926682  0  0  -0.058179  0  3.945811  0  -0.025617  0  -0.05628  -0.061415  0  3.91353  0
C  C84  1  0.04518020  0.88724691  0.14681696  1  0  -0.036845  0  3.681481  0  0  -0.060417  0  3.926851  0  0  -0.058292  0  3.945994  0  -0.02562  0  -0.056275  -0.061523  0  3.913709  0
C  C85  1  0.95481353  0.61274981  0.64682088  1  0  -0.036708  0  3.68164  0  0  -0.060293  0  3.926977  0  0  -0.05815  0  3.9461  0  -0.025619  0  -0.056205  -0.061395  0  3.913829  0
C  C86  1  0.83573886  0.16321177  0.81691399  1  0  -0.121168  0  3.743633  0  0  -0.136664  0  4.000634  0  0  -0.143362  0  4.022434  0  -0.094425  0  -0.084454  -0.132313  0  3.985876  0
C  C87  1  0.16425113  0.33679576  0.31691889  1  0  -0.121117  0  3.743616  0  0  -0.136625  0  4.000617  0  0  -0.143322  0  4.022417  0  -0.094257  0  -0.084363  -0.132272  0  3.985859  0
C  C88  1  0.16425539  0.83679467  0.18308160  1  0  -0.121127  0  3.743464  0  0  -0.136623  0  4.000456  0  0  -0.143321  0  4.022259  0  -0.094428  0  -0.084389  -0.13227  0  3.985699  0
C  C89  1  0.83574367  0.66320821  0.68308748  1  0  -0.12119  0  3.743659  0  0  -0.136662  0  4.000653  0  0  -0.14336  0  4.022455  0  -0.094199  0  -0.084398  -0.13231  0  3.985895  0
C  C90  1  0.84758388  0.16208119  0.74814947  1  0  0.125974  0  3.767868  0  0  0.09865  0  4.033759  0  0  0.105351  0  4.050476  0  0.557595  0  0.045067  0.094393  0  4.022188  0
C  C91  1  0.15240842  0.33792141  0.24815388  1  0  0.12591  0  3.767854  0  0  0.098632  0  4.033727  0  0  0.105343  0  4.050431  0  0.557548  0  0.045029  0.094365  0  4.022169  0
C  C92  1  0.15240903  0.83792032  0.25184661  1  0  0.125993  0  3.767684  0  0  0.098682  0  4.03356  0  0  0.105392  0  4.050267  0  0.557546  0  0.045063  0.094425  0  4.02199  0
C  C93  1  0.84759058  0.66208010  0.75185249  1  0  0.126039  0  3.767841  0  0  0.098745  0  4.033689  0  0  0.105444  0  4.050408  0  0.557574  0  0.045165  0.094487  0  4.022121  0
N  N94  1  0.79109071  0.82248636  0.52555991  1  0  -0.544794  0  2.832296  0  0  -0.491065  0  3.095876  0  0  -0.506589  0  3.105539  0  -1.370997  0  -0.534202  -0.480219  0  3.089291  0
N  N95  1  0.20893323  0.67751405  0.02555795  1  0  -0.544646  0  2.831873  0  0  -0.490913  0  3.095453  0  0  -0.506439  0  3.10512  0  -1.370557  0  -0.534114  -0.48007  0  3.088861  0
N  N96  1  0.20892938  0.17750776  0.47443862  1  0  -0.544698  0  2.831498  0  0  -0.490974  0  3.095081  0  0  -0.506502  0  3.104745  0  -1.370298  0  -0.534151  -0.480125  0  3.088496  0
N  N97  1  0.79109245  0.32249607  0.97444205  1  0  -0.544766  0  2.831838  0  0  -0.491045  0  3.095433  0  0  -0.506573  0  3.105096  0  -1.370668  0  -0.534164  -0.480199  0  3.088845  0
N  N98  1  0.73363771  0.28175348  0.54952806  1  0  -0.508275  0  2.789649  0  0  -0.461041  0  3.045072  0  0  -0.475693  0  3.056747  0  -1.338353  0  -0.485036  -0.450795  0  3.03708  0
N  N99  1  0.26637343  0.21822449  0.04951531  1  0  -0.508171  0  2.789623  0  0  -0.460936  0  3.04505  0  0  -0.475591  0  3.056727  0  -1.338387  0  -0.484965  -0.450691  0  3.037052  0
N  N100  1  0.26637249  0.71822216  0.45048272  1  0  -0.508156  0  2.789529  0  0  -0.460921  0  3.044948  0  0  -0.475574  0  3.056624  0  -1.337901  0  -0.484927  -0.450674  0  3.036956  0
N  N101  1  0.73364654  0.78176470  0.95047047  1  0  -0.508257  0  2.789587  0  0  -0.461013  0  3.045005  0  0  -0.475666  0  3.056681  0  -1.33821  0  -0.484991  -0.45077  0  3.03701  0
N  N102  1  0.22026636  0.01798453  0.64947611  1  0  -0.382186  0  3.134232  0  0  -0.344056  0  3.402366  0  0  -0.35628  0  3.419554  0  -1.244795  0  -0.386278  -0.335653  0  3.390576  0
N  N103  1  0.77972824  0.48201315  0.14947611  1  0  -0.3822  0  3.134244  0  0  -0.344085  0  3.402353  0  0  -0.356309  0  3.419541  0  -1.24475  0  -0.386238  -0.335684  0  3.390558  0
N  N104  1  0.77973108  0.98201575  0.35052291  1  0  -0.382194  0  3.134202  0  0  -0.344049  0  3.402333  0  0  -0.356276  0  3.419527  0  -1.244921  0  -0.386265  -0.335643  0  3.390535  0
N  N105  1  0.22027251  0.51798590  0.85052585  1  0  -0.382179  0  3.134271  0  0  -0.344062  0  3.402391  0  0  -0.356286  0  3.419579  0  -1.244795  0  -0.386291  -0.335661  0  3.390593  0
N  N106  1  0.96636743  0.11372999  0.71560500  1  0  -0.389719  0  3.148781  0  0  -0.352121  0  3.420915  0  0  -0.364561  0  3.437724  0  -1.21944  0  -0.400673  -0.3436  0  3.409385  0
N  N107  1  0.03362231  0.38626768  0.21560696  1  0  -0.389706  0  3.148588  0  0  -0.352028  0  3.420783  0  0  -0.364469  0  3.437588  0  -1.219315  0  -0.400737  -0.343513  0  3.409252  0
N  N108  1  0.03362603  0.88626905  0.28439304  1  0  -0.389739  0  3.148508  0  0  -0.352064  0  3.420696  0  0  -0.364505  0  3.437501  0  -1.219356  0  -0.400737  -0.343546  0  3.409162  0
N  N109  1  0.96637567  0.61373013  0.78439696  1  0  -0.38985  0  3.148866  0  0  -0.352238  0  3.421032  0  0  -0.36468  0  3.437842  0  -1.219347  0  -0.400843  -0.343717  0  3.409501  0
