# generated using pymatgen
data_Zn3H50C48(N9O10)2
_symmetry_space_group_name_H-M   'P 1'
_cell_length_a   12.60302528
_cell_length_b   13.00592506
_cell_length_c   12.92452424
_cell_angle_alpha   78.71135494
_cell_angle_beta   62.49309116
_cell_angle_gamma   61.96289213
_symmetry_Int_Tables_number   1
_chemical_formula_structural   Zn3H50C48(N9O10)2
_chemical_formula_sum   'Zn3 H50 C48 N18 O20'
_cell_volume   1657.89155135
_cell_formula_units_Z   1
loop_
 _symmetry_equiv_pos_site_id
 _symmetry_equiv_pos_as_xyz
  1  'x, y, z'
loop_
 _atom_site_type_symbol
 _atom_site_label
 _atom_site_symmetry_multiplicity
 _atom_site_fract_x
 _atom_site_fract_y
 _atom_site_fract_z
 _atom_site_occupancy
 _atom_site_pbe_bader_charge
 _atom_site_pbe_bader_spin_density
 _atom_site_pbe_cm5_charge
 _atom_site_pbe_ddec_charge
 _atom_site_pbe_ddec_spin_density
 _atom_site_pbe_ddec_sum_bond_order
 _atom_site_pbe_magmom
Zn  Zn0  1  0.65176832  0.13818037  0.40214373  1  1.294324  0  0.685035  0.860804  0  2.325191  0
Zn  Zn1  1  0.34818555  0.86183201  0.59786583  1  1.294171  0  0.684969  0.8608  0  2.325288  0
Zn  Zn2  1  0.00003969  0.99996517  0.99997389  1  1.447546  0  0.779587  1.027676  0  2.62784  0
H  H3  1  0.08968129  0.83757082  0.87319237  1  0.641168  0  0.271904  0.360794  0  0.981562  0
H  H4  1  0.97828555  0.18028699  0.56265554  1  0.09564  0  0.100888  0.108777  0  1.047043  0
H  H5  1  0.81830339  0.93811758  0.60526075  1  0.109478  0  0.099265  0.0997  0  1.037185  0
H  H6  1  0.68092231  0.11378174  0.72284478  1  0.062605  0  0.116336  0.105753  0  0.975363  0
H  H7  1  0.72156456  0.23379159  0.67532062  1  0.081655  0  0.129773  0.128441  0  0.948389  0
H  H8  1  0.95799919  0.96964394  0.77577987  1  0.266229  0  0.144423  0.133101  0  1.052832  0
H  H9  1  0.61872465  0.92049549  0.58343599  1  0.184503  0  0.148503  0.129309  0  0.984998  0
H  H10  1  0.34014964  0.95836999  0.86396370  1  0.101435  0  0.118486  0.119938  0  1.004651  0
H  H11  1  0.51130272  0.86083776  0.78887978  1  0.078098  0  0.117561  0.10729  0  1.005743  0
H  H12  1  0.26660692  0.08615846  0.02387872  1  0.109193  0  0.104827  0.112294  0  1.000797  0
H  H13  1  0.68304621  0.86544168  0.83123609  1  0.08034  0  0.095923  0.104062  0  1.044798  0
H  H14  1  0.90077092  0.77527135  0.17023236  1  0.124961  0  0.112496  0.150307  0  0.962096  0
H  H15  1  0.02081196  0.78234211  0.19860206  1  0.108054  0  0.105776  0.130458  0  0.992653  0
H  H16  1  0.77505683  0.74927320  0.38205482  1  0.098651  0  0.112532  0.087438  0  1.013789  0
H  H17  1  0.88464030  0.77003133  0.41713054  1  0.097135  0  0.111617  0.088772  0  1.011101  0
H  H18  1  0.93924885  0.37587543  0.20537574  1  0.087053  0  0.122303  0.110949  0  0.943377  0
H  H19  1  0.04084299  0.25730925  0.26395801  1  0.110899  0  0.117043  0.099345  0  0.995043  0
H  H20  1  0.84787711  0.32226105  0.46698279  1  0.061358  0  0.103815  0.126962  0  1.010248  0
H  H21  1  0.74718430  0.42668044  0.40067041  1  0.083229  0  0.109408  0.136459  0  0.967642  0
H  H22  1  0.25067245  0.45837031  0.43398290  1  0.09925  0  0.112877  0.094474  0  0.982421  0
H  H23  1  0.27937221  0.31502422  0.41048437  1  0.130862  0  0.111335  0.090096  0  1.027537  0
H  H24  1  0.39094477  0.34589697  0.19017765  1  0.056396  0  0.10859  0.128288  0  0.964368  0
H  H25  1  0.38954987  0.47137457  0.22554628  1  0.089657  0  0.108066  0.134032  0  0.967432  0
H  H26  1  0.40192396  0.28423927  0.64105721  1  0.156932  0  0.14476  0.122933  0  0.975205  0
H  H27  1  0.28126521  0.76195969  0.96423220  1  0.207736  0  0.138784  0.125429  0  1.014456  0
H  H28  1  0.91035325  0.16237941  0.12675439  1  0.641756  0  0.272058  0.360969  0  0.981335  0
H  H29  1  0.02175680  0.81974855  0.43727114  1  0.095776  0  0.100829  0.10866  0  1.046932  0
H  H30  1  0.18173092  0.06192142  0.39466037  1  0.109187  0  0.099182  0.099385  0  1.037092  0
H  H31  1  0.31911807  0.88626861  0.27708134  1  0.061663  0  0.116358  0.105612  0  0.975185  0
H  H32  1  0.27852616  0.76623022  0.32465493  1  0.08313  0  0.12977  0.128482  0  0.948199  0
H  H33  1  0.04210847  0.03034434  0.22410037  1  0.268232  0  0.144185  0.132801  0  1.052987  0
H  H34  1  0.38132256  0.07948999  0.41659767  1  0.18416  0  0.148578  0.129541  0  0.984828  0
H  H35  1  0.65985967  0.04160500  0.13606303  1  0.10143  0  0.118557  0.119989  0  1.004612  0
H  H36  1  0.48870700  0.13913463  0.21115115  1  0.0782  0  0.117608  0.107367  0  1.005727  0
H  H37  1  0.73339742  0.91381394  0.97615311  1  0.10903  0  0.104842  0.112297  0  1.000669  0
H  H38  1  0.31696221  0.13453332  0.16879259  1  0.08055  0  0.095904  0.104179  0  1.044529  0
H  H39  1  0.09925130  0.22472961  0.82975770  1  0.125342  0  0.112523  0.15029  0  0.96213  0
H  H40  1  0.97918462  0.21767294  0.80142001  1  0.107809  0  0.10573  0.130401  0  0.99272  0
H  H41  1  0.22490085  0.25077832  0.61793809  1  0.09856  0  0.112536  0.087571  0  1.013735  0
H  H42  1  0.11530268  0.23002115  0.58288357  1  0.097537  0  0.11173  0.088911  0  1.011057  0
H  H43  1  0.06071480  0.62420574  0.79462392  1  0.086932  0  0.122242  0.110887  0  0.943628  0
H  H44  1  0.95916118  0.74274380  0.73598714  1  0.111229  0  0.117089  0.099522  0  0.995017  0
H  H45  1  0.15214577  0.67770759  0.53298953  1  0.06223  0  0.103852  0.126959  0  1.010272  0
H  H46  1  0.25280484  0.57329884  0.59933987  1  0.08311  0  0.109403  0.136434  0  0.967653  0
H  H47  1  0.74927105  0.54170834  0.56603805  1  0.094155  0  0.112792  0.094268  0  0.982471  0
H  H48  1  0.72054671  0.68504344  0.58961112  1  0.129237  0  0.111378  0.090052  0  1.027429  0
H  H49  1  0.60894764  0.65412784  0.80988366  1  0.056311  0  0.108574  0.128237  0  0.964452  0
H  H50  1  0.61042797  0.52862047  0.77448219  1  0.089392  0  0.108035  0.133928  0  0.967291  0
H  H51  1  0.59802763  0.71574185  0.35897752  1  0.156956  0  0.144652  0.122728  0  0.975333  0
H  H52  1  0.71878216  0.23789159  0.03579920  1  0.207569  0  0.138978  0.125737  0  1.014159  0
C  C53  1  0.98808603  0.10086903  0.53543477  1  -0.00962  0  -0.088465  -0.120102  0  3.949744  0
C  C54  1  0.88404976  0.06783302  0.59512387  1  -0.047434  0  -0.011759  0.083031  0  3.985196  0
C  C55  1  0.89727671  0.96620137  0.55890292  1  -0.062914  0  -0.087706  -0.120592  0  3.969504  0
C  C56  1  0.75989967  0.14120415  0.69670943  1  0.317998  0  -0.034621  -0.129318  0  3.873262  0
C  C57  1  0.75637785  0.18761511  0.95816851  1  0.950851  0  0.153116  0.137276  0  3.955982  0
C  C58  1  0.88005822  0.04932180  0.82687995  1  0.942937  0  0.165803  0.069793  0  3.867932  0
C  C59  1  0.43781671  0.19123445  0.65466355  1  0.981813  0  0.151409  0.141535  0  3.976656  0
C  C60  1  0.54971430  0.00700914  0.62250672  1  0.993906  0  0.165312  0.083956  0  3.890797  0
C  C61  1  0.44226840  0.94792361  0.82916142  1  0.334117  0  -0.045898  -0.149953  0  3.888852  0
C  C62  1  0.47148692  0.97168684  0.92003280  1  -0.094434  0  -0.016882  0.088537  0  4.001889  0
C  C63  1  0.36850503  0.04755876  0.01466013  1  -0.064565  0  -0.088924  -0.123499  0  3.989189  0
C  C64  1  0.60302628  0.92449766  0.90540479  1  -6.3e-05  0  -0.096617  -0.140518  0  3.987149  0
C  C65  1  0.83375129  0.93310256  0.25598032  1  1.562322  0  0.221265  0.647531  0  4.10886  0
C  C66  1  0.91495052  0.80206786  0.23662740  1  -0.100954  0  -0.161953  -0.324903  0  3.875085  0
C  C67  1  0.87704385  0.73764657  0.35006807  1  0.275522  0  -0.061478  -0.020083  0  3.901668  0
C  C68  1  0.92267699  0.54042832  0.30984108  1  1.794394  0  0.347348  0.553614  0  4.160646  0
C  C69  1  0.07476220  0.56950231  0.35693602  1  1.786274  0  0.338485  0.543137  0  4.177045  0
C  C70  1  0.11184891  0.37057562  0.33076864  1  1.798997  0  0.343858  0.551552  0  4.164413  0
C  C71  1  0.95772510  0.34424620  0.28325467  1  0.294551  0  -0.055158  -0.011042  0  3.882487  0
C  C72  1  0.83380317  0.34169788  0.38623419  1  -0.02631  0  -0.164336  -0.328574  0  3.912044  0
C  C73  1  0.80035386  0.25069900  0.36854893  1  1.590396  0  0.212643  0.640092  0  4.152531  0
C  C74  1  0.26677630  0.40018873  0.37197557  1  0.252248  0  -0.061988  -0.021883  0  3.90278  0
C  C75  1  0.38954390  0.38689215  0.25818264  1  -0.049351  0  -0.158784  -0.313502  0  3.886362  0
C  C76  1  0.51851377  0.30787421  0.27124509  1  1.573168  0  0.209697  0.621492  0  4.166496  0
C  C77  1  0.01196604  0.89915782  0.46449776  1  -0.008477  0  -0.088401  -0.119854  0  3.949299  0
C  C78  1  0.11600538  0.93218777  0.40481856  1  -0.05063  0  -0.011577  0.083072  0  3.984843  0
C  C79  1  0.10277350  0.03382028  0.44103615  1  -0.060345  0  -0.087663  -0.120165  0  3.969323  0
C  C80  1  0.24016478  0.85880884  0.30324118  1  0.31716  0  -0.0348  -0.129444  0  3.872852  0
C  C81  1  0.24367099  0.81227264  0.04183548  1  0.949508  0  0.153261  0.137822  0  3.956145  0
C  C82  1  0.12003289  0.95063531  0.17304664  1  0.940519  0  0.166207  0.070426  0  3.86781  0
C  C83  1  0.56215999  0.80874667  0.34537058  1  0.982747  0  0.151545  0.141878  0  3.976698  0
C  C84  1  0.45031000  0.99297545  0.37752208  1  0.994209  0  0.165199  0.083699  0  3.89103  0
C  C85  1  0.55774045  0.05205052  0.17086724  1  0.334196  0  -0.045987  -0.150029  0  3.888949  0
C  C86  1  0.52852014  0.02828730  0.07999744  1  -0.095296  0  -0.016876  0.088277  0  4.002702  0
C  C87  1  0.63149975  0.95241276  0.98537168  1  -0.064948  0  -0.088937  -0.123321  0  3.989114  0
C  C88  1  0.39698115  0.07547212  0.09462694  1  -0.000117  0  -0.096614  -0.140535  0  3.98735  0
C  C89  1  0.16625137  0.06691056  0.74399991  1  1.562614  0  0.221157  0.647417  0  4.108924  0
C  C90  1  0.08504864  0.19794535  0.76337222  1  -0.100984  0  -0.161945  -0.324701  0  3.874985  0
C  C91  1  0.12291457  0.26239283  0.64994321  1  0.274698  0  -0.061646  -0.020717  0  3.901491  0
C  C92  1  0.07726985  0.45960774  0.69020401  1  1.795629  0  0.347163  0.553787  0  4.160704  0
C  C93  1  0.92517400  0.43054072  0.64310940  1  1.786765  0  0.338584  0.543458  0  4.176827  0
C  C94  1  0.88811404  0.62946383  0.66925295  1  1.798387  0  0.344071  0.552181  0  4.163663  0
C  C95  1  0.04226292  0.65579831  0.71673050  1  0.29169  0  -0.055112  -0.011198  0  3.882663  0
C  C96  1  0.16621031  0.65829519  0.61374287  1  -0.024217  0  -0.164348  -0.328377  0  3.911948  0
C  C97  1  0.19969384  0.74928432  0.63139209  1  1.589548  0  0.212571  0.640061  0  4.15196  0
C  C98  1  0.73316003  0.59985957  0.62807801  1  0.254736  0  -0.06209  -0.021818  0  3.902723  0
C  C99  1  0.61039257  0.61311777  0.74186086  1  -0.04391  0  -0.158587  -0.313033  0  3.885841  0
C  C100  1  0.48141753  0.69210254  0.72878506  1  1.572551  0  0.209758  0.621467  0  4.166757  0
N  N101  1  0.96227084  0.61118793  0.33728474  1  -1.184395  0  -0.25004  -0.237073  0  3.612055  0
N  N102  1  0.14529860  0.44886401  0.35403082  1  -1.177692  0  -0.252921  -0.244926  0  3.628342  0
N  N103  1  0.00064916  0.42081587  0.30777626  1  -1.179958  0  -0.247364  -0.23748  0  3.612046  0
N  N104  1  0.53786602  0.10846410  0.56939272  1  -1.237383  0  -0.351654  -0.328377  0  3.557719  0
N  N105  1  0.38728587  0.14640729  0.75670918  1  -0.683426  0  -0.216624  -0.249639  0  3.077797  0
N  N106  1  0.45990478  0.02955363  0.73425169  1  -0.813221  0  -0.127577  0.176081  0  3.737065  0
N  N107  1  0.86412104  0.08116419  0.92750513  1  -1.189929  0  -0.322791  -0.283545  0  3.517045  0
N  N108  1  0.70476339  0.22279027  0.88116928  1  -0.637119  0  -0.221104  -0.260924  0  3.045984  0
N  N109  1  0.78506154  0.13468172  0.79853688  1  -0.837916  0  -0.127344  0.172021  0  3.725563  0
N  N110  1  0.03767244  0.38885160  0.66275507  1  -1.185564  0  -0.250167  -0.237155  0  3.611207  0
N  N111  1  0.85463720  0.55117994  0.64602466  1  -1.176084  0  -0.252974  -0.245253  0  3.628437  0
N  N112  1  0.99931603  0.57922271  0.69224681  1  -1.179319  0  -0.247419  -0.237894  0  3.612229  0
N  N113  1  0.46213999  0.89152486  0.43064042  1  -1.237427  0  -0.351678  -0.328511  0  3.558017  0
N  N114  1  0.61269288  0.85356423  0.24331900  1  -0.684959  0  -0.216612  -0.249585  0  3.077526  0
N  N115  1  0.54010317  0.97042049  0.26577506  1  -0.812962  0  -0.127645  0.17598  0  3.737161  0
N  N116  1  0.13595944  0.91874772  0.07244552  1  -1.189081  0  -0.322768  -0.284008  0  3.517203  0
N  N117  1  0.29526945  0.77712629  0.11884544  1  -0.638768  0  -0.221149  -0.260951  0  3.045987  0
N  N118  1  0.21499837  0.86527731  0.20142905  1  -0.835624  0  -0.127317  0.172044  0  3.725355  0
O  O119  1  0.68973008  0.25064724  0.44589207  1  -1.164753  0  -0.331315  -0.558625  0  2.271377  0
O  O120  1  0.87870491  0.17971443  0.28310179  1  -1.178519  0  -0.294161  -0.539187  0  2.201151  0
O  O121  1  0.50952343  0.22936931  0.35001703  1  -1.172114  0  -0.335652  -0.578769  0  2.335584  0
O  O122  1  0.62148603  0.32005781  0.20620408  1  -1.111291  0  -0.291962  -0.487788  0  2.033307  0
O  O123  1  0.83943334  0.00195704  0.17216010  1  -1.173099  0  -0.300741  -0.558338  0  2.30402  0
O  O124  1  0.75744937  0.96963685  0.36277405  1  -1.160305  0  -0.31496  -0.545043  0  2.328251  0
O  O125  1  0.82429137  0.58064173  0.29026903  1  -1.126339  0  -0.270479  -0.468253  0  2.126355  0
O  O126  1  0.10914446  0.63446252  0.37781542  1  -1.146594  0  -0.276424  -0.480008  0  2.157909  0
O  O127  1  0.17786520  0.26441358  0.33036217  1  -1.14876  0  -0.28002  -0.486871  0  2.155532  0
O  O128  1  0.03387695  0.85114015  0.95800611  1  -1.011027  0  -0.503578  -0.671314  0  1.691811  0
O  O129  1  0.31031742  0.74932732  0.55403922  1  -1.164963  0  -0.331417  -0.558858  0  2.271218  0
O  O130  1  0.12135999  0.82027758  0.71683430  1  -1.178332  0  -0.293975  -0.538989  0  2.20054  0
O  O131  1  0.49037782  0.77064683  0.65005361  1  -1.173642  0  -0.335662  -0.578851  0  2.335824  0
O  O132  1  0.37847221  0.67985860  0.79377807  1  -1.109727  0  -0.291972  -0.487774  0  2.033357  0
O  O133  1  0.16060989  0.99804471  0.82781095  1  -1.173354  0  -0.300751  -0.558278  0  2.304221  0
O  O134  1  0.24251177  0.03038757  0.63719958  1  -1.160391  0  -0.314897  -0.545048  0  2.327916  0
O  O135  1  0.17564463  0.41938743  0.70979245  1  -1.126583  0  -0.270249  -0.468169  0  2.126416  0
O  O136  1  0.89078469  0.36558748  0.62222871  1  -1.14734  0  -0.276505  -0.480135  0  2.157956  0
O  O137  1  0.82211700  0.73562839  0.66963777  1  -1.149059  0  -0.280015  -0.487  0  2.155382  0
O  O138  1  0.96618396  0.14880400  0.04194459  1  -1.010907  0  -0.503685  -0.67132  0  1.691432  0
