# generated using pymatgen
data_FeH14Pd(C2N)10
_symmetry_space_group_name_H-M   'P 1'
_cell_length_a   8.74275337
_cell_length_b   8.74274978
_cell_length_c   14.43508299
_cell_angle_alpha   82.52231791
_cell_angle_beta   82.52228639
_cell_angle_gamma   71.36861138
_symmetry_Int_Tables_number   1
_chemical_formula_structural   FeH14Pd(C2N)10
_chemical_formula_sum   'Fe2 H28 Pd2 C40 N20'
_cell_volume   1032.02532290
_cell_formula_units_Z   2
loop_
 _symmetry_equiv_pos_site_id
 _symmetry_equiv_pos_as_xyz
  1  'x, y, z'
loop_
 _atom_site_type_symbol
 _atom_site_label
 _atom_site_symmetry_multiplicity
 _atom_site_fract_x
 _atom_site_fract_y
 _atom_site_fract_z
 _atom_site_occupancy
 _atom_site_hle17_bader_spin_density
 _atom_site_hle17_ddec_charge
 _atom_site_hle17_ddec_spin_density
 _atom_site_hle17_ddec_sum_bond_order
 _atom_site_hle17_magmom
 _atom_site_hse06_10hf_bader_spin_density
 _atom_site_hse06_10hf_ddec_charge
 _atom_site_hse06_10hf_ddec_spin_density
 _atom_site_hse06_10hf_ddec_sum_bond_order
 _atom_site_hse06_10hf_magmom
 _atom_site_hse06_bader_spin_density
 _atom_site_hse06_ddec_charge
 _atom_site_hse06_ddec_spin_density
 _atom_site_hse06_ddec_sum_bond_order
 _atom_site_hse06_magmom
 _atom_site_pbe_bader_spin_density
 _atom_site_pbe_cm5_charge
 _atom_site_pbe_ddec_charge
 _atom_site_pbe_ddec_spin_density
 _atom_site_pbe_ddec_sum_bond_order
 _atom_site_pbe_magmom
Fe  Fe0  1  0.83889778  0.16110265  0.75000014  1  0  0.459179  0  3.454345  0  0  0.430182  0  3.939503  0  0  0.457332  0  3.900161  0  0  0.868946  0.420897  0  3.95661  0
Fe  Fe1  1  0.16109957  0.83890002  0.25000006  1  0  0.459395  0  3.454108  0  0  0.430322  0  3.939272  0  0  0.457424  0  3.899912  0  0  0.869005  0.421086  0  3.956362  0
H  H2  1  0.87096154  0.80848274  0.88260398  1  0  0.29709  0  0.946044  0  0  0.268161  0  1.021804  0  0  0.277365  0  1.014177  0  0  0.313157  0.261619  0  1.027338  0
H  H3  1  0.19151652  0.12903914  0.61739579  1  0  0.297129  0  0.94599  0  0  0.268191  0  1.021769  0  0  0.277405  0  1.014126  0  0  0.313168  0.261649  0  1.027307  0
H  H4  1  0.12903844  0.19151508  0.11739501  1  0  0.297102  0  0.946019  0  0  0.268139  0  1.021829  0  0  0.27737  0  1.014158  0  0  0.313163  0.261594  0  1.027367  0
H  H5  1  0.80848351  0.87096232  0.38260498  1  0  0.297041  0  0.94612  0  0  0.268139  0  1.021831  0  0  0.277341  0  1.014207  0  0  0.313159  0.261606  0  1.027352  0
H  H6  1  0.88308083  0.49261430  0.69272477  1  0  0.079461  0  0.963896  0  0  0.087287  0  1.029461  0  0  0.088396  0  1.028357  0  0  0.117934  0.086437  0  1.030448  0
H  H7  1  0.50738534  0.11692121  0.80727618  1  0  0.079458  0  0.96386  0  0  0.087275  0  1.029424  0  0  0.088383  0  1.028321  0  0  0.117932  0.086426  0  1.030412  0
H  H8  1  0.11691916  0.50738353  0.30727629  1  0  0.079471  0  0.963881  0  0  0.08729  0  1.029447  0  0  0.088399  0  1.028344  0  0  0.117941  0.08644  0  1.030435  0
H  H9  1  0.49261583  0.88308025  0.19272381  1  0  0.079477  0  0.963881  0  0  0.087296  0  1.029446  0  0  0.088405  0  1.028343  0  0  0.11794  0.086447  0  1.030436  0
H  H10  1  0.07349036  0.63168520  0.73074720  1  0  0.094514  0  0.980463  0  0  0.102067  0  1.045028  0  0  0.1043  0  1.0459  0  0  0.100294  0.10046  0  1.0446  0
H  H11  1  0.36831443  0.92651068  0.76925332  1  0  0.094501  0  0.980419  0  0  0.102055  0  1.044986  0  0  0.104287  0  1.045858  0  0  0.100272  0.100448  0  1.044559  0
H  H12  1  0.92651041  0.36831383  0.26925163  1  0  0.094488  0  0.980421  0  0  0.102043  0  1.044993  0  0  0.104276  0  1.045865  0  0  0.100287  0.100437  0  1.044566  0
H  H13  1  0.63168597  0.07348958  0.23074891  1  0  0.094495  0  0.980462  0  0  0.102048  0  1.045043  0  0  0.104282  0  1.045914  0  0  0.100298  0.100443  0  1.044615  0
H  H14  1  0.28290377  0.48449280  0.84295500  1  0  0.087217  0  0.95813  0  0  0.093944  0  1.026694  0  0  0.097079  0  1.022923  0  0  0.098686  0.091427  0  1.029781  0
H  H15  1  0.51550589  0.71709529  0.65704568  1  0  0.087206  0  0.958133  0  0  0.093929  0  1.026701  0  0  0.097063  0  1.022931  0  0  0.098673  0.091411  0  1.029789  0
H  H16  1  0.71709506  0.51550502  0.15704408  1  0  0.087211  0  0.9581  0  0  0.093941  0  1.026666  0  0  0.097076  0  1.022895  0  0  0.098676  0.091425  0  1.029755  0
H  H17  1  0.48449488  0.28290375  0.34295661  1  0  0.087211  0  0.958091  0  0  0.093939  0  1.02666  0  0  0.097074  0  1.022888  0  0  0.098678  0.091423  0  1.029747  0
H  H18  1  0.28800593  0.20617705  0.91362460  1  0  0.11351  0  0.948254  0  0  0.125275  0  1.003939  0  0  0.127733  0  1.004009  0  0  0.109721  0.12349  0  1.004086  0
H  H19  1  0.79382300  0.71199456  0.58637581  1  0  0.113494  0  0.948261  0  0  0.125281  0  1.003925  0  0  0.12774  0  1.003995  0  0  0.109701  0.123496  0  1.004071  0
H  H20  1  0.71199484  0.79382198  0.08637423  1  0  0.113517  0  0.948242  0  0  0.125301  0  1.00391  0  0  0.12776  0  1.00398  0  0  0.109724  0.123515  0  1.004059  0
H  H21  1  0.20617624  0.28800569  0.41362581  1  0  0.113532  0  0.948231  0  0  0.125306  0  1.003918  0  0  0.12778  0  1.003969  0  0  0.109725  0.123519  0  1.004065  0
H  H22  1  0.28256634  0.89865014  0.96331187  1  0  0.136712  0  0.953396  0  0  0.145933  0  1.01134  0  0  0.148235  0  1.011517  0  0  0.110752  0.144351  0  1.011268  0
H  H23  1  0.10134994  0.71743396  0.53668868  1  0  0.136723  0  0.953377  0  0  0.145931  0  1.011336  0  0  0.148231  0  1.011512  0  0  0.11074  0.144348  0  1.011263  0
H  H24  1  0.71743632  0.10134646  0.03668700  1  0  0.136669  0  0.953393  0  0  0.145915  0  1.011321  0  0  0.148218  0  1.011497  0  0  0.110751  0.144333  0  1.011251  0
H  H25  1  0.89865314  0.28256507  0.46331274  1  0  0.136681  0  0.953385  0  0  0.145923  0  1.011314  0  0  0.148222  0  1.011489  0  0  0.110761  0.144339  0  1.011241  0
H  H26  1  0.11546813  0.67744844  0.97494380  1  0  0.108454  0  0.945605  0  0  0.117725  0  1.009448  0  0  0.119343  0  1.008413  0  0  0.123749  0.116605  0  1.010126  0
H  H27  1  0.32255060  0.88453136  0.52505689  1  0  0.108466  0  0.945616  0  0  0.117736  0  1.009455  0  0  0.119354  0  1.008419  0  0  0.123754  0.116616  0  1.010135  0
H  H28  1  0.88453337  0.32254817  0.02505309  1  0  0.108463  0  0.945594  0  0  0.117732  0  1.00944  0  0  0.119349  0  1.008411  0  0  0.123745  0.116612  0  1.010121  0
H  H29  1  0.67745248  0.11546768  0.47494591  1  0  0.108488  0  0.945582  0  0  0.117755  0  1.009427  0  0  0.119372  0  1.008396  0  0  0.12376  0.116634  0  1.010109  0
Pd  Pd30  1  0.50000096  0.49999952  0.49999972  1  0  0.153265  0  3.526301  0  0  0.142764  0  4.080475  0  0  0.146642  0  4.04054  0  0  0.627749  0.142244  0  4.107139  0
Pd  Pd31  1  0.49999887  0.50000019  0.00000025  1  0  0.153253  0  3.526288  0  0  0.142752  0  4.080458  0  0  0.146633  0  4.040521  0  0  0.627733  0.142231  0  4.107126  0
C  C32  1  0.64800191  0.39304733  0.59857929  1  0  0.029163  0  3.447247  0  0  0.012842  0  3.792692  0  0  0.02465  0  3.79579  0  0  -0.025383  0.005036  0  3.790039  0
C  C33  1  0.60695070  0.35199947  0.90142048  1  0  0.029094  0  3.447024  0  0  0.012764  0  3.792487  0  0  0.024572  0  3.795584  0  0  -0.025414  0.004958  0  3.789838  0
C  C34  1  0.35200001  0.60695170  0.40141945  1  0  0.02908  0  3.44709  0  0  0.012769  0  3.792527  0  0  0.024576  0  3.79562  0  0  -0.02538  0.004959  0  3.78988  0
C  C35  1  0.39304813  0.64799835  0.09858068  1  0  0.029072  0  3.447105  0  0  0.012743  0  3.792568  0  0  0.02455  0  3.795662  0  0  -0.025396  0.004933  0  3.789922  0
C  C36  1  0.36631405  0.35906765  0.55456057  1  0  0.034189  0  3.546362  0  0  0.014455  0  3.898698  0  0  0.021546  0  3.905721  0  0  -0.039825  0.009004  0  3.893874  0
C  C37  1  0.64093306  0.63368680  0.94543908  1  0  0.034207  0  3.54636  0  0  0.014477  0  3.898697  0  0  0.021567  0  3.905716  0  0  -0.039811  0.009026  0  3.893874  0
C  C38  1  0.63368597  0.64093380  0.44543813  1  0  0.034241  0  3.546311  0  0  0.014517  0  3.898646  0  0  0.021607  0  3.905665  0  0  -0.039805  0.009065  0  3.893822  0
C  C39  1  0.35906618  0.36631345  0.05456116  1  0  0.034276  0  3.546248  0  0  0.014557  0  3.898558  0  0  0.021646  0  3.90558  0  0  -0.039779  0.009104  0  3.893735  0
C  C40  1  0.97677522  0.43296063  0.73953697  1  0  0.140277  0  3.645477  0  0  0.105618  0  3.904959  0  0  0.116647  0  3.918341  0  0  0.05163  0.097823  0  3.896546  0
C  C41  1  0.56704003  0.02322614  0.76046255  1  0  0.140294  0  3.645442  0  0  0.105678  0  3.904875  0  0  0.116707  0  3.918257  0  0  0.051665  0.097883  0  3.896466  0
C  C42  1  0.02322439  0.56703840  0.26046265  1  0  0.14032  0  3.645359  0  0  0.105686  0  3.904833  0  0  0.116713  0  3.918213  0  0  0.051671  0.09789  0  3.896421  0
C  C43  1  0.43296078  0.97677653  0.23953738  1  0  0.140255  0  3.645425  0  0  0.105627  0  3.904909  0  0  0.116655  0  3.918289  0  0  0.051657  0.097832  0  3.896499  0
C  C44  1  0.08240555  0.50945496  0.76199522  1  0  -0.10812  0  3.730597  0  0  -0.122314  0  3.983573  0  0  -0.129102  0  4.002975  0  0  -0.084356  -0.118013  0  3.971129  0
C  C45  1  0.49054459  0.91759465  0.73800535  1  0  -0.108141  0  3.730534  0  0  -0.122342  0  3.983493  0  0  -0.129128  0  4.002891  0  0  -0.084344  -0.118043  0  3.971055  0
C  C46  1  0.91759291  0.49054407  0.23800310  1  0  -0.108106  0  3.730629  0  0  -0.122306  0  3.983608  0  0  -0.129093  0  4.00301  0  0  -0.084362  -0.118006  0  3.971164  0
C  C47  1  0.50945775  0.08240682  0.26199663  1  0  -0.108065  0  3.730586  0  0  -0.122283  0  3.983581  0  0  -0.129072  0  4.002983  0  0  -0.084371  -0.117982  0  3.971137  0
C  C48  1  0.19829602  0.42791106  0.82392669  1  0  -0.00464  0  3.730848  0  0  -0.022077  0  3.978311  0  0  -0.01598  0  3.994351  0  0  -0.071538  -0.026638  0  3.968278  0
C  C49  1  0.57209005  0.80170397  0.67607373  1  0  -0.00463  0  3.730884  0  0  -0.022064  0  3.97835  0  0  -0.015964  0  3.994388  0  0  -0.07152  -0.026626  0  3.968319  0
C  C50  1  0.80170475  0.57208797  0.17607283  1  0  -0.004689  0  3.730954  0  0  -0.02213  0  3.978426  0  0  -0.016035  0  3.99447  0  0  -0.071561  -0.026693  0  3.968395  0
C  C51  1  0.42791187  0.19829506  0.32392708  1  0  -0.004677  0  3.730943  0  0  -0.022096  0  3.97842  0  0  -0.016001  0  3.994468  0  0  -0.071549  -0.026658  0  3.968385  0
C  C52  1  0.20406609  0.27177120  0.86199049  1  0  -0.140559  0  3.715268  0  0  -0.159408  0  3.961009  0  0  -0.167024  0  3.98106  0  0  -0.080544  -0.154484  0  3.948194  0
C  C53  1  0.72822796  0.79593368  0.63800938  1  0  -0.140531  0  3.715223  0  0  -0.159392  0  3.960965  0  0  -0.167011  0  3.981014  0  0  -0.080522  -0.154478  0  3.948138  0
C  C54  1  0.79593390  0.72822662  0.13800850  1  0  -0.14052  0  3.715213  0  0  -0.159375  0  3.960942  0  0  -0.166991  0  3.980992  0  0  -0.08052  -0.154453  0  3.948126  0
C  C55  1  0.27177359  0.20406657  0.36199068  1  0  -0.140534  0  3.715231  0  0  -0.159409  0  3.960986  0  0  -0.167038  0  3.981031  0  0  -0.080529  -0.154477  0  3.948176  0
C  C56  1  0.09646914  0.20077868  0.83568434  1  0  0.17636  0  3.760515  0  0  0.173364  0  4.006019  0  0  0.183602  0  4.021028  0  0  0.115996  0.165808  0  3.996843  0
C  C57  1  0.79922105  0.90353157  0.66431542  1  0  0.17638  0  3.760375  0  0  0.173363  0  4.005937  0  0  0.183608  0  4.020936  0  0  0.116039  0.165844  0  3.996714  0
C  C58  1  0.90353048  0.79922036  0.16431597  1  0  0.176338  0  3.76053  0  0  0.173337  0  4.006068  0  0  0.183576  0  4.021075  0  0  0.115978  0.165787  0  3.996883  0
C  C59  1  0.20077782  0.09646989  0.33568406  1  0  0.176303  0  3.760414  0  0  0.173318  0  4.005942  0  0  0.183557  0  4.020955  0  0  0.116001  0.165739  0  3.996797  0
C  C60  1  0.08655835  0.04167391  0.87117833  1  0  0.103122  0  3.805697  0  0  0.093707  0  4.067468  0  0  0.10034  0  4.082834  0  0  0.0936  0.089551  0  4.057367  0
C  C61  1  0.95832479  0.91344276  0.62882215  1  0  0.103157  0  3.805639  0  0  0.093746  0  4.06742  0  0  0.10037  0  4.08279  0  0  0.093572  0.089576  0  4.057309  0
C  C62  1  0.91344048  0.95832391  0.12882214  1  0  0.103095  0  3.805728  0  0  0.093653  0  4.067487  0  0  0.100278  0  4.082858  0  0  0.093564  0.089498  0  4.057385  0
C  C63  1  0.04167523  0.08655870  0.37117793  1  0  0.103155  0  3.805701  0  0  0.093735  0  4.067433  0  0  0.100354  0  4.082807  0  0  0.093581  0.089584  0  4.057338  0
C  C64  1  0.17554612  0.90982131  0.92948116  1  0  -0.221354  0  3.738204  0  0  -0.245408  0  4.005677  0  0  -0.253506  0  4.026197  0  0  -0.106476  -0.240088  0  3.991602  0
C  C65  1  0.09017853  0.82445227  0.57051958  1  0  -0.221339  0  3.738104  0  0  -0.24537  0  4.005555  0  0  -0.253465  0  4.026075  0  0  -0.10644  -0.24005  0  3.991479  0
C  C66  1  0.82445234  0.09017773  0.07051785  1  0  -0.221235  0  3.738005  0  0  -0.245308  0  4.005469  0  0  -0.253405  0  4.025991  0  0  -0.106457  -0.239989  0  3.991398  0
C  C67  1  0.90982071  0.17554798  0.42948135  1  0  -0.221313  0  3.738092  0  0  -0.245386  0  4.005559  0  0  -0.253479  0  4.026081  0  0  -0.106485  -0.240065  0  3.99148  0
C  C68  1  0.09376682  0.79589336  0.93596005  1  0  0.044352  0  3.687138  0  0  -0.005569  0  3.962921  0  0  0.00111  0  3.980107  0  0  0.017419  -0.009484  0  3.95076  0
C  C69  1  0.20410713  0.90623330  0.56404049  1  0  0.044276  0  3.687145  0  0  -0.005631  0  3.962923  0  0  0.001047  0  3.980111  0  0  0.017416  -0.009543  0  3.950761  0
C  C70  1  0.90623089  0.20410810  0.06403883  1  0  0.044234  0  3.687089  0  0  -0.005691  0  3.962891  0  0  0.000986  0  3.98008  0  0  0.017386  -0.009607  0  3.950732  0
C  C71  1  0.79589595  0.09376573  0.43596092  1  0  0.044259  0  3.687188  0  0  -0.005663  0  3.962986  0  0  0.001014  0  3.980173  0  0  0.017384  -0.009582  0  3.950833  0
N  N72  1  0.73049950  0.31574664  0.65652447  1  0  -0.316992  0  3.316372  0  0  -0.284504  0  3.621833  0  0  -0.29992  0  3.635185  0  0  -0.391431  -0.27532  0  3.611026  0
N  N73  1  0.68425376  0.26950094  0.84347447  1  0  -0.316935  0  3.31621  0  0  -0.284433  0  3.621656  0  0  -0.299857  0  3.635022  0  0  -0.391399  -0.27525  0  3.610853  0
N  N74  1  0.26949937  0.68425482  0.34347432  1  0  -0.316992  0  3.316293  0  0  -0.284499  0  3.621749  0  0  -0.299913  0  3.635105  0  0  -0.391466  -0.27532  0  3.610947  0
N  N75  1  0.31574433  0.73049931  0.15652586  1  0  -0.316968  0  3.316226  0  0  -0.284461  0  3.621672  0  0  -0.299874  0  3.635027  0  0  -0.391433  -0.275282  0  3.61087  0
N  N76  1  0.29040948  0.27324794  0.58744139  1  0  -0.422687  0  2.882836  0  0  -0.379801  0  3.135375  0  0  -0.394124  0  3.152046  0  0  -0.355078  -0.369595  0  3.123996  0
N  N77  1  0.72675194  0.70958874  0.91255853  1  0  -0.422679  0  2.882882  0  0  -0.379797  0  3.135408  0  0  -0.394115  0  3.152076  0  0  -0.355088  -0.369592  0  3.124029  0
N  N78  1  0.70959054  0.72675352  0.41255869  1  0  -0.4227  0  2.882843  0  0  -0.379841  0  3.135382  0  0  -0.394157  0  3.15205  0  0  -0.355098  -0.36964  0  3.124002  0
N  N79  1  0.27324611  0.29040787  0.08744140  1  0  -0.422763  0  2.882781  0  0  -0.379876  0  3.135323  0  0  -0.394205  0  3.151988  0  0  -0.355123  -0.36967  0  3.123946  0
N  N80  1  0.98328550  0.28097540  0.77438568  1  0  -0.241151  0  3.312583  0  0  -0.195868  0  3.582468  0  0  -0.215884  0  3.598889  0  0  -0.327469  -0.183399  0  3.570863  0
N  N81  1  0.71902445  0.01671633  0.72561384  1  0  -0.241189  0  3.312572  0  0  -0.195923  0  3.582469  0  0  -0.215942  0  3.59889  0  0  -0.32754  -0.183466  0  3.570856  0
N  N82  1  0.01671143  0.71902485  0.22561406  1  0  -0.241147  0  3.312519  0  0  -0.195894  0  3.582435  0  0  -0.215901  0  3.598843  0  0  -0.327462  -0.183432  0  3.570829  0
N  N83  1  0.28097635  0.98328634  0.27438539  1  0  -0.241141  0  3.31251  0  0  -0.195888  0  3.582438  0  0  -0.215894  0  3.598842  0  0  -0.32748  -0.183419  0  3.570845  0
N  N84  1  0.95997454  0.00724473  0.84381287  1  0  -0.151527  0  3.287336  0  0  -0.133995  0  3.582093  0  0  -0.147265  0  3.599382  0  0  -0.257491  -0.126013  0  3.569575  0
N  N85  1  0.99275557  0.04002547  0.65618740  1  0  -0.151606  0  3.287334  0  0  -0.134072  0  3.582108  0  0  -0.14733  0  3.599387  0  0  -0.257494  -0.126075  0  3.569579  0
N  N86  1  0.04002355  0.99275552  0.15618677  1  0  -0.151725  0  3.287502  0  0  -0.134077  0  3.582148  0  0  -0.147329  0  3.59942  0  0  -0.257507  -0.126103  0  3.569636  0
N  N87  1  0.00724330  0.95997600  0.34381346  1  0  -0.151706  0  3.287453  0  0  -0.134102  0  3.582153  0  0  -0.147345  0  3.599411  0  0  -0.257533  -0.12612  0  3.569635  0
N  N88  1  0.96598064  0.85786165  0.88322107  1  0  -0.143609  0  3.4199  0  0  -0.077905  0  3.658288  0  0  -0.089529  0  3.677045  0  0  -0.261683  -0.070146  0  3.645762  0
N  N89  1  0.14213920  0.03401909  0.61677933  1  0  -0.143538  0  3.419793  0  0  -0.07786  0  3.658236  0  0  -0.089494  0  3.676982  0  0  -0.261699  -0.070109  0  3.645712  0
N  N90  1  0.03401898  0.14213739  0.11677785  1  0  -0.143424  0  3.41982  0  0  -0.077739  0  3.658214  0  0  -0.08938  0  3.676939  0  0  -0.261648  -0.069977  0  3.645694  0
N  N91  1  0.85786198  0.96598237  0.38322204  1  0  -0.143442  0  3.419987  0  0  -0.077773  0  3.658355  0  0  -0.089399  0  3.677105  0  0  -0.261644  -0.070023  0  3.645821  0
