# generated using pymatgen
data_Mn2H6C10N4ClO5
_symmetry_space_group_name_H-M   'P 1'
_cell_length_a   6.46910346
_cell_length_b   7.29566806
_cell_length_c   12.89284164
_cell_angle_alpha   81.19765256
_cell_angle_beta   87.24063637
_cell_angle_gamma   74.30953646
_symmetry_Int_Tables_number   1
_chemical_formula_structural   Mn2H6C10N4ClO5
_chemical_formula_sum   'Mn4 H12 C20 N8 Cl2 O10'
_cell_volume   578.90724649
_cell_formula_units_Z   2
loop_
 _symmetry_equiv_pos_site_id
 _symmetry_equiv_pos_as_xyz
  1  'x, y, z'
loop_
 _atom_site_type_symbol
 _atom_site_label
 _atom_site_symmetry_multiplicity
 _atom_site_fract_x
 _atom_site_fract_y
 _atom_site_fract_z
 _atom_site_occupancy
 _atom_site_pbe_cm5_charge
 _atom_site_pbe_ddec_charge
 _atom_site_pbe_ddec_spin_density
 _atom_site_pbe_ddec_sum_bond_order
 _atom_site_pbe_magmom
Mn  Mn0  1  0.50024603  0.50213851  0.00023796  1  0.764618  1.088606  3.349583  3.146509  3.224
Mn  Mn1  1  0.81489079  0.35841456  0.78083702  1  0.65333  1.010467  -3.842934  2.967241  -3.618
Mn  Mn2  1  0.18560976  0.64266176  0.22028227  1  0.643346  1.004706  -3.929505  2.913068  -3.707
Mn  Mn3  1  0.99962579  0.99203451  0.49599095  1  0.701573  0.821699  3.254763  3.138404  3.158
H  H4  1  0.30122023  0.86646456  0.82057580  1  0.130196  0.106801  -0.00061  0.983638  0.0
H  H5  1  0.69997437  0.13768959  0.17831032  1  0.129791  0.105755  -0.000571  0.984996  0.0
H  H6  1  0.44939478  0.12840524  0.72506532  1  0.115281  0.09084  -0.00093  1.035834  0.0
H  H7  1  0.55223507  0.87641937  0.27513079  1  0.114141  0.08925  -0.000694  1.036972  0.0
H  H8  1  0.96404947  0.96847720  0.93066655  1  0.127455  0.100253  -0.000189  1.030683  0.0
H  H9  1  0.03665694  0.03379122  0.07020914  1  0.12716  0.099743  -0.000169  1.032424  0.0
H  H10  1  0.77269534  0.56096911  0.54521527  1  0.111749  0.092358  -0.000554  1.035498  0.001
H  H11  1  0.22814364  0.43092655  0.45482863  1  0.112886  0.093722  -0.00061  1.031473  0.001
H  H12  1  0.49607898  0.83548288  0.45100283  1  0.124396  0.107228  -0.000874  1.003867  0.0
H  H13  1  0.50304533  0.14772513  0.54322966  1  0.125376  0.10928  -0.000862  1.000316  0.0
H  H14  1  0.31687850  0.45903615  0.77135745  1  0.130879  0.113731  -0.000159  1.044948  0.0
H  H15  1  0.68432454  0.54779553  0.23264340  1  0.130905  0.112515  -4.6e-05  1.040704  0.0
C  C16  1  0.44872263  0.88996050  0.84630986  1  0.071535  0.069894  -0.000545  3.864849  0.0
C  C17  1  0.55175052  0.11428772  0.15351761  1  0.071207  0.07052  -0.00038  3.8673  0.0
C  C18  1  0.53387715  0.03417927  0.79246305  1  0.066387  0.068182  -0.003987  3.87831  -0.003
C  C19  1  0.46698620  0.97023642  0.20783349  1  0.066373  0.069934  -0.003086  3.883808  -0.002
C  C20  1  0.81420231  0.94723474  0.90696215  1  0.071579  0.055584  -0.003632  3.866698  -0.003
C  C21  1  0.18586225  0.05619717  0.09397402  1  0.07208  0.056142  -0.003563  3.867544  -0.003
C  C22  1  0.72811944  0.80586344  0.96284553  1  0.13171  0.068048  -0.001977  3.929452  -0.001
C  C23  1  0.27072822  0.19834513  0.03800672  1  0.129786  0.067517  -0.001432  3.931648  0.0
C  C24  1  0.83500001  0.67477573  0.05763279  1  0.235141  0.559234  -0.000707  4.180275  0.0
C  C25  1  0.16296169  0.32973657  0.94349625  1  0.234962  0.557791  0.000566  4.18319  0.001
C  C26  1  0.60884730  0.59920875  0.57513041  1  0.045523  0.047638  -0.051534  3.925052  -0.033
C  C27  1  0.39176680  0.39431162  0.42455389  1  0.045573  0.046306  -0.054076  3.928992  -0.035
C  C28  1  0.45559332  0.75011809  0.52184515  1  0.04816  0.048855  -0.028266  3.888737  -0.013
C  C29  1  0.54420436  0.23876849  0.47487801  1  0.04945  0.0501  -0.024746  3.885077  -0.01
C  C30  1  0.20033498  0.68133552  0.64320405  1  0.092949  0.007194  -0.046089  3.981443  -0.028
C  C31  1  0.79991064  0.31583150  0.35633746  1  0.093461  0.007305  -0.042137  3.979579  -0.025
C  C32  1  0.35799535  0.53685148  0.69816396  1  0.067222  0.062333  -0.008301  3.901372  -0.001
C  C33  1  0.64283661  0.46474583  0.30392395  1  0.065882  0.064318  -0.009404  3.901978  -0.002
C  C34  1  0.96977731  0.72932980  0.67083058  1  0.222253  0.535986  -0.022715  4.174776  -0.014
C  C35  1  0.03052975  0.26915999  0.32856592  1  0.223135  0.53547  -0.02105  4.177369  -0.014
N  N36  1  0.54636078  0.77536562  0.93121440  1  -0.290279  -0.184583  0.005002  3.491258  -0.009
N  N37  1  0.45270045  0.22928614  0.06906213  1  -0.288724  -0.186284  0.005945  3.493475  -0.008
N  N38  1  0.71782216  0.06220667  0.82196146  1  -0.278766  -0.179286  -0.039846  3.42486  -0.029
N  N39  1  0.28280464  0.94175008  0.17900819  1  -0.277561  -0.180451  -0.038275  3.420967  -0.028
N  N40  1  0.56472798  0.49388489  0.66597456  1  -0.321089  -0.233876  -0.0829  3.488075  -0.063
N  N41  1  0.43622623  0.50633564  0.33636849  1  -0.321276  -0.240165  -0.083716  3.489713  -0.062
N  N42  1  0.24881420  0.79536087  0.55528921  1  -0.361751  -0.227396  -0.094539  3.604983  -0.107
N  N43  1  0.75078970  0.19566591  0.44125546  1  -0.358054  -0.22302  -0.094544  3.602278  -0.107
Cl  Cl44  1  0.05172642  0.23382206  0.64421728  1  -0.235873  -0.510647  0.007319  1.271167  0.024
Cl  Cl45  1  0.94512507  0.76672825  0.35896403  1  -0.223487  -0.501721  0.016924  1.330202  0.03
O  O46  1  0.80525100  0.50886973  0.07411004  1  -0.270118  -0.487187  0.027226  2.270853  0.018
O  O47  1  0.19358884  0.49521168  0.92674045  1  -0.26914  -0.485615  0.027582  2.272438  0.019
O  O48  1  0.94016795  0.74792379  0.11378851  1  -0.296416  -0.526832  -0.022046  2.403431  -0.007
O  O49  1  0.05684493  0.25651615  0.88786488  1  -0.293369  -0.520646  -0.020498  2.412876  -0.005
O  O50  1  0.85273977  0.87507069  0.60752318  1  -0.309826  -0.488982  0.008461  2.387501  -0.012
O  O51  1  0.14760397  0.11952718  0.38921025  1  -0.309698  -0.48971  0.009363  2.391205  -0.011
O  O52  1  0.89148251  0.64037789  0.74606249  1  -0.275732  -0.49222  -0.037183  2.378039  -0.023
O  O53  1  0.10825693  0.36265476  0.25510940  1  -0.275411  -0.492295  -0.036806  2.387553  -0.022
O  O54  1  0.62879612  0.42194770  0.88304425  1  -0.544062  -0.768717  -0.032863  2.181152  -0.032
O  O55  1  0.37310314  0.58259407  0.11717977  1  -0.546816  -0.77567  -0.023187  2.176451  -0.02
