# generated using pymatgen
data_CuAg2H15C18(SN2)3
_symmetry_space_group_name_H-M   'P 1'
_cell_length_a   8.23466617
_cell_length_b   8.94581133
_cell_length_c   14.59961158
_cell_angle_alpha   90.00107042
_cell_angle_beta   89.99954548
_cell_angle_gamma   93.16384939
_symmetry_Int_Tables_number   1
_chemical_formula_structural   CuAg2H15C18(SN2)3
_chemical_formula_sum   'Cu2 Ag4 H30 C36 S6 N12'
_cell_volume   1073.85234746
_cell_formula_units_Z   2
loop_
 _symmetry_equiv_pos_site_id
 _symmetry_equiv_pos_as_xyz
  1  'x, y, z'
loop_
 _atom_site_type_symbol
 _atom_site_label
 _atom_site_symmetry_multiplicity
 _atom_site_fract_x
 _atom_site_fract_y
 _atom_site_fract_z
 _atom_site_occupancy
 _atom_site_hle17_bader_spin_density
 _atom_site_hle17_ddec_charge
 _atom_site_hle17_ddec_spin_density
 _atom_site_hle17_ddec_sum_bond_order
 _atom_site_hle17_magmom
 _atom_site_hse06_10hf_bader_spin_density
 _atom_site_hse06_10hf_ddec_charge
 _atom_site_hse06_10hf_ddec_spin_density
 _atom_site_hse06_10hf_ddec_sum_bond_order
 _atom_site_hse06_10hf_magmom
 _atom_site_hse06_bader_spin_density
 _atom_site_hse06_ddec_charge
 _atom_site_hse06_ddec_spin_density
 _atom_site_hse06_ddec_sum_bond_order
 _atom_site_hse06_magmom
 _atom_site_pbe_bader_spin_density
 _atom_site_pbe_cm5_charge
 _atom_site_pbe_ddec_charge
 _atom_site_pbe_ddec_spin_density
 _atom_site_pbe_ddec_sum_bond_order
 _atom_site_pbe_magmom
Cu  Cu0  1  0.86039458  0.32391665  0.25270801  1  0  0.59056  0  2.201728  0  0  0.495426  0  2.739945  0  0  0.480587  0  2.697427  0  0  0.629459  0.510136  0  2.764543  0
Cu  Cu1  1  0.36038820  0.32391885  0.74729559  1  0  0.590529  0  2.201956  0  0  0.495403  0  2.740205  0  0  0.480482  0  2.69768  0  0  0.62942  0.510071  0  2.764747  0
Ag  Ag2  1  0.38049130  0.64484241  0.07727820  1  0  0.355468  0  1.844236  0  0  0.244588  0  2.333892  0  0  0.260656  0  2.296552  0  0  0.355239  0.234102  0  2.358915  0
Ag  Ag3  1  0.88048716  0.64483658  0.92272764  1  0  0.355462  0  1.844263  0  0  0.244591  0  2.333866  0  0  0.260636  0  2.296569  0  0  0.355252  0.234099  0  2.358902  0
Ag  Ag4  1  0.38096227  0.66408012  0.41524415  1  0  0.35261  0  1.836707  0  0  0.237366  0  2.333555  0  0  0.254124  0  2.29585  0  0  0.350418  0.226415  0  2.358779  0
Ag  Ag5  1  0.88095347  0.66408321  0.58475916  1  0  0.352618  0  1.836668  0  0  0.237368  0  2.333526  0  0  0.254125  0  2.295823  0  0  0.350428  0.22642  0  2.358745  0
H  H6  1  0.21510034  0.88382521  0.19441183  1  0  0.065828  0  0.960935  0  0  0.071215  0  1.033866  0  0  0.072975  0  1.033209  0  0  0.105258  0.069938  0  1.034351  0
H  H7  1  0.71510600  0.88381372  0.80558449  1  0  0.065722  0  0.96099  0  0  0.071109  0  1.033909  0  0  0.072874  0  1.033243  0  0  0.105166  0.069828  0  1.03439  0
H  H8  1  0.18044758  0.16106186  0.20283263  1  0  0.107824  0  0.979864  0  0  0.115153  0  1.044254  0  0  0.11776  0  1.044361  0  0  0.104055  0.113239  0  1.044366  0
H  H9  1  0.68046191  0.16105131  0.79716374  1  0  0.107837  0  0.979842  0  0  0.11515  0  1.044256  0  0  0.11776  0  1.044353  0  0  0.104077  0.113241  0  1.044379  0
H  H10  1  0.32686395  0.32822795  0.08917544  1  0  0.080296  0  0.991839  0  0  0.085708  0  1.066227  0  0  0.088173  0  1.064401  0  0  0.090464  0.083842  0  1.067607  0
H  H11  1  0.82687813  0.32822078  0.91082219  1  0  0.080334  0  0.991829  0  0  0.085759  0  1.066205  0  0  0.088218  0  1.064382  0  0  0.090488  0.083891  0  1.067598  0
H  H12  1  0.49754360  0.21321661  0.96874779  1  0  0.107475  0  0.964137  0  0  0.114919  0  1.029212  0  0  0.117511  0  1.029572  0  0  0.103286  0.112976  0  1.029221  0
H  H13  1  0.99754691  0.21321452  0.03125185  1  0  0.107533  0  0.964057  0  0  0.114978  0  1.029114  0  0  0.11756  0  1.029485  0  0  0.10331  0.113039  0  1.029109  0
H  H14  1  0.51984359  0.93470265  0.96948685  1  0  0.066229  0  0.960077  0  0  0.074547  0  1.027255  0  0  0.076218  0  1.026936  0  0  0.106036  0.073286  0  1.027594  0
H  H15  1  0.01984298  0.93469810  0.03051026  1  0  0.066195  0  0.960094  0  0  0.074533  0  1.027264  0  0  0.076203  0  1.026945  0  0  0.106037  0.073275  0  1.027594  0
H  H16  1  0.52839845  0.94216467  0.30500344  1  0  0.065132  0  0.967037  0  0  0.073294  0  1.035445  0  0  0.074631  0  1.035658  0  0  0.105164  0.072261  0  1.035464  0
H  H17  1  0.02839277  0.94216643  0.69499714  1  0  0.065156  0  0.966895  0  0  0.073337  0  1.035294  0  0  0.074674  0  1.035508  0  0  0.105187  0.072309  0  1.035312  0
H  H18  1  0.52186094  0.22197285  0.29909504  1  0  0.111151  0  0.957984  0  0  0.11485  0  1.028911  0  0  0.119015  0  1.026569  0  0  0.10543  0.111831  0  1.030649  0
H  H19  1  0.02185646  0.22197591  0.70090481  1  0  0.111125  0  0.958035  0  0  0.11483  0  1.028943  0  0  0.118988  0  1.026606  0  0  0.105432  0.11181  0  1.030691  0
H  H20  1  0.34516781  0.34980158  0.41165259  1  0  0.080778  0  0.99177  0  0  0.085705  0  1.067013  0  0  0.088179  0  1.065307  0  0  0.089492  0.083814  0  1.068351  0
H  H21  1  0.84517088  0.34980040  0.58834863  1  0  0.08076  0  0.991707  0  0  0.08569  0  1.066967  0  0  0.088165  0  1.065259  0  0  0.089484  0.0838  0  1.068301  0
H  H22  1  0.18363347  0.19244285  0.52521467  1  0  0.103546  0  0.984266  0  0  0.112993  0  1.044611  0  0  0.114618  0  1.046663  0  0  0.10264  0.111784  0  1.043397  0
H  H23  1  0.68363803  0.19244053  0.47478479  1  0  0.103545  0  0.984307  0  0  0.112978  0  1.044654  0  0  0.114603  0  1.046706  0  0  0.102649  0.111769  0  1.043436  0
H  H24  1  0.20159076  0.91366765  0.52048715  1  0  0.062672  0  0.969388  0  0  0.065639  0  1.047691  0  0  0.067861  0  1.046367  0  0  0.10259  0.063991  0  1.048712  0
H  H25  1  0.70158913  0.91366431  0.47951232  1  0  0.062653  0  0.969473  0  0  0.065664  0  1.04772  0  0  0.067886  0  1.046398  0  0  0.102608  0.064014  0  1.048738  0
H  H26  1  0.70216431  0.07852825  0.13932380  1  0  0.075095  0  0.962407  0  0  0.081458  0  1.030261  0  0  0.083437  0  1.029921  0  0  0.108828  0.079947  0  1.030703  0
H  H27  1  0.20216125  0.07853049  0.86067495  1  0  0.075153  0  0.962402  0  0  0.081506  0  1.030244  0  0  0.083486  0  1.029905  0  0  0.108848  0.079991  0  1.030685  0
H  H28  1  0.69424131  0.79837653  0.12880371  1  0  0.092134  0  0.98189  0  0  0.093222  0  1.062653  0  0  0.097083  0  1.060421  0  0  0.092856  0.090375  0  1.064496  0
H  H29  1  0.19424553  0.79838137  0.87119104  1  0  0.09213  0  0.981976  0  0  0.093207  0  1.062723  0  0  0.097067  0  1.060496  0  0  0.092865  0.090372  0  1.064553  0
H  H30  1  0.84953966  0.65468083  0.24533645  1  0  0.108458  0  0.946351  0  0  0.117555  0  1.00571  0  0  0.12072  0  1.003899  0  0  0.107907  0.11509  0  1.007242  0
H  H31  1  0.34955258  0.65468227  0.75465936  1  0  0.108452  0  0.946208  0  0  0.117552  0  1.005578  0  0  0.120715  0  1.003775  0  0  0.107929  0.115082  0  1.007111  0
H  H32  1  0.00771056  0.80166485  0.36630613  1  0  0.102042  0  0.957086  0  0  0.111027  0  1.022218  0  0  0.11405  0  1.0212  0  0  0.100199  0.108766  0  1.023214  0
H  H33  1  0.50772055  0.80166843  0.63369019  1  0  0.101999  0  0.957174  0  0  0.111001  0  1.022299  0  0  0.114021  0  1.021282  0  0  0.100202  0.108741  0  1.023299  0
H  H34  1  0.00378905  0.08059653  0.36573964  1  0  0.071328  0  0.95983  0  0  0.078162  0  1.028314  0  0  0.080773  0  1.026859  0  0  0.10904  0.076167  0  1.029567  0
H  H35  1  0.50379169  0.08059894  0.63426072  1  0  0.0713  0  0.959894  0  0  0.078167  0  1.028347  0  0  0.080757  0  1.026912  0  0  0.109041  0.076175  0  1.029604  0
C  C36  1  0.69105648  0.44263043  0.07989626  1  0  0.263128  0  3.968091  0  0  0.254486  0  4.257859  0  0  0.268427  0  4.274269  0  0  0.135419  0.245185  0  4.24675  0
C  C37  1  0.19105017  0.44263217  0.92011016  1  0  0.263204  0  3.967935  0  0  0.254553  0  4.257708  0  0  0.26849  0  4.27411  0  0  0.135416  0.245253  0  4.246568  0
C  C38  1  0.20905388  0.47249120  0.24985547  1  0  0.26249  0  3.983083  0  0  0.254853  0  4.270108  0  0  0.268935  0  4.286053  0  0  0.132673  0.245476  0  4.259229  0
C  C39  1  0.70905252  0.47249367  0.75014641  1  0  0.262529  0  3.983021  0  0  0.254892  0  4.270041  0  0  0.268975  0  4.285982  0  0  0.132661  0.245518  0  4.259155  0
C  C40  1  0.70068276  0.47644625  0.41786844  1  0  0.262727  0  3.976917  0  0  0.253589  0  4.266084  0  0  0.267696  0  4.282159  0  0  0.134172  0.244193  0  4.2551  0
C  C41  1  0.20067983  0.47644803  0.58213422  1  0  0.262668  0  3.976709  0  0  0.253526  0  4.265893  0  0  0.267632  0  4.281963  0  0  0.134115  0.244119  0  4.254914  0
C  C42  1  0.27518226  0.96093479  0.14555673  1  0  0.100675  0  3.735714  0  0  0.074728  0  3.98206  0  0  0.080524  0  4.000835  0  0  0.034378  0.070993  0  3.969302  0
C  C43  1  0.77518652  0.96093258  0.85444021  1  0  0.100861  0  3.735606  0  0  0.074921  0  3.98192  0  0  0.080715  0  4.000703  0  0  0.034545  0.0712  0  3.969153  0
C  C44  1  0.25684411  0.11445096  0.15040271  1  0  -0.120291  0  3.727438  0  0  -0.126442  0  3.962649  0  0  -0.133676  0  3.986256  0  0  -0.084112  -0.121787  0  3.946866  0
C  C45  1  0.75685052  0.11444191  0.84959278  1  0  -0.120375  0  3.727661  0  0  -0.126522  0  3.962879  0  0  -0.133757  0  3.986492  0  0  -0.08417  -0.121878  0  3.94712  0
C  C46  1  0.33816738  0.20751906  0.08679315  1  0  0.008423  0  3.695979  0  0  -0.005923  0  3.931233  0  0  -0.004316  0  3.952997  0  0  -0.064301  -0.006751  0  3.916566  0
C  C47  1  0.83817307  0.20751302  0.91320304  1  0  0.008477  0  3.695916  0  0  -0.005886  0  3.931191  0  0  -0.004271  0  3.952954  0  0  -0.06433  -0.00672  0  3.916539  0
C  C48  1  0.43381995  0.14387803  0.02005517  1  0  -0.115005  0  3.727569  0  0  -0.124396  0  3.968421  0  0  -0.131821  0  3.992503  0  0  -0.082876  -0.119608  0  3.952369  0
C  C49  1  0.93382108  0.14387170  0.97994327  1  0  -0.115176  0  3.727416  0  0  -0.124555  0  3.968323  0  0  -0.131971  0  3.992403  0  0  -0.082871  -0.11976  0  3.952247  0
C  C50  1  0.44575047  0.98935665  0.02005591  1  0  0.104812  0  3.728533  0  0  0.079973  0  3.972774  0  0  0.085429  0  3.992167  0  0  0.036897  0.076512  0  3.959543  0
C  C51  1  0.94574912  0.98934918  0.97994195  1  0  0.10492  0  3.728535  0  0  0.080033  0  3.972784  0  0  0.085495  0  3.992169  0  0  0.036909  0.076567  0  3.959544  0
C  C52  1  0.45330478  0.00249168  0.35241795  1  0  0.107294  0  3.722014  0  0  0.08119  0  3.966297  0  0  0.087009  0  3.985485  0  0  0.036951  0.077453  0  3.953238  0
C  C53  1  0.95329869  0.00249331  0.64758083  1  0  0.107264  0  3.721904  0  0  0.081146  0  3.966191  0  0  0.086963  0  3.98538  0  0  0.036946  0.077404  0  3.953144  0
C  C54  1  0.44883175  0.15774998  0.34908863  1  0  -0.114899  0  3.72547  0  0  -0.121931  0  3.965236  0  0  -0.129115  0  3.987827  0  0  -0.082006  -0.117284  0  3.950225  0
C  C55  1  0.94883176  0.15775287  0.65091128  1  0  -0.114897  0  3.725444  0  0  -0.121929  0  3.965224  0  0  -0.129103  0  3.987822  0  0  -0.082017  -0.117289  0  3.950216  0
C  C56  1  0.35093375  0.22840848  0.41178887  1  0  0.007557  0  3.695843  0  0  -0.008253  0  3.933004  0  0  -0.006546  0  3.954298  0  0  -0.064332  -0.009172  0  3.918708  0
C  C57  1  0.85093439  0.22840727  0.58820887  1  0  0.007577  0  3.695808  0  0  -0.008247  0  3.932961  0  0  -0.006543  0  3.954255  0  0  -0.064341  -0.009169  0  3.918667  0
C  C58  1  0.26041776  0.14131943  0.47482587  1  0  -0.118575  0  3.726757  0  0  -0.124415  0  3.961017  0  0  -0.131017  0  3.983711  0  0  -0.084453  -0.120232  0  3.94588  0
C  C59  1  0.76042055  0.14131972  0.52517402  1  0  -0.118539  0  3.726822  0  0  -0.124361  0  3.961096  0  0  -0.130961  0  3.983789  0  0  -0.084435  -0.120175  0  3.945951  0
C  C60  1  0.27096461  0.98667004  0.47304505  1  0  0.10074  0  3.738073  0  0  0.074981  0  3.983855  0  0  0.080105  0  4.003594  0  0  0.034473  0.071735  0  3.970414  0
C  C61  1  0.77096235  0.98666699  0.52695289  1  0  0.100674  0  3.737971  0  0  0.074878  0  3.983772  0  0  0.080002  0  4.003509  0  0  0.034415  0.071637  0  3.970327  0
C  C62  1  0.76804961  0.01208313  0.18809785  1  0  0.110255  0  3.709292  0  0  0.084345  0  3.95631  0  0  0.090239  0  3.972769  0  0  0.037452  0.080565  0  3.945493  0
C  C63  1  0.26804853  0.01208728  0.81190188  1  0  0.11027  0  3.709223  0  0  0.08439  0  3.956202  0  0  0.090287  0  3.972651  0  0  0.037475  0.080623  0  3.945378  0
C  C64  1  0.76428804  0.85631266  0.18281697  1  0  -0.129715  0  3.748428  0  0  -0.136332  0  3.992601  0  0  -0.144346  0  4.01513  0  0  -0.090588  -0.13128  0  3.977818  0
C  C65  1  0.26429049  0.85631588  0.81718018  1  0  -0.129771  0  3.748464  0  0  -0.136384  0  3.992657  0  0  -0.144398  0  4.015187  0  0  -0.090581  -0.131348  0  3.97786  0
C  C66  1  0.85051818  0.77668453  0.24723309  1  0  -0.008167  0  3.695253  0  0  -0.019983  0  3.923956  0  0  -0.017129  0  3.944408  0  0  -0.067867  -0.021805  0  3.910427  0
C  C67  1  0.35052655  0.77669148  0.75276275  1  0  -0.008047  0  3.695117  0  0  -0.019869  0  3.923834  0  0  -0.017016  0  3.944283  0  0  -0.067841  -0.021683  0  3.910289  0
C  C68  1  0.93806615  0.85793945  0.31440364  1  0  -0.127132  0  3.74267  0  0  -0.13416  0  3.984344  0  0  -0.142106  0  4.007798  0  0  -0.086992  -0.129132  0  3.968848  0
C  C69  1  0.43807644  0.85794217  0.68559274  1  0  -0.127182  0  3.742688  0  0  -0.134228  0  3.984378  0  0  -0.14217  0  4.007826  0  0  -0.087059  -0.129199  0  3.968882  0
C  C70  1  0.93615860  0.01360988  0.31466865  1  0  0.110712  0  3.712798  0  0  0.083829  0  3.962353  0  0  0.089629  0  3.978751  0  0  0.037804  0.080095  0  3.951577  0
C  C71  1  0.43616292  0.01361478  0.68533033  1  0  0.110737  0  3.712824  0  0  0.083815  0  3.962398  0  0  0.089636  0  3.978794  0  0  0.037783  0.080075  0  3.951636  0
S  S72  1  0.61265285  0.53127710  0.99271096  1  0  -0.295566  0  2.55634  0  0  -0.242315  0  2.975457  0  0  -0.255116  0  2.957838  0  0  -0.158597  -0.233481  0  2.987145  0
S  S73  1  0.11264718  0.53128638  0.00729889  1  0  -0.295642  0  2.556233  0  0  -0.242413  0  2.975391  0  0  -0.25521  0  2.957768  0  0  -0.158604  -0.233577  0  2.987071  0
S  S74  1  0.38796964  0.56415113  0.24913297  1  0  -0.29916  0  2.487586  0  0  -0.248034  0  2.896345  0  0  -0.261594  0  2.881354  0  0  -0.164058  -0.238646  0  2.906252  0
S  S75  1  0.88795959  0.56415021  0.75086847  1  0  -0.299113  0  2.487835  0  0  -0.247991  0  2.896583  0  0  -0.261545  0  2.881595  0  0  -0.164038  -0.238598  0  2.906484  0
S  S76  1  0.61585609  0.55946463  0.50492827  1  0  -0.301326  0  2.533744  0  0  -0.249411  0  2.952427  0  0  -0.262925  0  2.935828  0  0  -0.163352  -0.240002  0  2.963376  0
S  S77  1  0.11586577  0.55947622  0.49508052  1  0  -0.301284  0  2.533812  0  0  -0.249378  0  2.952514  0  0  -0.262891  0  2.935923  0  0  -0.16333  -0.239961  0  2.96346  0
N  N78  1  0.74641731  0.37572872  0.14101792  1  0  -0.491742  0  3.081552  0  0  -0.452212  0  3.411344  0  0  -0.457569  0  3.410498  0  0  -0.41152  -0.449651  0  3.411539  0
N  N79  1  0.24641040  0.37572640  0.85899090  1  0  -0.491735  0  3.081455  0  0  -0.452194  0  3.411253  0  0  -0.457529  0  3.410381  0  0  -0.411477  -0.449623  0  3.411395  0
N  N80  1  0.08303010  0.40298519  0.24971563  1  0  -0.497009  0  3.115947  0  0  -0.456175  0  3.446492  0  0  -0.461182  0  3.444029  0  0  -0.419557  -0.453769  0  3.447617  0
N  N81  1  0.58301746  0.40298088  0.75028808  1  0  -0.497108  0  3.115657  0  0  -0.456276  0  3.446222  0  0  -0.461266  0  3.443729  0  0  -0.419585  -0.453863  0  3.447325  0
N  N82  1  0.75923786  0.41141450  0.35702179  1  0  -0.496414  0  3.127689  0  0  -0.455511  0  3.462405  0  0  -0.460631  0  3.460077  0  0  -0.416714  -0.453028  0  3.463447  0
N  N83  1  0.25922518  0.41140794  0.64298464  1  0  -0.496432  0  3.127494  0  0  -0.455522  0  3.462225  0  0  -0.460623  0  3.459867  0  0  -0.416716  -0.453015  0  3.463231  0
N  N84  1  0.36812373  0.89880643  0.08161405  1  0  -0.30627  0  3.329252  0  0  -0.231136  0  3.610454  0  0  -0.246992  0  3.62582  0  0  -0.349027  -0.220382  0  3.599699  0
N  N85  1  0.86812555  0.89879715  0.91838586  1  0  -0.306333  0  3.329251  0  0  -0.231157  0  3.610423  0  0  -0.247013  0  3.625785  0  0  -0.34908  -0.220396  0  3.599659  0
N  N86  1  0.36621258  0.91784025  0.41309079  1  0  -0.305982  0  3.329145  0  0  -0.230515  0  3.611406  0  0  -0.246276  0  3.626654  0  0  -0.349269  -0.219829  0  3.600703  0
N  N87  1  0.86620838  0.91783897  0.58690866  1  0  -0.305914  0  3.329053  0  0  -0.230452  0  3.611342  0  0  -0.246213  0  3.626591  0  0  -0.349254  -0.219771  0  3.60065  0
N  N88  1  0.85254550  0.09119203  0.25278203  1  0  -0.310168  0  3.324563  0  0  -0.247644  0  3.624552  0  0  -0.25399  0  3.628662  0  0  -0.34896  -0.244325  0  3.621769  0
N  N89  1  0.35254642  0.09119427  0.74721755  1  0  -0.31015  0  3.32456  0  0  -0.247625  0  3.624548  0  0  -0.253953  0  3.628619  0  0  -0.348954  -0.244303  0  3.621746  0
