# generated using pymatgen
data_Zn3H58(C3O)14
_symmetry_space_group_name_H-M   'P 1'
_cell_length_a   11.40736392
_cell_length_b   14.37871724
_cell_length_c   14.37867602
_cell_angle_alpha   89.62782377
_cell_angle_beta   73.06060790
_cell_angle_gamma   73.06035747
_symmetry_Int_Tables_number   1
_chemical_formula_structural   Zn3H58(C3O)14
_chemical_formula_sum   'Zn6 H116 C84 O28'
_cell_volume   2150.29089104
_cell_formula_units_Z   2
loop_
 _symmetry_equiv_pos_site_id
 _symmetry_equiv_pos_as_xyz
  1  'x, y, z'
loop_
 _atom_site_type_symbol
 _atom_site_label
 _atom_site_symmetry_multiplicity
 _atom_site_fract_x
 _atom_site_fract_y
 _atom_site_fract_z
 _atom_site_occupancy
 _atom_site_pbe_bader_charge
 _atom_site_pbe_bader_spin_density
 _atom_site_pbe_cm5_charge
 _atom_site_pbe_ddec_charge
 _atom_site_pbe_ddec_spin_density
 _atom_site_pbe_ddec_sum_bond_order
 _atom_site_pbe_magmom
Zn  Zn0  1  0.50849687  0.89792547  0.50919060  1  1.322584  0  0.669869  0.918523  0  2.327422  0
Zn  Zn1  1  0.99149981  0.49080663  0.10207869  1  1.322803  0  0.669893  0.918579  0  2.327344  0
Zn  Zn2  1  0.49150144  0.10207839  0.49081029  1  1.322813  0  0.669857  0.918514  0  2.327182  0
Zn  Zn3  1  0.00850324  0.50918993  0.89792124  1  1.322297  0  0.669813  0.918471  0  2.327133  0
Zn  Zn4  1  0.75000125  0.60501996  0.39498390  1  1.317759  0  0.68997  0.958262  0  2.176437  0
Zn  Zn5  1  0.24999544  0.39497881  0.60501957  1  1.317794  0  0.689955  0.958158  0  2.176461  0
H  H6  1  0.36078687  0.64901315  0.61126335  1  0.053872  0  0.10914  0.13258  0  0.97097  0
H  H7  1  0.13921522  0.38873553  0.35099283  1  0.053755  0  0.109176  0.132624  0  0.970807  0
H  H8  1  0.63921106  0.35098708  0.38873909  1  0.053927  0  0.109138  0.132538  0  0.970996  0
H  H9  1  0.86078634  0.61126250  0.64900812  1  0.053786  0  0.109172  0.132644  0  0.97083  0
H  H10  1  0.36072654  0.76884756  0.64262457  1  0.076427  0  0.102169  0.124384  0  1.010523  0
H  H11  1  0.13927419  0.35737838  0.23115532  1  0.076411  0  0.102142  0.124323  0  1.010441  0
H  H12  1  0.63926473  0.23115560  0.35738008  1  0.076308  0  0.10216  0.124351  0  1.010467  0
H  H13  1  0.86072678  0.64262108  0.76884365  1  0.076408  0  0.102146  0.124331  0  1.010478  0
H  H14  1  0.25638404  0.64843569  0.79059433  1  0.04133  0  0.091598  0.103086  0  1.01693  0
H  H15  1  0.24361553  0.20940694  0.35156766  1  0.041271  0  0.09162  0.103169  0  1.016903  0
H  H16  1  0.74361274  0.35156745  0.20940834  1  0.041304  0  0.091589  0.103097  0  1.016869  0
H  H17  1  0.75638429  0.79059547  0.64843361  1  0.041329  0  0.091611  0.103126  0  1.016909  0
H  H18  1  0.27557325  0.76343837  0.81216879  1  0.017426  0  0.083606  0.077995  0  1.014892  0
H  H19  1  0.22443008  0.18783389  0.23656169  1  0.017532  0  0.083586  0.077961  0  1.014892  0
H  H20  1  0.72442897  0.23656260  0.18783403  1  0.017464  0  0.083625  0.078048  0  1.014853  0
H  H21  1  0.77556911  0.81216777  0.76343835  1  0.017531  0  0.083597  0.078008  0  1.014834  0
H  H22  1  0.45158334  0.68390947  0.99659823  1  -0.004876  0  0.085411  0.081272  0  1.002005  0
H  H23  1  0.04842097  0.00340495  0.31608379  1  -0.004747  0  0.085416  0.081302  0  1.002027  0
H  H24  1  0.54841976  0.31608930  0.00340303  1  -0.004811  0  0.085407  0.08126  0  1.002002  0
H  H25  1  0.95158338  0.99659522  0.68391298  1  -0.004812  0  0.085419  0.081326  0  1.001987  0
H  H26  1  0.39036050  0.78462677  0.93433449  1  -0.027519  0  0.085406  0.080903  0  1.033115  0
H  H27  1  0.10964436  0.06566864  0.21536941  1  -0.02757  0  0.085433  0.080938  0  1.033189  0
H  H28  1  0.60964231  0.21537271  0.06566543  1  -0.027531  0  0.085392  0.080861  0  1.03315  0
H  H29  1  0.89035637  0.93433376  0.78463095  1  -0.027568  0  0.08543  0.080975  0  1.033136  0
H  H30  1  0.62843626  0.71415187  0.86032090  1  -0.004416  0  0.085426  0.047502  0  1.003444  0
H  H31  1  0.87156682  0.13968110  0.28584042  1  -0.00419  0  0.085456  0.047555  0  1.003415  0
H  H32  1  0.37156525  0.28584394  0.13967732  1  -0.004218  0  0.085453  0.047555  0  1.003476  0
H  H33  1  0.12843353  0.86031764  0.71415941  1  -0.004168  0  0.085471  0.047596  0  1.003392  0
H  H34  1  0.63251477  0.68791270  0.68836325  1  0.0046  0  0.086981  0.083269  0  1.017031  0
H  H35  1  0.86748630  0.31163885  0.31208381  1  0.004592  0  0.086968  0.083259  0  1.017013  0
H  H36  1  0.36748496  0.31208530  0.31163604  1  0.004605  0  0.086957  0.083277  0  1.017065  0
H  H37  1  0.13251163  0.68836137  0.68791863  1  0.004397  0  0.086966  0.083305  0  1.017003  0
H  H38  1  0.49887780  0.78728370  0.75017767  1  -0.001678  0  0.089713  0.096758  0  0.999242  0
H  H39  1  0.00112511  0.24982633  0.21271359  1  -0.001142  0  0.089665  0.09667  0  0.999247  0
H  H40  1  0.50112530  0.21271504  0.24982151  1  -0.001562  0  0.08969  0.096705  0  0.999256  0
H  H41  1  0.99887224  0.75017533  0.78728688  1  -0.001162  0  0.089703  0.096724  0  0.999212  0
H  H42  1  0.71911683  0.54449263  0.77854699  1  0.011546  0  0.087322  0.085675  0  1.003298  0
H  H43  1  0.78088516  0.22145342  0.45550274  1  0.011507  0  0.087308  0.085697  0  1.003218  0
H  H44  1  0.28088198  0.45550539  0.22145390  1  0.01149  0  0.087329  0.085717  0  1.003242  0
H  H45  1  0.21911365  0.77854461  0.54449816  1  0.011494  0  0.087346  0.085788  0  1.003207  0
H  H46  1  0.64765488  0.54394184  0.90483353  1  -0.00356  0  0.083641  0.083375  0  1.019988  0
H  H47  1  0.85234760  0.09516544  0.45605113  1  -0.003569  0  0.083663  0.083402  0  1.020048  0
H  H48  1  0.35234513  0.45605544  0.09516640  1  -0.003542  0  0.083644  0.083348  0  1.020077  0
H  H49  1  0.14765608  0.90483185  0.54394794  1  -0.003748  0  0.083635  0.083379  0  1.020001  0
H  H50  1  0.58010799  0.43493144  0.80886789  1  -0.018372  0  0.085854  0.049216  0  0.965454  0
H  H51  1  0.91989249  0.19112924  0.56506657  1  -0.01831  0  0.085873  0.04923  0  0.965468  0
H  H52  1  0.41988845  0.56507022  0.19113210  1  -0.0184  0  0.085852  0.049169  0  0.965463  0
H  H53  1  0.08010878  0.80886950  0.43493304  1  -0.018324  0  0.085861  0.049205  0  0.965453  0
H  H54  1  0.60358024  0.52272606  0.65769566  1  0.054254  0  0.088017  0.097949  0  1.006909  0
H  H55  1  0.89642070  0.34230194  0.47727482  1  0.054281  0  0.088032  0.097966  0  1.00691  0
H  H56  1  0.39641644  0.47727266  0.34230293  1  0.054403  0  0.088012  0.097948  0  1.006878  0
H  H57  1  0.10357815  0.65769828  0.52272671  1  0.054288  0  0.088  0.097933  0  1.006951  0
H  H58  1  0.44905734  0.50731228  0.69950386  1  0.032082  0  0.084508  0.0938  0  1.009367  0
H  H59  1  0.05094059  0.30049452  0.49268961  1  0.032105  0  0.084509  0.09379  0  1.009402  0
H  H60  1  0.55093451  0.49268939  0.30049859  1  0.032134  0  0.084508  0.093793  0  1.009417  0
H  H61  1  0.94905889  0.69950643  0.50731177  1  0.032119  0  0.084502  0.093779  0  1.009419  0
H  H62  1  0.34335731  0.50504227  0.88119846  1  0.024286  0  0.086708  0.094358  0  1.014962  0
H  H63  1  0.15664139  0.11879909  0.49495733  1  0.02432  0  0.086695  0.094361  0  1.015009  0
H  H64  1  0.65663821  0.49495937  0.11880105  1  0.024237  0  0.086731  0.09439  0  1.015013  0
H  H65  1  0.84335929  0.88120111  0.50504239  1  0.024138  0  0.086709  0.094375  0  1.014987  0
H  H66  1  0.42270737  0.52079094  0.96662344  1  -0.021083  0  0.085238  0.081906  0  1.028428  0
H  H67  1  0.07729476  0.03337585  0.47920436  1  -0.02101  0  0.085215  0.081875  0  1.028428  0
H  H68  1  0.57729085  0.47920854  0.03337756  1  -0.021289  0  0.085232  0.081907  0  1.028478  0
H  H69  1  0.92270839  0.96662508  0.52079407  1  -0.021305  0  0.08523  0.081892  0  1.028424  0
H  H70  1  0.23518542  0.68576885  0.05936267  1  0.050728  0  0.096496  0.115695  0  0.984154  0
H  H71  1  0.26482028  0.94063812  0.31423149  1  0.050748  0  0.096526  0.115733  0  0.984076  0
H  H72  1  0.76481285  0.31423279  0.94063550  1  0.050863  0  0.096486  0.115699  0  0.984163  0
H  H73  1  0.73518932  0.05936499  0.68576539  1  0.050839  0  0.096494  0.115705  0  0.984168  0
H  H74  1  0.16265579  0.76158468  0.98071456  1  0.0359  0  0.098393  0.112752  0  1.002266  0
H  H75  1  0.33734668  0.01928696  0.23841037  1  0.035802  0  0.098387  0.112785  0  1.002239  0
H  H76  1  0.83733660  0.23841326  0.01928158  1  0.035928  0  0.098389  0.112695  0  1.002406  0
H  H77  1  0.66265751  0.98072055  0.76158978  1  0.035948  0  0.098404  0.112723  0  1.002381  0
H  H78  1  0.87924854  0.99418671  0.25430028  1  0.053531  0  0.101553  0.120803  0  1.017109  0
H  H79  1  0.62075105  0.74569885  0.00581267  1  0.053483  0  0.101565  0.12082  0  1.017106  0
H  H80  1  0.12074790  0.00581497  0.74570180  1  0.053519  0  0.101544  0.12076  0  1.01712  0
H  H81  1  0.37925085  0.25430059  0.99418400  1  0.053548  0  0.101564  0.120791  0  1.017144  0
H  H82  1  0.90710168  0.86639178  0.26265210  1  0.037395  0  0.097258  0.111675  0  0.990113  0
H  H83  1  0.59290321  0.73734488  0.13360788  1  0.037549  0  0.097217  0.111618  0  0.990126  0
H  H84  1  0.09289746  0.13360770  0.73734869  1  0.037432  0  0.097251  0.111693  0  0.990057  0
H  H85  1  0.40710105  0.26265093  0.86639038  1  0.037387  0  0.097252  0.111692  0  0.990054  0
H  H86  1  0.59378918  0.02495734  0.23514174  1  0.038051  0  0.089986  0.09705  0  1.01786  0
H  H87  1  0.90620651  0.76485915  0.97504097  1  0.038091  0  0.089998  0.097066  0  1.017858  0
H  H88  1  0.40620759  0.97504579  0.76485953  1  0.038083  0  0.089997  0.09709  0  1.017831  0
H  H89  1  0.09379297  0.23514176  0.02495762  1  0.038052  0  0.090017  0.097131  0  1.017803  0
H  H90  1  0.70377179  0.08646393  0.17555742  1  0.013944  0  0.087447  0.085144  0  1.017028  0
H  H91  1  0.79622502  0.82444242  0.91353458  1  0.013896  0  0.087414  0.08511  0  1.017059  0
H  H92  1  0.29622649  0.91353771  0.82444145  1  0.013952  0  0.087444  0.085176  0  1.017034  0
H  H93  1  0.20377600  0.17555922  0.08646365  1  0.013901  0  0.087426  0.085115  0  1.017009  0
H  H94  1  0.55439577  0.07901308  0.08074680  1  -0.000593  0  0.088924  0.053052  0  0.995158  0
H  H95  1  0.94560307  0.91925041  0.92098475  1  -0.000589  0  0.088922  0.053064  0  0.995161  0
H  H96  1  0.44560309  0.92098710  0.91925126  1  -0.000555  0  0.088949  0.053069  0  0.995178  0
H  H97  1  0.05439550  0.08075055  0.07901754  1  -0.000613  0  0.088909  0.053055  0  0.995181  0
H  H98  1  0.77831635  0.07924036  0.98962159  1  -0.008339  0  0.085418  0.080141  0  1.0102  0
H  H99  1  0.72168113  0.01037591  0.92075674  1  -0.008379  0  0.085414  0.080131  0  1.010242  0
H  H100  1  0.22168347  0.92076204  0.01037898  1  -0.008316  0  0.085409  0.080149  0  1.010219  0
H  H101  1  0.27831830  0.98962283  0.07924260  1  -0.008356  0  0.085429  0.080155  0  1.010206  0
H  H102  1  0.93152797  0.99340913  0.08248303  1  0.017051  0  0.088334  0.084598  0  1.020608  0
H  H103  1  0.56846890  0.91751556  0.00658991  1  0.017034  0  0.088327  0.084583  0  1.020598  0
H  H104  1  0.06846909  0.00659328  0.91751888  1  0.017027  0  0.088337  0.084601  0  1.020604  0
H  H105  1  0.43152846  0.08248611  0.99341056  1  0.017071  0  0.088326  0.084593  0  1.020573  0
H  H106  1  0.98588229  0.86418083  0.07674668  1  0.01588  0  0.086503  0.084489  0  1.007223  0
H  H107  1  0.51411566  0.92325238  0.13581695  1  0.015894  0  0.08647  0.084424  0  1.007228  0
H  H108  1  0.01411294  0.13582158  0.92325566  1  0.015844  0  0.086474  0.084445  0  1.007219  0
H  H109  1  0.48588136  0.07674779  0.86418153  1  0.015883  0  0.086493  0.084464  0  1.007208  0
H  H110  1  0.83079032  0.77213689  0.16258255  1  0.02743  0  0.086158  0.088576  0  1.014263  0
H  H111  1  0.66920978  0.83741565  0.22786245  1  0.027436  0  0.086151  0.08854  0  1.014293  0
H  H112  1  0.16920853  0.22786331  0.83741759  1  0.02742  0  0.086148  0.088529  0  1.014297  0
H  H113  1  0.33078420  0.16258527  0.77213744  1  0.027629  0  0.086135  0.088529  0  1.014308  0
H  H114  1  0.90536078  0.69402596  0.30598240  1  0.632158  0  0.328785  0.40961  0  0.869239  0
H  H115  1  0.59463754  0.69401779  0.30597349  1  0.632182  0  0.328813  0.409648  0  0.869175  0
H  H116  1  0.09463199  0.30597572  0.69401983  1  0.632112  0  0.328822  0.409684  0  0.869082  0
H  H117  1  0.40536890  0.30597940  0.69401798  1  0.63268  0  0.328784  0.409593  0  0.869162  0
H  H118  1  0.78351376  0.77972019  0.37449718  1  0.665057  0  0.292467  0.390778  0  0.954627  0
H  H119  1  0.71648936  0.62550309  0.22027864  1  0.665138  0  0.29244  0.390771  0  0.954644  0
H  H120  1  0.21648722  0.22027926  0.62550039  1  0.665175  0  0.292451  0.390781  0  0.954635  0
H  H121  1  0.28351412  0.37449927  0.77971760  1  0.665102  0  0.292441  0.390678  0  0.954751  0
C  C122  1  0.53343895  0.68004541  0.54096688  1  1.503341  0  0.225661  0.660904  0  4.085693  0
C  C123  1  0.96655962  0.45903556  0.31996132  1  1.503562  0  0.225592  0.660731  0  4.08611  0
C  C124  1  0.46655358  0.31995914  0.45903188  1  1.503533  0  0.22562  0.66088  0  4.085889  0
C  C125  1  0.03343991  0.54096759  0.68004139  1  1.503186  0  0.225595  0.660859  0  4.085948  0
C  C126  1  0.41854557  0.69168320  0.62927634  1  -0.029108  0  -0.156983  -0.365702  0  3.873484  0
C  C127  1  0.08145407  0.37072661  0.30832076  1  -0.029259  0  -0.156987  -0.365581  0  3.873103  0
C  C128  1  0.58145029  0.30831994  0.37072584  1  -0.029245  0  -0.156951  -0.365552  0  3.873401  0
C  C129  1  0.91854479  0.62927361  0.69168008  1  -0.029073  0  -0.157035  -0.365714  0  3.873249  0
C  C130  1  0.45032294  0.65627899  0.72333729  1  0.044959  0  -0.012612  0.197398  0  3.756617  0
C  C131  1  0.04967925  0.27666338  0.34372161  1  0.045015  0  -0.012634  0.197377  0  3.756551  0
C  C132  1  0.54967653  0.34372194  0.27666269  1  0.044976  0  -0.012638  0.197372  0  3.756532  0
C  C133  1  0.95032114  0.72333756  0.65627886  1  0.045029  0  -0.012591  0.197409  0  3.756591  0
C  C134  1  0.32238307  0.68387299  0.80665715  1  -0.048334  0  -0.162958  -0.25755  0  3.814038  0
C  C135  1  0.17762035  0.19334533  0.31612662  1  -0.048421  0  -0.163007  -0.257735  0  3.814038  0
C  C136  1  0.67761882  0.31612649  0.19334299  1  -0.048226  0  -0.162979  -0.25767  0  3.813954  0
C  C137  1  0.82238009  0.80665779  0.68387310  1  -0.04848  0  -0.162972  -0.257644  0  3.813909  0
C  C138  1  0.34300139  0.65410964  0.90508033  1  0.06584  0  -0.014832  0.194586  0  3.750846  0
C  C139  1  0.15700390  0.09492062  0.34588716  1  0.065809  0  -0.014753  0.194861  0  3.750493  0
C  C140  1  0.65700084  0.34589130  0.09492040  1  0.065639  0  -0.014805  0.194742  0  3.75078  0
C  C141  1  0.84300199  0.90508031  0.65411132  1  0.065836  0  -0.014821  0.19473  0  3.750768  0
C  C142  1  0.43540211  0.70499101  0.92635904  1  0.012263  0  -0.164287  -0.241785  0  3.871171  0
C  C143  1  0.06460263  0.07364486  0.29500482  1  0.012342  0  -0.164367  -0.241924  0  3.871219  0
C  C144  1  0.56460378  0.29500995  0.07364154  1  0.012369  0  -0.16425  -0.241687  0  3.871096  0
C  C145  1  0.93539902  0.92635753  0.70499463  1  0.012158  0  -0.164339  -0.241966  0  3.871136  0
C  C146  1  0.56395910  0.67680643  0.84417950  1  0.022591  0  -0.09257  0.041366  0  3.858892  0
C  C147  1  0.93604410  0.15582228  0.32318884  1  0.022258  0  -0.092561  0.041307  0  3.859066  0
C  C148  1  0.43604241  0.32318939  0.15581941  1  0.022255  0  -0.092602  0.041231  0  3.859133  0
C  C149  1  0.06395476  0.84417794  0.67681269  1  0.022361  0  -0.092583  0.041287  0  3.859189  0
C  C150  1  0.54030920  0.70752265  0.74720839  1  0.000601  0  -0.166116  -0.240938  0  3.852518  0
C  C151  1  0.95969278  0.25279463  0.29247657  1  6.5e-05  0  -0.166064  -0.240778  0  3.852554  0
C  C152  1  0.45969240  0.29247756  0.25279181  1  0.000474  0  -0.166065  -0.240855  0  3.852552  0
C  C153  1  0.04030516  0.74720559  0.70752449  1  0.000261  0  -0.166093  -0.240906  0  3.852661  0
C  C154  1  0.62643774  0.56596472  0.83665948  1  -0.010051  0  -0.169175  -0.217265  0  3.890245  0
C  C155  1  0.87356267  0.16334033  0.43403196  1  -0.009963  0  -0.169161  -0.217293  0  3.890228  0
C  C156  1  0.37356102  0.43403109  0.16334008  1  -0.009886  0  -0.169153  -0.217244  0  3.890376  0
C  C157  1  0.12643768  0.83665845  0.56597065  1  -0.009765  0  -0.169198  -0.217412  0  3.890288  0
C  C158  1  0.53579745  0.51467737  0.81451758  1  0.047773  0  -0.091456  0.049505  0  3.866536  0
C  C159  1  0.96420447  0.18548125  0.48532136  1  0.047816  0  -0.091454  0.049508  0  3.866563  0
C  C160  1  0.46419745  0.48532356  0.18548348  1  0.04768  0  -0.091383  0.049635  0  3.866416  0
C  C161  1  0.03579800  0.81451677  0.51467867  1  0.047816  0  -0.091434  0.049587  0  3.866427  0
C  C162  1  0.51235533  0.54486280  0.71712814  1  -0.048533  0  -0.169964  -0.248693  0  3.852839  0
C  C163  1  0.98764483  0.28286972  0.45513613  1  -0.048709  0  -0.169976  -0.248706  0  3.852893  0
C  C164  1  0.48764169  0.45513739  0.28287104  1  -0.048822  0  -0.169996  -0.248707  0  3.852735  0
C  C165  1  0.01235523  0.71712975  0.54486375  1  -0.048732  0  -0.169964  -0.248683  0  3.85293  0
C  C166  1  0.40737615  0.54305848  0.89656915  1  -0.024049  0  -0.169429  -0.241892  0  3.849662  0
C  C167  1  0.09262486  0.10343161  0.45693841  1  -0.024081  0  -0.169447  -0.241966  0  3.849713  0
C  C168  1  0.59261845  0.45694319  0.10343265  1  -0.023974  0  -0.169521  -0.242044  0  3.849754  0
C  C169  1  0.90737858  0.89656858  0.54305927  1  -0.023888  0  -0.169407  -0.241898  0  3.849613  0
C  C170  1  0.21528535  0.68590592  0.98903135  1  -0.058409  0  -0.160152  -0.352161  0  3.871262  0
C  C171  1  0.28471996  0.01097026  0.31409181  1  -0.058182  0  -0.160171  -0.352309  0  3.871054  0
C  C172  1  0.78471200  0.31409575  0.01096982  1  -0.058435  0  -0.160169  -0.352207  0  3.871478  0
C  C173  1  0.71529081  0.98902997  0.68590833  1  -0.058466  0  -0.160201  -0.352237  0  3.871579  0
C  C174  1  0.12556077  0.62423299  0.99548428  1  1.561914  0  0.219356  0.653108  0  4.108284  0
C  C175  1  0.37444192  0.00452051  0.37576670  1  1.561683  0  0.219477  0.653342  0  4.108233  0
C  C176  1  0.87444407  0.37576146  0.00452153  1  1.561832  0  0.219349  0.65315  0  4.108667  0
C  C177  1  0.62556481  0.99547608  0.62423515  1  1.561826  0  0.219435  0.653267  0  4.108632  0
C  C178  1  0.72349744  0.95807449  0.35416204  1  1.553247  0  0.224635  0.65357  0  4.095774  0
C  C179  1  0.77650246  0.64583362  0.04191990  1  1.552892  0  0.224499  0.653362  0  4.095854  0
C  C180  1  0.27650345  0.04192060  0.64583703  1  1.552946  0  0.224429  0.65322  0  4.096125  0
C  C181  1  0.22349702  0.35416727  0.95807731  1  1.552955  0  0.224612  0.653511  0  4.095847  0
C  C182  1  0.83440875  0.93560402  0.26063047  1  -0.048969  0  -0.160831  -0.361483  0  3.876231  0
C  C183  1  0.66559477  0.73936614  0.06439042  1  -0.049062  0  -0.160805  -0.361466  0  3.876202  0
C  C184  1  0.16559160  0.06439471  0.73936866  1  -0.048969  0  -0.160839  -0.361451  0  3.87623  0
C  C185  1  0.33440770  0.26063181  0.93560405  1  -0.048941  0  -0.160858  -0.361506  0  3.876229  0
C  C186  1  0.78972624  0.92978390  0.16956685  1  0.047054  0  -0.013585  0.196252  0  3.750687  0
C  C187  1  0.71027192  0.83043163  0.07021350  1  0.047018  0  -0.013572  0.196433  0  3.750612  0
C  C188  1  0.21027016  0.07021558  0.83043388  1  0.047135  0  -0.013583  0.196286  0  3.750694  0
C  C189  1  0.28972510  0.16956854  0.92978430  1  0.047053  0  -0.013607  0.196165  0  3.750766  0
C  C190  1  0.67612369  0.01983206  0.17030822  1  -0.04813  0  -0.168024  -0.243489  0  3.854034  0
C  C191  1  0.82387383  0.82969073  0.98016612  1  -0.048198  0  -0.168012  -0.243472  0  3.854013  0
C  C192  1  0.32387488  0.98016887  0.82969198  1  -0.048347  0  -0.168039  -0.243604  0  3.854115  0
C  C193  1  0.17612444  0.17031091  0.01983275  1  -0.048259  0  -0.168021  -0.243436  0  3.85405  0
C  C194  1  0.63678730  0.01459472  0.07785150  1  0.039102  0  -0.093331  0.037742  0  3.868757  0
C  C195  1  0.86321029  0.92214686  0.98540458  1  0.039209  0  -0.093313  0.037712  0  3.86877  0
C  C196  1  0.36321189  0.98540693  0.92214785  1  0.038992  0  -0.093339  0.037761  0  3.868729  0
C  C197  1  0.13678677  0.07785553  0.01459595  1  0.039266  0  -0.09327  0.037736  0  3.86885  0
C  C198  1  0.74999863  0.01244201  0.98755495  1  -0.01053  0  -0.165917  -0.214392  0  3.900663  0
C  C199  1  0.24999964  0.98755963  0.01244391  1  -0.010503  0  -0.165943  -0.214437  0  3.900653  0
C  C200  1  0.90249269  0.92731787  0.07816366  1  -0.04855  0  -0.162466  -0.23448  0  3.858189  0
C  C201  1  0.59750816  0.92183549  0.07268004  1  -0.048591  0  -0.162429  -0.234464  0  3.858188  0
C  C202  1  0.09750650  0.07268381  0.92183777  1  -0.048547  0  -0.162455  -0.234457  0  3.858223  0
C  C203  1  0.40249103  0.07816616  0.92731930  1  -0.048422  0  -0.162457  -0.234461  0  3.858161  0
C  C204  1  0.75000016  0.83700939  0.16298791  1  -0.04944  0  -0.168364  -0.265341  0  3.821661  0
C  C205  1  0.24999624  0.16299006  0.83701074  1  -0.049629  0  -0.168353  -0.265228  0  3.821677  0
O  O206  1  0.55682042  0.75275340  0.49568027  1  -1.19523  0  -0.324302  -0.567959  0  2.348265  0
O  O207  1  0.94317836  0.50432100  0.24725265  1  -1.195143  0  -0.324237  -0.567907  0  2.348469  0
O  O208  1  0.44316969  0.24725267  0.50432389  1  -1.195225  0  -0.324301  -0.568026  0  2.348358  0
O  O209  1  0.05682537  0.49567850  0.75274845  1  -1.195107  0  -0.324276  -0.567992  0  2.348364  0
O  O210  1  0.60949447  0.59420593  0.50973543  1  -1.152247  0  -0.307592  -0.530353  0  2.260346  0
O  O211  1  0.89050803  0.49026965  0.40580110  1  -1.152333  0  -0.307582  -0.53032  0  2.260518  0
O  O212  1  0.39050414  0.40579717  0.49026264  1  -1.152262  0  -0.307568  -0.530316  0  2.260375  0
O  O213  1  0.10948875  0.50973352  0.59420365  1  -1.152216  0  -0.307558  -0.530293  0  2.260465  0
O  O214  1  0.10096262  0.60497917  0.91809764  1  -1.171302  0  -0.311554  -0.555722  0  2.351766  0
O  O215  1  0.39903895  0.08190797  0.39502295  1  -1.171675  0  -0.311567  -0.555777  0  2.351863  0
O  O216  1  0.89904294  0.39502042  0.08191069  1  -1.171773  0  -0.311555  -0.555725  0  2.351838  0
O  O217  1  0.60096498  0.91808643  0.60497890  1  -1.171751  0  -0.311619  -0.555833  0  2.351736  0
O  O218  1  0.08018959  0.59623129  0.07909315  1  -1.17102  0  -0.327697  -0.570916  0  2.304314  0
O  O219  1  0.41981494  0.92091221  0.40376737  1  -1.170866  0  -0.327786  -0.57105  0  2.304502  0
O  O220  1  0.91981054  0.40375658  0.92091249  1  -1.170867  0  -0.327631  -0.570895  0  2.304631  0
O  O221  1  0.58019786  0.07908296  0.59623587  1  -1.170825  0  -0.327661  -0.570928  0  2.304783  0
O  O222  1  0.68931126  0.88630006  0.39496433  1  -1.187877  0  -0.30631  -0.573206  0  2.361281  0
O  O223  1  0.81069284  0.60503482  0.11369342  1  -1.187722  0  -0.306297  -0.573185  0  2.361467  0
O  O224  1  0.31068479  0.11369800  0.60503999  1  -1.187678  0  -0.306251  -0.573083  0  2.361353  0
O  O225  1  0.18931114  0.39496165  0.88629934  1  -1.187774  0  -0.306341  -0.573202  0  2.361341  0
O  O226  1  0.66697977  0.04691641  0.38462053  1  -1.166844  0  -0.302957  -0.538852  0  2.322057  0
O  O227  1  0.83302334  0.61537796  0.95307335  1  -1.166707  0  -0.302811  -0.538688  0  2.321881  0
O  O228  1  0.33302420  0.95308012  0.61537640  1  -1.166662  0  -0.302779  -0.538627  0  2.322181  0
O  O229  1  0.16697648  0.38462431  0.04691680  1  -1.166599  0  -0.302852  -0.538735  0  2.32211  0
O  O230  1  0.84159706  0.70943457  0.37019366  1  -1.253731  0  -0.556665  -0.748206  0  2.152009  0
O  O231  1  0.65840475  0.62980885  0.29056450  1  -1.253802  0  -0.556656  -0.748208  0  2.151902  0
O  O232  1  0.15839963  0.29056420  0.62980911  1  -1.253799  0  -0.556672  -0.748252  0  2.151847  0
O  O233  1  0.34159927  0.37018986  0.70943168  1  -1.254285  0  -0.556618  -0.748019  0  2.151889  0
