# generated using pymatgen
data_Al2H19C31N3(ClO5)2
_symmetry_space_group_name_H-M   'P 1'
_cell_length_a   6.63586623
_cell_length_b   20.94271074
_cell_length_c   21.52093087
_cell_angle_alpha   90.00148178
_cell_angle_beta   90.00635877
_cell_angle_gamma   98.40565953
_symmetry_Int_Tables_number   1
_chemical_formula_structural   Al2H19C31N3(ClO5)2
_chemical_formula_sum   'Al4 H38 C62 N6 Cl4 O20'
_cell_volume   2958.70109807
_cell_formula_units_Z   2
loop_
 _symmetry_equiv_pos_site_id
 _symmetry_equiv_pos_as_xyz
  1  'x, y, z'
loop_
 _atom_site_type_symbol
 _atom_site_label
 _atom_site_symmetry_multiplicity
 _atom_site_fract_x
 _atom_site_fract_y
 _atom_site_fract_z
 _atom_site_occupancy
 _atom_site_pbe_bader_charge
 _atom_site_pbe_bader_spin_density
 _atom_site_pbe_cm5_charge
 _atom_site_pbe_ddec_charge
 _atom_site_pbe_ddec_spin_density
 _atom_site_pbe_ddec_sum_bond_order
 _atom_site_pbe_magmom
Al  Al0  1  0.95372816  0.68545870  0.49871236  1  2.502654  0  0.395217  1.63727  0  2.586078  0
Al  Al1  1  0.04637630  0.31456843  0.99874948  1  2.502092  0  0.395143  1.63738  0  2.585653  0
Al  Al2  1  0.45322318  0.68830627  0.49941525  1  2.499643  0  0.397362  1.63804  0  2.581377  0
Al  Al3  1  0.54694276  0.31170835  0.99941596  1  2.500039  0  0.397375  1.637998  0  2.581539  0
H  H4  1  0.12034423  0.50071486  0.07324666  1  0.081946  0  0.108674  0.113662  0  0.985906  0
H  H5  1  0.87947894  0.49943626  0.57329938  1  0.081651  0  0.108844  0.114029  0  0.985596  0
H  H6  1  0.05628654  0.65130421  0.23526908  1  0.059576  0  0.103043  0.105158  0  0.992296  0
H  H7  1  0.94276050  0.34891101  0.73545161  1  0.097565  0  0.103197  0.105265  0  0.992142  0
H  H8  1  0.15454496  0.59885221  0.14136134  1  0.057529  0  0.098322  0.103567  0  1.007754  0
H  H9  1  0.84480192  0.40134444  0.64148039  1  0.035087  0  0.098528  0.103872  0  1.007938  0
H  H10  1  0.44597743  0.48179756  0.44788754  1  0.050396  0  0.107572  0.11079  0  0.98795  0
H  H11  1  0.55447214  0.51820402  0.94794022  1  0.047971  0  0.107641  0.111038  0  0.988568  0
H  H12  1  0.58921205  0.39210929  0.27655427  1  0.089219  0  0.103418  0.101375  0  1.019617  0
H  H13  1  0.41041736  0.60798531  0.77670931  1  0.090296  0  0.103473  0.101595  0  1.018786  0
H  H14  1  0.43821705  0.38309178  0.38155840  1  0.044275  0  0.102737  0.100039  0  0.991885  0
H  H15  1  0.56195340  0.61695550  0.88167101  1  0.043946  0  0.102822  0.100194  0  0.991238  0
H  H16  1  0.86930209  0.64846089  0.33388248  1  0.088483  0  0.10443  0.112842  0  1.016071  0
H  H17  1  0.12990096  0.35167564  0.83402996  1  0.084882  0  0.104421  0.112937  0  1.015966  0
H  H18  1  0.47232057  0.80331980  0.34686465  1  0.098025  0  0.113864  0.135138  0  0.992409  0
H  H19  1  0.52774248  0.19671570  0.84691469  1  0.097638  0  0.114023  0.1355  0  0.992501  0
H  H20  1  0.41542390  0.09251080  0.22574438  1  0.080465  0  0.111632  0.115962  0  0.991347  0
H  H21  1  0.58505130  0.90767212  0.72560586  1  0.078593  0  0.111754  0.115842  0  0.991299  0
H  H22  1  0.43934134  0.18306444  0.14766317  1  0.093916  0  0.107188  0.108447  0  0.996421  0
H  H23  1  0.56116643  0.81714663  0.64749726  1  0.10292  0  0.10714  0.108225  0  0.996374  0
H  H24  1  0.00219880  0.05043943  0.16790993  1  0.097547  0  0.109843  0.11367  0  1.00986  0
H  H25  1  0.99788326  0.94956859  0.66791742  1  0.097157  0  0.109805  0.113586  0  1.009693  0
H  H26  1  0.09588594  0.96345456  0.33091914  1  0.124461  0  0.109764  0.129944  0  0.998731  0
H  H27  1  0.90425942  0.03654591  0.83090852  1  0.116943  0  0.109711  0.129834  0  0.999235  0
H  H28  1  0.02989971  0.14227813  0.09173524  1  0.093709  0  0.108875  0.111086  0  0.994875  0
H  H29  1  0.97024932  0.85775670  0.59171580  1  0.09461  0  0.108971  0.111299  0  0.995012  0
H  H30  1  0.51495930  0.38794614  0.12962606  1  0.503799  0  0.305528  0.261471  0  1.009356  0
H  H31  1  0.21996379  0.41532008  0.16138020  1  0.079288  0  0.104121  0.120183  0  1.011055  0
H  H32  1  0.34823352  0.48274172  0.20291129  1  0.052347  0  0.099973  0.110227  0  1.003453  0
H  H33  1  0.30080867  0.40621916  0.23953510  1  0.0578  0  0.091284  0.093068  0  1.019658  0
H  H34  1  0.48480561  0.61210206  0.62979614  1  0.50615  0  0.305933  0.26257  0  1.008236  0
H  H35  1  0.77967406  0.58473633  0.66160663  1  0.087079  0  0.103955  0.11972  0  1.011345  0
H  H36  1  0.65135284  0.51733980  0.70314444  1  0.054538  0  0.099908  0.11007  0  1.003015  0
H  H37  1  0.69885505  0.59386947  0.73974609  1  0.054464  0  0.091361  0.093056  0  1.019593  0
H  H38  1  0.19197722  0.65529714  0.42451013  1  0.624541  0  0.354167  0.430375  0  0.853294  0
H  H39  1  0.80815963  0.34473287  0.92453480  1  0.624912  0  0.354177  0.430421  0  0.85359  0
H  H40  1  0.72540727  0.72125059  0.57203275  1  0.600599  0  0.348037  0.419479  0  0.872034  0
H  H41  1  0.27478465  0.27876815  0.07205847  1  0.6013  0  0.3479  0.419554  0  0.871667  0
C  C42  1  0.15859217  0.60163773  0.57664969  1  1.517593  0  0.258116  0.641179  0  4.098851  0
C  C43  1  0.84147356  0.39842256  0.07662282  1  1.516227  0  0.257917  0.640878  0  4.100937  0
C  C44  1  0.24746817  0.77759422  0.57044096  1  1.576999  0  0.271053  0.64555  0  4.095954  0
C  C45  1  0.75276286  0.22248069  0.07048869  1  1.57587  0  0.270067  0.643592  0  4.097694  0
C  C46  1  0.75065227  0.77412561  0.42407985  1  1.582307  0  0.263197  0.643751  0  4.110301  0
C  C47  1  0.24938079  0.22588750  0.92410453  1  1.581468  0  0.263003  0.643572  0  4.11014  0
C  C48  1  0.65369048  0.59751735  0.42761401  1  1.572416  0  0.275868  0.661904  0  4.074152  0
C  C49  1  0.34635928  0.40252928  0.92768251  1  1.57203  0  0.275925  0.662414  0  4.073678  0
C  C50  1  0.04006314  0.55707979  0.15069364  1  0.00054  0  -0.117294  -0.193755  0  4.064238  0
C  C51  1  0.95933837  0.44309745  0.65082340  1  0.023567  0  -0.116916  -0.194359  0  4.06422  0
C  C52  1  0.85698024  0.45265223  0.12070538  1  0.002469  0  -0.039226  -0.193113  0  3.989414  0
C  C53  1  0.14283953  0.54747411  0.62082261  1  0.003789  0  -0.039535  -0.19339  0  3.990123  0
C  C54  1  0.51784435  0.48474030  0.40222370  1  -0.006891  0  -0.088921  -0.104199  0  4.013327  0
C  C55  1  0.48224380  0.51529135  0.90231991  1  -0.007918  0  -0.089121  -0.104868  0  4.013044  0
C  C56  1  0.51031754  0.42991169  0.36442101  1  -0.076526  0  -0.096182  -0.091822  0  4.068157  0
C  C57  1  0.48967835  0.57014042  0.86454640  1  -0.08442  0  -0.095975  -0.091472  0  4.067393  0
C  C58  1  0.59324987  0.43508238  0.30526284  1  0.041339  0  -0.087809  -0.125253  0  4.000958  0
C  C59  1  0.40645860  0.56500796  0.80542763  1  0.051119  0  -0.088357  -0.125918  0  4.000435  0
C  C60  1  0.68831724  0.49498887  0.28127593  1  -0.033048  0  -0.001097  0.048422  0  3.94536  0
C  C61  1  0.31119598  0.50510712  0.78143892  1  -0.032659  0  -0.00096  0.047581  0  3.94485  0
C  C62  1  0.72096034  0.54898637  0.32294677  1  -0.039106  0  -0.004537  0.054446  0  3.968349  0
C  C63  1  0.27852823  0.45110490  0.82309440  1  -0.041079  0  -0.004507  0.055585  0  3.968264  0
C  C64  1  0.76966650  0.50179201  0.21870715  1  -0.051469  0  -0.012772  -0.0792  0  3.896138  0
C  C65  1  0.22974965  0.49833332  0.71887835  1  -0.018245  0  -0.012116  -0.077791  0  3.893397  0
C  C66  1  0.92015199  0.55593414  0.20517567  1  0.00747  0  -0.006604  0.098461  0  4.053448  0
C  C67  1  0.07912086  0.44421824  0.70533572  1  -0.019974  0  -0.00741  0.098503  0  4.051303  0
C  C68  1  0.94950436  0.60861692  0.24804628  1  -0.068831  0  -0.092564  -0.134653  0  4.02454  0
C  C69  1  0.04966846  0.39156088  0.74822860  1  -0.109924  0  -0.092602  -0.134295  0  4.023819  0
C  C70  1  0.84718885  0.60676434  0.30317042  1  -0.036606  0  -0.09475  -0.132238  0  4.019003  0
C  C71  1  0.15208645  0.39336898  0.80332972  1  -0.03307  0  -0.094734  -0.133116  0  4.019736  0
C  C72  1  0.71298067  0.45550849  0.16971302  1  0.474214  0  0.123652  0.204379  0  3.977404  0
C  C73  1  0.28666373  0.54460790  0.66988834  1  0.471882  0  0.123421  0.203889  0  3.978001  0
C  C74  1  0.01822834  0.50381717  0.11244639  1  -0.108732  0  -0.089259  -0.07669  0  4.078079  0
C  C75  1  0.98144415  0.49635223  0.61254887  1  -0.110907  0  -0.08917  -0.076842  0  4.077145  0
C  C76  1  0.62815999  0.54282495  0.38271045  1  -0.00318  0  -0.01404  -0.091256  0  3.964924  0
C  C77  1  0.37169156  0.45723162  0.88280511  1  0.000114  0  -0.013792  -0.091128  0  3.964833  0
C  C78  1  0.73652577  0.16805852  0.11566110  1  -0.073897  0  -0.006961  -0.033439  0  3.959013  0
C  C79  1  0.26376665  0.83203565  0.61559039  1  -0.077781  0  -0.007409  -0.034621  0  3.960661  0
C  C80  1  0.89656655  0.13117261  0.12159186  1  0.025184  0  -0.07905  -0.084444  0  3.974038  0
C  C81  1  0.10364018  0.86888746  0.62154665  1  0.017628  0  -0.078785  -0.08441  0  3.974679  0
C  C82  1  0.88196972  0.08050485  0.16365433  1  -0.042193  0  -0.0806  -0.137845  0  3.93873  0
C  C83  1  0.11821998  0.91954487  0.66362460  1  -0.03189  0  -0.080614  -0.137676  0  3.938718  0
C  C84  1  0.70738147  0.06715665  0.20135893  1  0.341683  0  0.089837  0.172599  0  4.030726  0
C  C85  1  0.29286751  0.93292107  0.70130986  1  0.36368  0  0.089438  0.172104  0  4.031136  0
C  C86  1  0.54807263  0.10411904  0.19573345  1  -0.011093  0  -0.076619  -0.134438  0  3.944357  0
C  C87  1  0.45233135  0.89602501  0.69562450  1  -0.034416  0  -0.076502  -0.134152  0  3.944263  0
C  C88  1  0.56194919  0.15404002  0.15268588  1  -0.031483  0  -0.078318  -0.08222  0  3.975293  0
C  C89  1  0.43848053  0.84612070  0.65255683  1  -0.036707  0  -0.078247  -0.081512  0  3.975128  0
C  C90  1  0.61396674  0.88972643  0.30133841  1  0.058173  0  0.016664  0.080789  0  4.004085  0
C  C91  1  0.38612983  0.11030942  0.80136541  1  0.059813  0  0.016606  0.080729  0  4.005316  0
C  C92  1  0.60874890  0.83899793  0.34326839  1  0.104521  0  -0.08538  -0.145091  0  3.972648  0
C  C93  1  0.39132145  0.16103703  0.84329751  1  0.102414  0  -0.085601  -0.145535  0  3.973225  0
C  C94  1  0.79188414  0.93603585  0.29732434  1  0.397777  0  0.090539  0.136802  0  4.026266  0
C  C95  1  0.20824828  0.06399074  0.79732825  1  0.397602  0  0.090763  0.137178  0  4.026169  0
C  C96  1  0.77373672  0.83181235  0.38213361  1  -0.016701  0  -0.012591  -0.079435  0  3.917739  0
C  C97  1  0.22630361  0.16820377  0.88215941  1  -0.016995  0  -0.012275  -0.079437  0  3.917702  0
C  C98  1  0.95069510  0.87818498  0.37803359  1  0.074762  0  0.022454  0.140714  0  4.023634  0
C  C99  1  0.04937646  0.12182182  0.87803906  1  0.075197  0  0.022248  0.140553  0  4.024319  0
C  C100  1  0.95846570  0.92830730  0.33526486  1  0.034317  0  -0.088721  -0.213248  0  3.966512  0
C  C101  1  0.04166410  0.07170370  0.83526688  1  0.042812  0  -0.088606  -0.21306  0  3.966973  0
C  C102  1  0.34128844  0.43067419  0.19504648  1  0.257855  0  -0.141115  -0.217362  0  3.951584  0
C  C103  1  0.65834771  0.56940483  0.69526550  1  0.249895  0  -0.140778  -0.216269  0  3.951928  0
N  N104  1  0.67370603  0.01666715  0.24549671  1  -0.464571  0  -0.142047  -0.126001  0  3.288524  0
N  N105  1  0.32650529  0.98340098  0.74546334  1  -0.466664  0  -0.141866  -0.125521  0  3.288639  0
N  N106  1  0.82692761  0.98876320  0.25619018  1  -0.477146  0  -0.144888  -0.113943  0  3.277737  0
N  N107  1  0.17324342  0.01127267  0.75618019  1  -0.475497  0  -0.145214  -0.114518  0  3.277828  0
N  N108  1  0.53096537  0.41560346  0.16899508  1  -1.238714  0  -0.435652  -0.272097  0  3.571326  0
N  N109  1  0.46873855  0.58450273  0.66919741  1  -1.240669  0  -0.436374  -0.27377  0  3.572029  0
Cl  Cl110  1  0.40532597  0.89088102  0.25370607  1  -0.186246  0  -0.003627  -0.070162  0  1.534989  0
Cl  Cl111  1  0.59480467  0.10918629  0.75374443  1  -0.186355  0  -0.003515  -0.070038  0  1.535002  0
Cl  Cl112  1  0.16240574  0.87799853  0.42473758  1  -0.175723  0  0.014221  -0.040981  0  1.53922  0
Cl  Cl113  1  0.83770994  0.12198798  0.92473670  1  -0.175697  0  0.014231  -0.040953  0  1.539353  0
O  O114  1  0.41239675  0.76220740  0.54880680  1  -1.255818  0  -0.237072  -0.593634  0  2.335324  0
O  O115  1  0.58777435  0.23779894  0.04880641  1  -1.254286  0  -0.236899  -0.592808  0  2.335038  0
O  O116  1  0.99429484  0.61487234  0.55206363  1  -1.265013  0  -0.241442  -0.595039  0  2.338619  0
O  O117  1  0.00580886  0.38520275  0.05206556  1  -1.26461  0  -0.241422  -0.595036  0  2.338968  0
O  O118  1  0.83459289  0.62439513  0.43925320  1  -1.260214  0  -0.230413  -0.596552  0  2.369601  0
O  O119  1  0.16550845  0.37561151  0.93930765  1  -1.259869  0  -0.230505  -0.596981  0  2.370542  0
O  O120  1  0.06873321  0.74968131  0.55746770  1  -1.256226  0  -0.232781  -0.598036  0  2.360053  0
O  O121  1  0.93149464  0.25038529  0.05752952  1  -1.256565  0  -0.232082  -0.597204  0  2.361716  0
O  O122  1  0.91207949  0.75521473  0.44369991  1  -1.249017  0  -0.235865  -0.590773  0  2.418916  0
O  O123  1  0.08796160  0.24478499  0.94374857  1  -1.248447  0  -0.235762  -0.590538  0  2.418425  0
O  O124  1  0.33590604  0.63407222  0.56612452  1  -1.270905  0  -0.24381  -0.611224  0  2.395647  0
O  O125  1  0.66430179  0.36590809  0.06609965  1  -1.271036  0  -0.243783  -0.611045  0  2.397732  0
O  O126  1  0.20336364  0.68421269  0.46000251  1  -1.428182  0  -0.448212  -0.98035  0  2.184675  0
O  O127  1  0.79675784  0.31580622  0.96001426  1  -1.428504  0  -0.448216  -0.980403  0  2.185021  0
O  O128  1  0.56909333  0.74732991  0.43539089  1  -1.248567  0  -0.238487  -0.5916  0  2.33965  0
O  O129  1  0.43095089  0.25270211  0.93539381  1  -1.248544  0  -0.238503  -0.591543  0  2.339336  0
O  O130  1  0.49338374  0.61348357  0.45204961  1  -1.264097  0  -0.232593  -0.592649  0  2.314538  0
O  O131  1  0.50671205  0.38655188  0.95209703  1  -1.264605  0  -0.232776  -0.593013  0  2.313972  0
O  O132  1  0.70505774  0.69011604  0.53840508  1  -1.408327  0  -0.449126  -0.977544  0  2.181849  0
O  O133  1  0.29509812  0.30990833  0.03843486  1  -1.408923  0  -0.449001  -0.977844  0  2.181355  0
