# generated using pymatgen
data_H5PbC2N9O2
_symmetry_space_group_name_H-M   'P 1'
_cell_length_a   6.62184379
_cell_length_b   10.65003587
_cell_length_c   11.91071097
_cell_angle_alpha   90.01015952
_cell_angle_beta   89.98222032
_cell_angle_gamma   105.11052441
_symmetry_Int_Tables_number   1
_chemical_formula_structural   H5PbC2N9O2
_chemical_formula_sum   'H20 Pb4 C8 N36 O8'
_cell_volume   810.93510104
_cell_formula_units_Z   4
loop_
 _symmetry_equiv_pos_site_id
 _symmetry_equiv_pos_as_xyz
  1  'x, y, z'
loop_
 _atom_site_type_symbol
 _atom_site_label
 _atom_site_symmetry_multiplicity
 _atom_site_fract_x
 _atom_site_fract_y
 _atom_site_fract_z
 _atom_site_occupancy
 _atom_site_hle17_bader_spin_density
 _atom_site_hle17_ddec_charge
 _atom_site_hle17_ddec_spin_density
 _atom_site_hle17_ddec_sum_bond_order
 _atom_site_hle17_magmom
 _atom_site_hse06_10hf_bader_spin_density
 _atom_site_hse06_10hf_ddec_charge
 _atom_site_hse06_10hf_ddec_spin_density
 _atom_site_hse06_10hf_ddec_sum_bond_order
 _atom_site_hse06_10hf_magmom
 _atom_site_hse06_bader_spin_density
 _atom_site_hse06_ddec_charge
 _atom_site_hse06_ddec_spin_density
 _atom_site_hse06_ddec_sum_bond_order
 _atom_site_hse06_magmom
 _atom_site_pbe_bader_spin_density
 _atom_site_pbe_cm5_charge
 _atom_site_pbe_ddec_charge
 _atom_site_pbe_ddec_spin_density
 _atom_site_pbe_ddec_sum_bond_order
 _atom_site_pbe_magmom
H  H0  1  0.29432998  0.57341807  0.13808106  1  0  0.305418  0  0.918446  0  0  0.269913  0  1.012883  0  0  0.278892  0  1.004835  0  0  0.311345  0.263574  0  1.018564  0
H  H1  1  0.20566309  0.92665627  0.63806627  1  0  0.305451  0  0.918284  0  0  0.269988  0  1.012527  0  0  0.278963  0  1.004478  0  0  0.311373  0.263648  0  1.018203  0
H  H2  1  0.70560994  0.42659510  0.86189661  1  0  0.305508  0  0.9183  0  0  0.269996  0  1.012652  0  0  0.278976  0  1.004603  0  0  0.311393  0.263678  0  1.018326  0
H  H3  1  0.79432204  0.07335305  0.36192148  1  0  0.305456  0  0.918322  0  0  0.269894  0  1.012658  0  0  0.278867  0  1.004613  0  0  0.311324  0.263562  0  1.018334  0
H  H4  1  0.26425488  0.13046858  0.09741826  1  0  0.427131  0  0.875329  0  0  0.392135  0  0.946275  0  0  0.403677  0  0.92983  0  0  0.289471  0.384  0  0.957801  0
H  H5  1  0.23563244  0.36952690  0.59745946  1  0  0.427257  0  0.875372  0  0  0.392203  0  0.94628  0  0  0.403748  0  0.929831  0  0  0.289546  0.384068  0  0.957808  0
H  H6  1  0.73578606  0.86951162  0.90256110  1  0  0.427123  0  0.875384  0  0  0.392152  0  0.946257  0  0  0.403691  0  0.929815  0  0  0.289526  0.384024  0  0.957776  0
H  H7  1  0.76424380  0.63051830  0.40256018  1  0  0.427274  0  0.875092  0  0  0.392215  0  0.946191  0  0  0.403759  0  0.929744  0  0  0.289581  0.384081  0  0.957718  0
H  H8  1  0.14161147  0.03552864  0.18703825  1  0  0.389761  0  0.918913  0  0  0.34341  0  1.013233  0  0  0.355288  0  0.996452  0  0  0.287345  0.33503  0  1.025011  0
H  H9  1  0.35825271  0.46446353  0.68708403  1  0  0.389595  0  0.919332  0  0  0.343228  0  1.013569  0  0  0.355111  0  0.996782  0  0  0.287347  0.334845  0  1.025347  0
H  H10  1  0.85842999  0.96449629  0.81297552  1  0  0.389576  0  0.918953  0  0  0.343249  0  1.013378  0  0  0.355126  0  0.9966  0  0  0.287337  0.334871  0  1.025155  0
H  H11  1  0.64153994  0.53552619  0.31299186  1  0  0.389832  0  0.91899  0  0  0.343491  0  1.013138  0  0  0.355375  0  0.996346  0  0  0.287522  0.33511  0  1.024921  0
H  H12  1  0.48462719  0.22971578  0.21515964  1  0  0.391825  0  0.912599  0  0  0.34651  0  1.008085  0  0  0.357718  0  0.991954  0  0  0.287896  0.338583  0  1.019455  0
H  H13  1  0.01535752  0.27028511  0.71514234  1  0  0.39165  0  0.912661  0  0  0.346314  0  1.008314  0  0  0.357522  0  0.992185  0  0  0.287841  0.338396  0  1.019672  0
H  H14  1  0.51540665  0.77027997  0.78481887  1  0  0.391726  0  0.912816  0  0  0.346388  0  1.008281  0  0  0.357595  0  0.992156  0  0  0.287905  0.338465  0  1.019642  0
H  H15  1  0.98472910  0.72968152  0.28485381  1  0  0.391933  0  0.912321  0  0  0.346554  0  1.008023  0  0  0.35776  0  0.991899  0  0  0.287865  0.338632  0  1.019386  0
H  H16  1  0.55226851  0.32520523  0.10707151  1  0  0.395755  0  0.922081  0  0  0.351191  0  1.008153  0  0  0.362834  0  0.991698  0  0  0.282309  0.342999  0  1.01969  0
H  H17  1  0.94770134  0.17483194  0.60703555  1  0  0.39587  0  0.921913  0  0  0.351353  0  1.007907  0  0  0.362995  0  0.991449  0  0  0.282387  0.343166  0  1.019439  0
H  H18  1  0.44774952  0.67475259  0.89289358  1  0  0.395844  0  0.921953  0  0  0.351239  0  1.008086  0  0  0.362883  0  0.99163  0  0  0.282317  0.343047  0  1.019622  0
H  H19  1  0.05229034  0.82520752  0.39292868  1  0  0.395831  0  0.921959  0  0  0.351288  0  1.007995  0  0  0.362932  0  0.991538  0  0  0.282389  0.343097  0  1.019532  0
Pb  Pb20  1  0.80724802  0.13402669  0.04532074  1  0  1.261917  0  1.455664  0  0  1.059033  0  1.857996  0  0  1.113562  0  1.820498  0  0  0.641529  1.019661  0  1.884354  0
Pb  Pb21  1  0.69262948  0.36599887  0.54527982  1  0  1.26185  0  1.455613  0  0  1.059015  0  1.85793  0  0  1.113534  0  1.82044  0  0  0.641541  1.019633  0  1.884272  0
Pb  Pb22  1  0.19291092  0.86584182  0.95469809  1  0  1.26191  0  1.455342  0  0  1.058973  0  1.857698  0  0  1.113492  0  1.820207  0  0  0.641543  1.019603  0  1.884049  0
Pb  Pb23  1  0.30717490  0.63410947  0.45478767  1  0  1.261907  0  1.455597  0  0  1.059  0  1.857965  0  0  1.113517  0  1.82047  0  0  0.641479  1.019624  0  1.884316  0
C  C24  1  0.11244388  0.40424481  0.20421232  1  0  0.520189  0  3.804022  0  0  0.461899  0  4.098096  0  0  0.484675  0  4.107927  0  0  0.3334  0.446564  0  4.091258  0
C  C25  1  0.38757362  0.09580742  0.70418921  1  0  0.520213  0  3.804718  0  0  0.462119  0  4.098499  0  0  0.484895  0  4.108324  0  0  0.333383  0.446762  0  4.091662  0
C  C26  1  0.88754728  0.59576452  0.79579894  1  0  0.519925  0  3.804492  0  0  0.461683  0  4.098442  0  0  0.48446  0  4.108269  0  0  0.333299  0.446372  0  4.091609  0
C  C27  1  0.61245062  0.90418347  0.29580778  1  0  0.519801  0  3.805053  0  0  0.461483  0  4.09903  0  0  0.484253  0  4.108866  0  0  0.333161  0.446151  0  4.092192  0
C  C28  1  0.20399646  0.44356125  0.00663725  1  0  0.501662  0  3.819836  0  0  0.447245  0  4.114258  0  0  0.467976  0  4.125145  0  0  0.327106  0.433294  0  4.106754  0
C  C29  1  0.29603327  0.05647996  0.50662745  1  0  0.502218  0  3.819199  0  0  0.447718  0  4.113778  0  0  0.468482  0  4.124615  0  0  0.327252  0.433727  0  4.106306  0
C  C30  1  0.79595306  0.55643151  0.99336393  1  0  0.501173  0  3.819995  0  0  0.4468  0  4.114401  0  0  0.467526  0  4.125299  0  0  0.326877  0.432892  0  4.10687  0
C  C31  1  0.70403189  0.94351485  0.49335946  1  0  0.501657  0  3.820162  0  0  0.44732  0  4.114391  0  0  0.468056  0  4.12528  0  0  0.327352  0.433352  0  4.106905  0
N  N32  1  0.98072143  0.28431222  0.19899431  1  0  -0.402152  0  3.078381  0  0  -0.337906  0  3.362161  0  0  -0.358472  0  3.376283  0  0  -0.222643  -0.323917  0  3.352244  0
N  N33  1  0.51915907  0.21578177  0.69899095  1  0  -0.401812  0  3.078764  0  0  -0.337796  0  3.362655  0  0  -0.358336  0  3.37674  0  0  -0.222577  -0.323818  0  3.352762  0
N  N34  1  0.01936400  0.71566609  0.80102199  1  0  -0.401675  0  3.078776  0  0  -0.337597  0  3.362715  0  0  -0.358149  0  3.376833  0  0  -0.222567  -0.323608  0  3.352785  0
N  N35  1  0.48059803  0.78429638  0.30101944  1  0  -0.401831  0  3.079099  0  0  -0.337732  0  3.36297  0  0  -0.358281  0  3.377088  0  0  -0.222471  -0.323735  0  3.353008  0
N  N36  1  0.92390011  0.25118728  0.30673042  1  0  -0.092808  0  3.053952  0  0  -0.081266  0  3.34726  0  0  -0.08039  0  3.359972  0  0  -0.090481  -0.081577  0  3.338488  0
N  N37  1  0.57604421  0.24885876  0.80671892  1  0  -0.092771  0  3.053701  0  0  -0.081148  0  3.347051  0  0  -0.080274  0  3.359757  0  0  -0.090377  -0.08146  0  3.338277  0
N  N38  1  0.07612637  0.74881624  0.69328336  1  0  -0.092615  0  3.053582  0  0  -0.08103  0  3.346877  0  0  -0.080157  0  3.359593  0  0  -0.090202  -0.081339  0  3.338097  0
N  N39  1  0.42382559  0.75118546  0.19328476  1  0  -0.092245  0  3.053678  0  0  -0.080563  0  3.346888  0  0  -0.079691  0  3.3596  0  0  -0.090101  -0.080871  0  3.338108  0
N  N40  1  0.01669454  0.34654311  0.37303886  1  0  -0.133409  0  3.103463  0  0  -0.105449  0  3.392218  0  0  -0.108013  0  3.408692  0  0  -0.093743  -0.103135  0  3.380779  0
N  N41  1  0.48340547  0.15343844  0.87300167  1  0  -0.133288  0  3.102911  0  0  -0.105357  0  3.391723  0  0  -0.107929  0  3.408206  0  0  -0.093674  -0.103041  0  3.380278  0
N  N42  1  0.98319490  0.65350113  0.62696650  1  0  -0.133327  0  3.103153  0  0  -0.105336  0  3.391898  0  0  -0.107909  0  3.408379  0  0  -0.093677  -0.103015  0  3.380454  0
N  N43  1  0.51677246  0.84651175  0.12698190  1  0  -0.133422  0  3.102941  0  0  -0.105468  0  3.39168  0  0  -0.108042  0  3.408164  0  0  -0.093689  -0.103146  0  3.380231  0
N  N44  1  0.13716702  0.44469577  0.31178115  1  0  -0.408061  0  3.035827  0  0  -0.350124  0  3.313442  0  0  -0.370847  0  3.32968  0  0  -0.222431  -0.336056  0  3.302261  0
N  N45  1  0.36299535  0.05528128  0.81173688  1  0  -0.408408  0  3.036066  0  0  -0.350509  0  3.313661  0  0  -0.371237  0  3.329908  0  0  -0.222576  -0.336431  0  3.30247  0
N  N46  1  0.86271921  0.55535527  0.68822422  1  0  -0.408317  0  3.03596  0  0  -0.350408  0  3.313588  0  0  -0.371127  0  3.329812  0  0  -0.222552  -0.336337  0  3.302403  0
N  N47  1  0.63729384  0.94462427  0.18824418  1  0  -0.408303  0  3.035883  0  0  -0.350426  0  3.313668  0  0  -0.37115  0  3.329895  0  0  -0.222695  -0.336356  0  3.302489  0
N  N48  1  0.21053655  0.47981994  0.11718729  1  0  -0.479873  0  3.345158  0  0  -0.42043  0  3.602002  0  0  -0.441402  0  3.605372  0  0  -0.384703  -0.406114  0  3.599717  0
N  N49  1  0.28947520  0.02024140  0.61717255  1  0  -0.480155  0  3.345257  0  0  -0.420591  0  3.601969  0  0  -0.441575  0  3.605333  0  0  -0.384649  -0.406219  0  3.599636  0
N  N50  1  0.78942830  0.52018062  0.88280969  1  0  -0.479993  0  3.345363  0  0  -0.420424  0  3.602064  0  0  -0.441407  0  3.60545  0  0  -0.384833  -0.40619  0  3.599827  0
N  N51  1  0.71055753  0.97975532  0.38281688  1  0  -0.479885  0  3.345761  0  0  -0.420121  0  3.602324  0  0  -0.441098  0  3.60571  0  0  -0.384632  -0.405804  0  3.600023  0
N  N52  1  0.08929265  0.33055499  0.96279378  1  0  -0.417934  0  3.062391  0  0  -0.359892  0  3.346821  0  0  -0.380932  0  3.363399  0  0  -0.223247  -0.345484  0  3.335275  0
N  N53  1  0.41079640  0.16946026  0.46276922  1  0  -0.418159  0  3.062384  0  0  -0.360059  0  3.346814  0  0  -0.381102  0  3.363355  0  0  -0.223325  -0.345644  0  3.335282  0
N  N54  1  0.91069611  0.66942322  0.03720572  1  0  -0.417698  0  3.062203  0  0  -0.359621  0  3.346575  0  0  -0.380664  0  3.363164  0  0  -0.223142  -0.345211  0  3.335004  0
N  N55  1  0.58944586  0.83048123  0.53720512  1  0  -0.418115  0  3.062769  0  0  -0.3601  0  3.34722  0  0  -0.381144  0  3.363796  0  0  -0.223706  -0.345688  0  3.335677  0
N  N56  1  0.13135232  0.33876830  0.85146528  1  0  -0.092621  0  3.065908  0  0  -0.074478  0  3.354617  0  0  -0.074749  0  3.367578  0  0  -0.094926  -0.074001  0  3.345683  0
N  N57  1  0.36874093  0.16123431  0.35145187  1  0  -0.09287  0  3.066097  0  0  -0.07471  0  3.35477  0  0  -0.074993  0  3.36774  0  0  -0.094964  -0.074222  0  3.345831  0
N  N58  1  0.86863736  0.66121575  0.14853506  1  0  -0.092775  0  3.065669  0  0  -0.074645  0  3.354423  0  0  -0.074924  0  3.367389  0  0  -0.095057  -0.074162  0  3.345489  0
N  N59  1  0.63147138  0.83872952  0.64852750  1  0  -0.092486  0  3.066015  0  0  -0.074371  0  3.354742  0  0  -0.07466  0  3.367713  0  0  -0.094674  -0.07388  0  3.345798  0
N  N60  1  0.26435673  0.45070929  0.83012350  1  0  -0.090935  0  3.077932  0  0  -0.063254  0  3.362058  0  0  -0.063952  0  3.373068  0  0  -0.093908  -0.062453  0  3.354472  0
N  N61  1  0.23568844  0.04930665  0.33013120  1  0  -0.091143  0  3.077732  0  0  -0.063433  0  3.361974  0  0  -0.064127  0  3.372985  0  0  -0.093952  -0.062632  0  3.354392  0
N  N62  1  0.73557227  0.54929221  0.16987431  1  0  -0.091213  0  3.077308  0  0  -0.063492  0  3.361493  0  0  -0.064188  0  3.372506  0  0  -0.093864  -0.062692  0  3.353917  0
N  N63  1  0.76436048  0.95071439  0.66985655  1  0  -0.090989  0  3.077931  0  0  -0.063255  0  3.362132  0  0  -0.063942  0  3.373131  0  0  -0.093886  -0.062457  0  3.354554  0
N  N64  1  0.31422522  0.51998069  0.92558333  1  0  -0.37215  0  3.003135  0  0  -0.330083  0  3.280169  0  0  -0.345497  0  3.291821  0  0  -0.224102  -0.319682  0  3.272253  0
N  N65  1  0.18578820  0.98005876  0.42559691  1  0  -0.371868  0  3.002644  0  0  -0.329952  0  3.279851  0  0  -0.345374  0  3.291494  0  0  -0.22402  -0.31955  0  3.271949  0
N  N66  1  0.68567571  0.48002953  0.07441029  1  0  -0.37156  0  3.002846  0  0  -0.329693  0  3.280022  0  0  -0.345098  0  3.291672  0  0  -0.223934  -0.319302  0  3.272097  0
N  N67  1  0.81417627  0.01998069  0.57439503  1  0  -0.371969  0  3.003276  0  0  -0.330172  0  3.2805  0  0  -0.345576  0  3.292133  0  0  -0.224131  -0.319778  0  3.272597  0
O  O68  1  0.13536915  0.05585452  0.10493854  1  0  -0.854803  0  1.922254  0  0  -0.772431  0  2.130088  0  0  -0.800338  0  2.099931  0  0  -0.549485  -0.752466  0  2.150825  0
O  O69  1  0.36452121  0.44415156  0.60496599  1  0  -0.854894  0  1.922283  0  0  -0.772414  0  2.130062  0  0  -0.800324  0  2.099917  0  0  -0.549611  -0.752443  0  2.150807  0
O  O70  1  0.86470092  0.94410140  0.89505593  1  0  -0.85451  0  1.92217  0  0  -0.772138  0  2.129827  0  0  -0.80004  0  2.099684  0  0  -0.549549  -0.752182  0  2.150562  0
O  O71  1  0.63531691  0.55592181  0.39508555  1  0  -0.8549  0  1.922478  0  0  -0.772488  0  2.130244  0  0  -0.800402  0  2.100099  0  0  -0.54965  -0.752493  0  2.150918  0
O  O72  1  0.49850918  0.23169095  0.13187999  1  0  -0.849078  0  1.977737  0  0  -0.776198  0  2.18982  0  0  -0.800187  0  2.15813  0  0  -0.560904  -0.759025  0  2.211775  0
O  O73  1  0.00148822  0.26833409  0.63187105  1  0  -0.848922  0  1.977558  0  0  -0.776169  0  2.189828  0  0  -0.800196  0  2.158223  0  0  -0.560985  -0.758948  0  2.211644  0
O  O74  1  0.50151511  0.76827465  0.86809853  1  0  -0.849113  0  1.978257  0  0  -0.776031  0  2.189995  0  0  -0.800018  0  2.158288  0  0  -0.560792  -0.758865  0  2.211966  0
O  O75  1  0.99851618  0.73168886  0.36813013  1  0  -0.849186  0  1.9776  0  0  -0.776239  0  2.189743  0  0  -0.800227  0  2.158042  0  0  -0.560854  -0.759079  0  2.211707  0
