# generated using pymatgen
data_TlH8AuC22(NCl5)2
_symmetry_space_group_name_H-M   'P 1'
_cell_length_a   12.04465039
_cell_length_b   11.82502024
_cell_length_c   22.06793612
_cell_angle_alpha   90.00026692
_cell_angle_beta   89.99997512
_cell_angle_gamma   106.23663997
_symmetry_Int_Tables_number   1
_chemical_formula_structural   TlH8AuC22(NCl5)2
_chemical_formula_sum   'Tl4 H32 Au4 C88 N8 Cl40'
_cell_volume   3017.73499626
_cell_formula_units_Z   4
loop_
 _symmetry_equiv_pos_site_id
 _symmetry_equiv_pos_as_xyz
  1  'x, y, z'
loop_
 _atom_site_type_symbol
 _atom_site_label
 _atom_site_symmetry_multiplicity
 _atom_site_fract_x
 _atom_site_fract_y
 _atom_site_fract_z
 _atom_site_occupancy
 _atom_site_pbe_bader_charge
 _atom_site_pbe_bader_spin_density
 _atom_site_pbe_cm5_charge
 _atom_site_pbe_ddec_charge
 _atom_site_pbe_ddec_spin_density
 _atom_site_pbe_ddec_sum_bond_order
 _atom_site_pbe_magmom
Tl  Tl0  1  0.74163453  0.46188540  0.50498604  1  0.698712  0  0.216335  0.428329  0  1.72816  0
Tl  Tl1  1  0.74163004  0.96188840  0.99501800  1  0.698716  0  0.216318  0.428317  0  1.728098  0
Tl  Tl2  1  0.25837558  0.53811812  0.49501294  1  0.698743  0  0.21634  0.428356  0  1.728021  0
Tl  Tl3  1  0.25836661  0.03810544  0.00498370  1  0.698687  0  0.216319  0.428357  0  1.728091  0
H  H4  1  0.67335158  0.66535606  0.59312822  1  0.100585  0  0.097255  0.069921  0  1.057073  0
H  H5  1  0.67335378  0.16537528  0.90687283  1  0.100692  0  0.097236  0.069745  0  1.057379  0
H  H6  1  0.32663648  0.33463075  0.40686985  1  0.100356  0  0.097283  0.069946  0  1.057148  0
H  H7  1  0.32663759  0.83462651  0.09312569  1  0.100199  0  0.097235  0.069806  0  1.057304  0
H  H8  1  0.65705927  0.75025644  0.69479076  1  0.074974  0  0.103714  0.112234  0  1.013147  0
H  H9  1  0.65704759  0.25025535  0.80520915  1  0.074875  0  0.103666  0.11222  0  1.013074  0
H  H10  1  0.34293869  0.24973917  0.30520822  1  0.074873  0  0.103696  0.112257  0  1.013074  0
H  H11  1  0.34294436  0.74974555  0.19478937  1  0.07495  0  0.103687  0.112256  0  1.013124  0
H  H12  1  0.84202483  0.51450961  0.76722855  1  0.092574  0  0.0957  0.105314  0  1.043613  0
H  H13  1  0.84200284  0.01449819  0.73277477  1  0.092485  0  0.095717  0.105348  0  1.043622  0
H  H14  1  0.15798089  0.48549303  0.23276906  1  0.092565  0  0.095714  0.105368  0  1.043433  0
H  H15  1  0.15799555  0.98550799  0.26722557  1  0.092427  0  0.095749  0.105376  0  1.043515  0
H  H16  1  0.85236056  0.44233059  0.66215837  1  0.087759  0  0.104523  0.074663  0  1.029954  0
H  H17  1  0.85235435  0.94233919  0.83784829  1  0.087914  0  0.104428  0.074464  0  1.030043  0
H  H18  1  0.14764346  0.55766589  0.33784106  1  0.088099  0  0.104472  0.074596  0  1.030105  0
H  H19  1  0.14764259  0.05766170  0.16215205  1  0.088038  0  0.104457  0.074566  0  1.030096  0
H  H20  1  0.55986283  0.78916889  0.89144311  1  0.099786  0  0.103377  0.078015  0  1.03631  0
H  H21  1  0.55985247  0.28916335  0.60855603  1  0.099972  0  0.103449  0.078061  0  1.036695  0
H  H22  1  0.44013928  0.21082671  0.10855859  1  0.10007  0  0.103384  0.077953  0  1.036649  0
H  H23  1  0.44016037  0.71084104  0.39143343  1  0.099652  0  0.103461  0.07805  0  1.036657  0
H  H24  1  0.56548801  0.70348033  0.78882715  1  0.083577  0  0.110975  0.123242  0  0.985194  0
H  H25  1  0.56547110  0.20347222  0.71117313  1  0.083115  0  0.110978  0.123233  0  0.985146  0
H  H26  1  0.43451411  0.29651526  0.21117273  1  0.083507  0  0.11098  0.123242  0  0.985182  0
H  H27  1  0.43452930  0.79653219  0.28882041  1  0.083099  0  0.110992  0.123245  0  0.985213  0
H  H28  1  0.90814518  0.67800154  0.83232500  1  0.095738  0  0.102338  0.116903  0  1.009711  0
H  H29  1  0.90813246  0.17799655  0.66768233  1  0.09608  0  0.102386  0.117005  0  1.009811  0
H  H30  1  0.09186293  0.32200374  0.16767352  1  0.096034  0  0.102371  0.11694  0  1.009798  0
H  H31  1  0.09188052  0.82201137  0.33232163  1  0.09619  0  0.102404  0.117032  0  1.009888  0
H  H32  1  0.88619745  0.76203388  0.93358152  1  0.121244  0  0.093518  0.064849  0  1.066602  0
H  H33  1  0.88619481  0.26202616  0.56642150  1  0.121379  0  0.093417  0.064684  0  1.066436  0
H  H34  1  0.11381256  0.23797228  0.06641745  1  0.121371  0  0.093437  0.064705  0  1.066544  0
H  H35  1  0.11383014  0.73797996  0.43357793  1  0.121852  0  0.093422  0.064698  0  1.066538  0
Au  Au36  1  0.00000177  0.49999863  0.50000027  1  0.072093  0  0.238138  -0.03548  0  3.070814  0
Au  Au37  1  0.99999861  0.00000450  0.00000071  1  0.072121  0  0.238179  -0.035436  0  3.070877  0
Au  Au38  1  0.50000369  0.50000132  0.50000379  1  0.06567  0  0.226391  -0.051666  0  3.065927  0
Au  Au39  1  0.49999756  0.99999182  0.00000479  1  0.065532  0  0.22645  -0.051605  0  3.065759  0
C  C40  1  0.98071286  0.36510570  0.43735019  1  0.002797  0  -0.172202  -0.24655  0  4.043721  0
C  C41  1  0.98071067  0.86511352  0.06264972  1  0.002678  0  -0.172166  -0.24654  0  4.043759  0
C  C42  1  0.01928520  0.63488726  0.56265106  1  0.002609  0  -0.172194  -0.246606  0  4.043699  0
C  C43  1  0.01928606  0.13489266  0.93734972  1  0.002799  0  -0.172173  -0.246705  0  4.04384  0
C  C44  1  0.93304533  0.37153683  0.37971817  1  0.060895  0  -0.011745  0.088685  0  4.0578  0
C  C45  1  0.93303745  0.87154519  0.12028312  1  0.059863  0  -0.011747  0.088638  0  4.057873  0
C  C46  1  0.06695450  0.62845348  0.62028353  1  0.059976  0  -0.011758  0.088728  0  4.057822  0
C  C47  1  0.06695669  0.12846364  0.87971903  1  0.060811  0  -0.011802  0.088686  0  4.057818  0
C  C48  1  0.92974777  0.28834327  0.33379443  1  0.146912  0  -0.008209  0.024381  0  4.04795  0
C  C49  1  0.92974314  0.78834236  0.16620485  1  0.14807  0  -0.00808  0.024579  0  4.047685  0
C  C50  1  0.07024985  0.71165410  0.66620772  1  0.147543  0  -0.008117  0.02447  0  4.047749  0
C  C51  1  0.07025384  0.21166470  0.83379685  1  0.147485  0  -0.008226  0.024447  0  4.047917  0
C  C52  1  0.97858504  0.19531743  0.34474594  1  0.117132  0  -0.00572  0.032807  0  4.058475  0
C  C53  1  0.97858554  0.69532610  0.15525173  1  0.116915  0  -0.005736  0.032765  0  4.058481  0
C  C54  1  0.02141171  0.80467377  0.65525440  1  0.117237  0  -0.005774  0.032776  0  4.058391  0
C  C55  1  0.02141182  0.30468536  0.84474906  1  0.116591  0  -0.005671  0.032679  0  4.058726  0
C  C56  1  0.02511409  0.18379826  0.40206365  1  0.143079  0  -0.007494  0.019919  0  4.062369  0
C  C57  1  0.02511343  0.68381169  0.09793843  1  0.143305  0  -0.007565  0.01993  0  4.062483  0
C  C58  1  0.97488384  0.81619118  0.59793850  1  0.143276  0  -0.007582  0.019938  0  4.062471  0
C  C59  1  0.97488013  0.31619803  0.90206554  1  0.142909  0  -0.00761  0.019906  0  4.062412  0
C  C60  1  0.02348632  0.26747777  0.44710331  1  0.076106  0  -0.011647  0.083995  0  4.059136  0
C  C61  1  0.02348362  0.76748373  0.05289762  1  0.075919  0  -0.011639  0.084024  0  4.059261  0
C  C62  1  0.97651437  0.73251871  0.55290065  1  0.076246  0  -0.011554  0.084054  0  4.059112  0
C  C63  1  0.97651453  0.23252156  0.94710408  1  0.076057  0  -0.011571  0.084186  0  4.058907  0
C  C64  1  0.56400269  0.68026524  0.48873245  1  0.010521  0  -0.174314  -0.251692  0  4.056668  0
C  C65  1  0.56399266  0.18025175  0.01126986  1  0.010748  0  -0.174309  -0.251636  0  4.056276  0
C  C66  1  0.43601020  0.31974532  0.51127015  1  0.010697  0  -0.174318  -0.251656  0  4.05647  0
C  C67  1  0.43600166  0.81973065  0.98873365  1  0.010804  0  -0.174231  -0.251545  0  4.056587  0
C  C68  1  0.63233405  0.72875316  0.43832181  1  0.01882  0  -0.0149  0.079999  0  4.079619  0
C  C69  1  0.63232891  0.22874541  0.06167834  1  0.019042  0  -0.014923  0.080032  0  4.079347  0
C  C70  1  0.36767181  0.27125300  0.56167989  1  0.018786  0  -0.01498  0.079914  0  4.079522  0
C  C71  1  0.36766759  0.77124491  0.93832562  1  0.018893  0  -0.014949  0.079891  0  4.079422  0
C  C72  1  0.68308838  0.85028023  0.43079519  1  0.156904  0  -0.009854  0.020376  0  4.060496  0
C  C73  1  0.68308540  0.35027431  0.06920252  1  0.156034  0  -0.009811  0.020429  0  4.060547  0
C  C74  1  0.31691157  0.14972859  0.56920379  1  0.156494  0  -0.009804  0.020512  0  4.060417  0
C  C75  1  0.31690564  0.64971426  0.93079736  1  0.156729  0  -0.009857  0.020531  0  4.06058  0
C  C76  1  0.66694262  0.92847201  0.47574467  1  0.187104  0  -0.006707  0.026504  0  4.082139  0
C  C77  1  0.66694292  0.42845686  0.02424871  1  0.187665  0  -0.006773  0.026399  0  4.082382  0
C  C78  1  0.33305367  0.07153858  0.52425114  1  0.187568  0  -0.006788  0.026351  0  4.082183  0
C  C79  1  0.33305198  0.57152465  0.97574573  1  0.187132  0  -0.006708  0.026389  0  4.08211  0
C  C80  1  0.59766494  0.88406428  0.52641905  1  0.061588  0  -0.008659  0.019274  0  4.061584  0
C  C81  1  0.59766572  0.38404534  0.97357669  1  0.062549  0  -0.00855  0.019383  0  4.062021  0
C  C82  1  0.40233388  0.11595248  0.47357539  1  0.062451  0  -0.008555  0.019404  0  4.061576  0
C  C83  1  0.40233378  0.61593176  0.02642184  1  0.061405  0  -0.008588  0.019408  0  4.061583  0
C  C84  1  0.54627864  0.76206162  0.53129793  1  0.076941  0  -0.00985  0.089974  0  4.043761  0
C  C85  1  0.54626943  0.26205764  0.96870386  1  0.076596  0  -0.009933  0.089853  0  4.043929  0
C  C86  1  0.45372795  0.23794719  0.46870286  1  0.076523  0  -0.009883  0.089917  0  4.043832  0
C  C87  1  0.45372625  0.73793268  0.03129693  1  0.076951  0  -0.009987  0.089802  0  4.044026  0
C  C88  1  0.70900910  0.63395245  0.63306802  1  0.474892  0  0.037968  0.093278  0  3.981931  0
C  C89  1  0.70899676  0.13397309  0.86693792  1  0.473592  0  0.03772  0.093276  0  3.981792  0
C  C90  1  0.29098560  0.36603435  0.36693322  1  0.47479  0  0.037859  0.093167  0  3.981935  0
C  C91  1  0.29099044  0.86604368  0.13305652  1  0.475545  0  0.037996  0.093377  0  3.981733  0
C  C92  1  0.69956883  0.68060335  0.69005665  1  -0.023279  0  -0.087277  -0.175215  0  3.942159  0
C  C93  1  0.69955848  0.18060407  0.80994625  1  -0.022692  0  -0.087102  -0.175135  0  3.942106  0
C  C94  1  0.30043279  0.31939048  0.30994233  1  -0.022921  0  -0.087131  -0.175067  0  3.941811  0
C  C95  1  0.30043694  0.81940035  0.19005636  1  -0.023523  0  -0.087237  -0.175273  0  3.941762  0
C  C96  1  0.74729924  0.63829382  0.74022711  1  -0.00045  0  0.007378  0.106287  0  3.982642  0
C  C97  1  0.74728331  0.13829233  0.75977384  1  -0.000466  0  0.007403  0.106224  0  3.982457  0
C  C98  1  0.25270648  0.36170882  0.25977142  1  -0.00045  0  0.007364  0.10624  0  3.982445  0
C  C99  1  0.25271118  0.86171474  0.24022242  1  -0.000588  0  0.007383  0.106359  0  3.982784  0
C  C100  1  0.80382736  0.55124865  0.72996096  1  -0.059957  0  -0.088827  -0.174164  0  3.930394  0
C  C101  1  0.80381951  0.05124635  0.77003975  1  -0.059975  0  -0.08875  -0.17411  0  3.929915  0
C  C102  1  0.19617099  0.44875136  0.27004028  1  -0.059991  0  -0.088836  -0.174248  0  3.93027  0
C  C103  1  0.19618167  0.94875189  0.22996195  1  -0.060008  0  -0.088751  -0.174159  0  3.930035  0
C  C104  1  0.80874373  0.50994039  0.67129661  1  0.486014  0  0.040537  0.101211  0  3.971673  0
C  C105  1  0.80873454  0.00994833  0.82871170  1  0.485558  0  0.040557  0.10135  0  3.971876  0
C  C106  1  0.19125482  0.49005434  0.32870237  1  0.484964  0  0.040574  0.101351  0  3.971853  0
C  C107  1  0.19126029  0.99005697  0.17128728  1  0.486114  0  0.040586  0.101307  0  3.971751  0
C  C108  1  0.63506662  0.76218464  0.87679783  1  0.525584  0  0.040588  0.099419  0  3.975794  0
C  C109  1  0.63505146  0.26218276  0.62319759  1  0.524625  0  0.040553  0.099365  0  3.975471  0
C  C110  1  0.36494009  0.23780655  0.12320115  1  0.525039  0  0.040661  0.099593  0  3.975438  0
C  C111  1  0.36496256  0.73781987  0.37679776  1  0.524566  0  0.040615  0.099524  0  3.974571  0
C  C112  1  0.63913186  0.71560282  0.81928582  1  -0.059281  0  -0.08446  -0.172528  0  3.930544  0
C  C113  1  0.63912363  0.21559000  0.68071673  1  -0.058517  0  -0.084449  -0.172388  0  3.930332  0
C  C114  1  0.36086302  0.28439367  0.18071452  1  -0.05918  0  -0.084459  -0.172548  0  3.93069  0
C  C115  1  0.36088560  0.78442232  0.31927772  1  -0.058732  0  -0.084502  -0.172496  0  3.930219  0
C  C116  1  0.73835133  0.68416920  0.80151654  1  -0.023651  0  0.008708  0.102734  0  3.988734  0
C  C117  1  0.73832693  0.18416099  0.69848589  1  -0.023705  0  0.008534  0.102702  0  3.988865  0
C  C118  1  0.26166185  0.31583342  0.19848198  1  -0.023821  0  0.00866  0.102775  0  3.988878  0
C  C119  1  0.26168226  0.81584517  0.30151445  1  -0.023672  0  0.00845  0.102522  0  3.988904  0
C  C120  1  0.82827748  0.69931133  0.84380097  1  -0.076582  0  -0.086429  -0.17405  0  3.933044  0
C  C121  1  0.82827099  0.19930181  0.65620237  1  -0.076177  0  -0.086503  -0.174348  0  3.93297  0
C  C122  1  0.17171994  0.30069133  0.15619937  1  -0.07666  0  -0.086471  -0.174185  0  3.93267  0
C  C123  1  0.17173442  0.80070876  0.34379479  1  -0.076062  0  -0.086431  -0.174236  0  3.932593  0
C  C124  1  0.81638024  0.74662863  0.90041167  1  0.507233  0  0.037008  0.08482  0  4.001295  0
C  C125  1  0.81636717  0.24662830  0.59959225  1  0.507274  0  0.037136  0.085084  0  4.001367  0
C  C126  1  0.18363124  0.25336783  0.09958730  1  0.50764  0  0.037108  0.085026  0  4.001513  0
C  C127  1  0.18365270  0.75338049  0.40041126  1  0.507092  0  0.037073  0.084969  0  4.001435  0
N  N128  1  0.76160552  0.54942178  0.62345622  1  -1.209217  0  -0.312298  -0.235058  0  3.406913  0
N  N129  1  0.76160829  0.04943102  0.87654586  1  -1.208253  0  -0.312115  -0.234911  0  3.406739  0
N  N130  1  0.23839611  0.45057206  0.37654230  1  -1.208484  0  -0.312305  -0.235158  0  3.40688  0
N  N131  1  0.23838483  0.95056812  0.12345629  1  -1.209513  0  -0.31232  -0.235077  0  3.407706  0
N  N132  1  0.72200158  0.77842773  0.91683511  1  -1.204322  0  -0.318172  -0.247502  0  3.443956  0
N  N133  1  0.72200019  0.27842457  0.58316802  1  -1.204471  0  -0.318118  -0.247539  0  3.444405  0
N  N134  1  0.27799429  0.22157229  0.08316478  1  -1.204604  0  -0.318246  -0.247642  0  3.444347  0
N  N135  1  0.27801422  0.72158246  0.41682869  1  -1.204357  0  -0.318125  -0.247491  0  3.44436  0
Cl  Cl136  1  0.88075995  0.49059410  0.36254500  1  -0.218153  0  -0.010591  -0.074677  0  1.727929  0
Cl  Cl137  1  0.88075348  0.99059556  0.13745526  1  -0.218107  0  -0.010534  -0.074611  0  1.728207  0
Cl  Cl138  1  0.11924085  0.50939974  0.63745579  1  -0.218083  0  -0.010565  -0.074661  0  1.728069  0
Cl  Cl139  1  0.11924374  0.00941238  0.86254463  1  -0.218109  0  -0.010574  -0.07466  0  1.728042  0
Cl  Cl140  1  0.87063015  0.30010701  0.26398910  1  -0.181901  0  -0.010234  -0.055038  0  1.710225  0
Cl  Cl141  1  0.87062308  0.80010939  0.23600932  1  -0.181771  0  -0.010305  -0.055143  0  1.710245  0
Cl  Cl142  1  0.12936708  0.69988595  0.73601124  1  -0.181778  0  -0.010226  -0.055043  0  1.710219  0
Cl  Cl143  1  0.12937238  0.19990120  0.76399102  1  -0.181748  0  -0.010255  -0.055082  0  1.710179  0
Cl  Cl144  1  0.98140023  0.09732242  0.28790814  1  -0.174362  0  0.006329  -0.044994  0  1.801  0
Cl  Cl145  1  0.98139857  0.59732633  0.21209199  1  -0.17458  0  0.006323  -0.045009  0  1.800846  0
Cl  Cl146  1  0.01859583  0.90267230  0.71209355  1  -0.174449  0  0.006304  -0.045065  0  1.800859  0
Cl  Cl147  1  0.01859733  0.40267985  0.78791288  1  -0.174308  0  0.006315  -0.044981  0  1.80113  0
Cl  Cl148  1  0.08530176  0.07050720  0.41548433  1  -0.176783  0  0.000557  -0.045566  0  1.692142  0
Cl  Cl149  1  0.08531113  0.57051784  0.08451472  1  -0.176672  0  0.000519  -0.045641  0  1.691899  0
Cl  Cl150  1  0.91468669  0.92948402  0.58451601  1  -0.176747  0  0.000546  -0.045605  0  1.691978  0
Cl  Cl151  1  0.91468819  0.42948569  0.91548697  1  -0.176684  0  0.000591  -0.04553  0  1.692173  0
Cl  Cl152  1  0.08380422  0.25128175  0.51693854  1  -0.219821  0  0.009876  -0.049113  0  1.756658  0
Cl  Cl153  1  0.08380043  0.75128729  0.98305979  1  -0.219799  0  0.009856  -0.049161  0  1.756571  0
Cl  Cl154  1  0.91620443  0.74871648  0.48305999  1  -0.220044  0  0.009833  -0.049154  0  1.756473  0
Cl  Cl155  1  0.91619913  0.24871713  0.01694191  1  -0.219915  0  0.009863  -0.049164  0  1.756578  0
Cl  Cl156  1  0.65425108  0.63490223  0.38180439  1  -0.21609  0  -0.017557  -0.073824  0  1.663889  0
Cl  Cl157  1  0.65424185  0.13490382  0.11820140  1  -0.216082  0  -0.017574  -0.073882  0  1.663884  0
Cl  Cl158  1  0.34576519  0.36509951  0.61819912  1  -0.216149  0  -0.017529  -0.073813  0  1.66399  0
Cl  Cl159  1  0.34574971  0.86509268  0.88180437  1  -0.216227  0  -0.017604  -0.073883  0  1.663758  0
Cl  Cl160  1  0.76525837  0.90487132  0.36818178  1  -0.170532  0  -0.012613  -0.05371  0  1.742758  0
Cl  Cl161  1  0.76525845  0.40487655  0.13181468  1  -0.170455  0  -0.012601  -0.053702  0  1.742717  0
Cl  Cl162  1  0.23473383  0.09513046  0.63181630  1  -0.170498  0  -0.01262  -0.053756  0  1.742579  0
Cl  Cl163  1  0.23472936  0.59512436  0.86818611  1  -0.170531  0  -0.012588  -0.053736  0  1.742763  0
Cl  Cl164  1  0.73090946  0.07661218  0.46863508  1  -0.162765  0  0.016815  -0.019634  0  1.738176  0
Cl  Cl165  1  0.73091204  0.57660119  0.03135467  1  -0.163153  0  0.016771  -0.019649  0  1.738109  0
Cl  Cl166  1  0.26908009  0.92340107  0.53135619  1  -0.163216  0  0.016781  -0.019636  0  1.738303  0
Cl  Cl167  1  0.26908159  0.42338473  0.96863887  1  -0.162745  0  0.016787  -0.019635  0  1.738164  0
Cl  Cl168  1  0.57809178  0.97889254  0.58157749  1  -0.182043  0  0.004266  -0.040643  0  1.743772  0
Cl  Cl169  1  0.57808731  0.47886958  0.91841488  1  -0.182371  0  0.004283  -0.040634  0  1.743645  0
Cl  Cl170  1  0.42190148  0.02112511  0.41841515  1  -0.182291  0  0.004318  -0.040588  0  1.743791  0
Cl  Cl171  1  0.42190873  0.52110400  0.08158002  1  -0.181938  0  0.004262  -0.040669  0  1.743779  0
Cl  Cl172  1  0.45720657  0.71179272  0.59345232  1  -0.217165  0  -0.000275  -0.069605  0  1.682441  0
Cl  Cl173  1  0.45719309  0.21177319  0.90655165  1  -0.217159  0  -0.000246  -0.069553  0  1.682479  0
Cl  Cl174  1  0.54279982  0.28822137  0.40654757  1  -0.217022  0  -0.000278  -0.069586  0  1.68244  0
Cl  Cl175  1  0.54279787  0.78820304  0.09345276  1  -0.217184  0  -0.000212  -0.069513  0  1.682434  0
