# generated using pymatgen
data_Zr3H15(C13O12)2
_symmetry_space_group_name_H-M   'P 1'
_cell_length_a   14.79668374
_cell_length_b   14.76595396
_cell_length_c   14.83577815
_cell_angle_alpha   59.45315167
_cell_angle_beta   59.69246190
_cell_angle_gamma   59.95197419
_symmetry_Int_Tables_number   1
_chemical_formula_structural   Zr3H15(C13O12)2
_chemical_formula_sum   'Zr6 H30 C52 O48'
_cell_volume   2276.28687334
_cell_formula_units_Z   2
loop_
 _symmetry_equiv_pos_site_id
 _symmetry_equiv_pos_as_xyz
  1  'x, y, z'
loop_
 _atom_site_type_symbol
 _atom_site_label
 _atom_site_symmetry_multiplicity
 _atom_site_fract_x
 _atom_site_fract_y
 _atom_site_fract_z
 _atom_site_occupancy
 _atom_site_pbe_bader_charge
 _atom_site_pbe_bader_spin_density
 _atom_site_pbe_cm5_charge
 _atom_site_pbe_ddec_charge
 _atom_site_pbe_ddec_spin_density
 _atom_site_pbe_ddec_sum_bond_order
 _atom_site_pbe_magmom
Zr  Zr0  1  0.86318429  0.88745345  0.62564972  1  2.631503  0  1.629697  2.365007  0  2.741358  0
Zr  Zr1  1  0.10405084  0.12486307  0.38870666  1  2.632279  0  1.633776  2.366625  0  2.782084  0
Zr  Zr2  1  0.10175472  0.88502368  0.62711246  1  2.636506  0  1.638188  2.372168  0  2.771279  0
Zr  Zr3  1  0.86532034  0.13038920  0.38439087  1  2.637931  0  1.631597  2.369682  0  2.726839  0
Zr  Zr4  1  0.10108869  0.88911604  0.38764668  1  2.63276  0  1.637071  2.368185  0  2.770461  0
Zr  Zr5  1  0.86409840  0.12584608  0.62541438  1  2.632183  0  1.635854  2.369982  0  2.769787  0
H  H6  1  0.07091417  0.72170116  0.60316242  1  0.631703  0  0.317857  0.413105  0  0.897464  0
H  H7  1  0.07415577  0.10624089  0.22218735  1  0.65856  0  0.313322  0.406515  0  0.91848  0
H  H8  1  0.07835020  0.09848263  0.60166486  1  0.598401  0  0.33262  0.426432  0  0.852729  0
H  H9  1  0.70031695  0.10370442  0.60050919  1  0.605129  0  0.33383  0.427949  0  0.848973  0
H  H10  1  0.13590622  0.58583116  0.37294850  1  0.144766  0  0.118882  0.144599  0  0.976562  0
H  H11  1  0.81369347  0.44899721  0.61963679  1  0.135221  0  0.117614  0.141834  0  0.981371  0
H  H12  1  0.58209546  0.13956115  0.93036570  1  0.106824  0  0.117461  0.141818  0  0.980694  0
H  H13  1  0.40891103  0.84830328  0.10784223  1  0.126759  0  0.117358  0.142408  0  0.981039  0
H  H14  1  0.82159977  0.13727750  0.10697571  1  0.10965  0  0.122333  0.15341  0  0.969677  0
H  H15  1  0.12338373  0.85802811  0.92785252  1  0.136399  0  0.122777  0.148386  0  0.968236  0
H  H16  1  0.58151319  0.43462485  0.34889859  1  0.142092  0  0.120175  0.145879  0  0.97203  0
H  H17  1  0.41020164  0.60597175  0.63696526  1  0.112435  0  0.118629  0.143429  0  0.976671  0
H  H18  1  0.56940474  0.86076688  0.65198748  1  0.105525  0  0.118611  0.144532  0  0.977138  0
H  H19  1  0.41147607  0.13805633  0.34928039  1  0.144743  0  0.117762  0.143149  0  0.979526  0
H  H20  1  0.15116388  0.34217178  0.36895368  1  0.631311  0  0.308409  0.348884  0  0.97325  0
H  H21  1  0.80128414  0.68986829  0.62726800  1  0.634624  0  0.312206  0.355871  0  0.960876  0
H  H22  1  0.34331281  0.14991842  0.16873715  1  0.642981  0  0.30941  0.351537  0  0.971472  0
H  H23  1  0.65012338  0.83454742  0.87202616  1  0.630861  0  0.311296  0.355991  0  0.961436  0
H  H24  1  0.81338276  0.14362383  0.87009231  1  0.6353  0  0.310648  0.354089  0  0.965936  0
H  H25  1  0.13132265  0.85044868  0.16471755  1  0.624203  0  0.310578  0.353315  0  0.969687  0
H  H26  1  0.34004062  0.67047956  0.34248049  1  0.633931  0  0.308788  0.351404  0  0.972197  0
H  H27  1  0.65043707  0.36931727  0.64487742  1  0.636566  0  0.309301  0.350727  0  0.972054  0
H  H28  1  0.33441670  0.84680723  0.66018534  1  0.635862  0  0.30994  0.352166  0  0.969845  0
H  H29  1  0.64679386  0.15158457  0.34107411  1  0.64144  0  0.309743  0.353027  0  0.967831  0
H  H30  1  0.05497546  0.41582617  0.21499141  1  0.634668  0  0.316394  0.356093  0  0.943068  0
H  H31  1  0.04688328  0.72294995  0.90586438  1  0.642211  0  0.315348  0.356491  0  0.952534  0
H  H32  1  0.12045233  0.12519563  0.03086745  1  0.627595  0  0.330639  0.360901  0  0.886796  0
H  H33  1  0.03307823  0.14637815  0.92133065  1  0.600004  0  0.303299  0.329648  0  0.983552  0
H  H34  1  0.10601468  0.28687626  0.70378758  1  0.632058  0  0.335973  0.37483  0  0.871222  0
H  H35  1  0.08604560  0.52692450  0.63279637  1  0.62471  0  0.32792  0.363162  0  0.901823  0
C  C36  1  0.97509984  0.71223141  0.49576257  1  1.525524  0  0.234285  0.646803  0  4.091444  0
C  C37  1  0.29488311  0.99970688  0.20795756  1  1.505909  0  0.237566  0.658007  0  4.065348  0
C  C38  1  0.98001894  0.31605956  0.50422905  1  1.487788  0  0.235  0.649901  0  4.079172  0
C  C39  1  0.68603739  0.99862700  0.81953653  1  1.49322  0  0.238726  0.658372  0  4.066031  0
C  C40  1  0.98839356  0.69424622  0.80586473  1  1.525105  0  0.238237  0.672829  0  4.06349  0
C  C41  1  0.67967769  0.00538525  0.50517474  1  1.491088  0  0.236374  0.653537  0  4.068991  0
C  C42  1  0.99665958  0.30715447  0.19586141  1  1.508408  0  0.238438  0.674553  0  4.06854  0
C  C43  1  0.29371690  0.00134250  0.50309644  1  1.501831  0  0.235737  0.652015  0  4.073859  0
C  C44  1  0.29361035  0.70739978  0.50126662  1  1.489888  0  0.239001  0.659305  0  4.060228  0
C  C45  1  0.97760352  0.99829902  0.81959496  1  1.517817  0  0.235984  0.649389  0  4.082012  0
C  C46  1  0.68763485  0.32220438  0.49561544  1  1.491222  0  0.23867  0.657522  0  4.064735  0
C  C47  1  0.97430575  0.00358319  0.20804190  1  1.520276  0  0.234386  0.647049  0  4.091299  0
C  C48  1  0.97800059  0.41990709  0.49817737  1  0.015889  0  -0.0316  -0.167113  0  3.999741  0
C  C49  1  0.97238698  0.61379664  0.49573995  1  -0.029118  0  -0.031438  -0.175043  0  4.01252  0
C  C50  1  0.07041660  0.45915613  0.42669385  1  0.530169  0  0.085401  0.296565  0  4.064517  0
C  C51  1  0.87943772  0.57542095  0.56622736  1  0.514879  0  0.087941  0.299078  0  4.062178  0
C  C52  1  0.06546495  0.55571206  0.42691500  1  0.01461  0  -0.091915  -0.187521  0  3.942375  0
C  C53  1  0.88425362  0.47894792  0.56571460  1  -0.000627  0  -0.089316  -0.180596  0  3.93173  0
C  C54  1  0.39922983  0.99650600  0.11280990  1  0.060427  0  -0.030465  -0.166904  0  3.998683  0
C  C55  1  0.59057651  0.99272741  0.92367030  1  -0.06009  0  -0.030692  -0.168148  0  3.998362  0
C  C56  1  0.45023661  0.07858752  0.06402153  1  0.522285  0  0.085502  0.293199  0  4.070747  0
C  C57  1  0.54271942  0.90742718  0.97577383  1  0.551728  0  0.086642  0.294129  0  4.070983  0
C  C58  1  0.54450849  0.07545295  0.96957022  1  0.048326  0  -0.091466  -0.183973  0  3.938938  0
C  C59  1  0.44711087  0.91188363  0.06894731  1  -0.028517  0  -0.092018  -0.186411  0  3.939526  0
C  C60  1  0.97231271  0.99746158  0.92255445  1  -0.088271  0  -0.030147  -0.166055  0  3.990457  0
C  C61  1  0.97330841  0.99774664  0.11179495  1  0.016074  0  -0.033258  -0.179755  0  4.006994  0
C  C62  1  0.88449843  0.07701999  0.97467342  1  0.574972  0  0.081745  0.278135  0  4.091279  0
C  C63  1  0.05882940  0.91629877  0.06171141  1  0.520772  0  0.086732  0.292172  0  4.068523  0
C  C64  1  0.88770107  0.07627029  0.06752558  1  -0.014109  0  -0.095918  -0.206369  0  3.952615  0
C  C65  1  0.05663627  0.91853923  0.96751737  1  0.032469  0  -0.085311  -0.17081  0  3.917464  0
C  C66  1  0.39879155  0.61333459  0.49399888  1  0.053751  0  -0.029102  -0.163328  0  3.99053  0
C  C67  1  0.59140234  0.42553069  0.49362172  1  0.004228  0  -0.029746  -0.166252  0  3.994863  0
C  C68  1  0.44903570  0.56606034  0.40958657  1  0.486699  0  0.084951  0.29038  0  4.071868  0
C  C69  1  0.54389746  0.47579669  0.57507947  1  0.516687  0  0.085667  0.292609  0  4.06823  0
C  C70  1  0.54417344  0.47256293  0.41161645  1  -0.002189  0  -0.090819  -0.184853  0  3.93517  0
C  C71  1  0.44807393  0.56852489  0.57376530  1  0.015195  0  -0.090001  -0.183284  0  3.935547  0
C  C72  1  0.01231430  0.58435573  0.89316992  1  0.027666  0  -0.032272  -0.202771  0  3.943234  0
C  C73  1  0.02268020  0.48382748  0.89004009  1  0.043358  0  -0.014077  -0.017569  0  4.012596  0
C  C74  1  0.02816561  0.58183630  0.97998059  1  0.58478  0  0.094671  0.219899  0  4.023236  0
C  C75  1  0.04554102  0.47312716  0.79035723  1  0.488785  0  0.059777  0.145887  0  4.050596  0
C  C76  1  0.06092717  0.37214853  0.79053347  1  0.523846  0  0.051427  0.095385  0  4.162214  0
C  C77  1  0.01908006  0.39336037  0.08478967  1  0.067049  0  -0.03202  -0.199332  0  3.968163  0
C  C78  1  0.03121847  0.48481166  0.07760132  1  0.541915  0  0.091819  0.214139  0  4.035831  0
C  C79  1  0.02632073  0.38594174  0.98863602  1  0.071931  0  -0.019101  -0.02777  0  4.026271  0
C  C80  1  0.05294750  0.28242861  0.98237194  1  0.465061  0  0.060791  0.150091  0  4.073862  0
C  C81  1  0.06293566  0.27752456  0.88666003  1  0.50801  0  0.03471  0.050958  0  4.148193  0
C  C82  1  0.39586117  0.99751797  0.50189512  1  -0.042839  0  -0.031403  -0.168135  0  4.000806  0
C  C83  1  0.58389358  0.00244039  0.50045219  1  0.006048  0  -0.029394  -0.163666  0  3.994308  0
C  C84  1  0.44203951  0.91656750  0.58792071  1  0.514399  0  0.085209  0.29229  0  4.072735  0
C  C85  1  0.53987058  0.08110420  0.41249330  1  0.521126  0  0.085287  0.292389  0  4.075073  0
C  C86  1  0.53500139  0.92124488  0.58554776  1  0.052907  0  -0.091025  -0.185982  0  3.939119  0
C  C87  1  0.44623922  0.07721315  0.41541068  1  0.034753  0  -0.091843  -0.185405  0  3.939723  0
O  O88  1  0.89525393  0.75583079  0.57008419  1  -1.184948  0  -0.351  -0.628662  0  2.345158  0
O  O89  1  0.25314661  0.07811094  0.24780346  1  -1.185902  0  -0.352878  -0.630363  0  2.323756  0
O  O90  1  0.06160035  0.27149476  0.43059639  1  -1.18984  0  -0.354722  -0.637095  0  2.326976  0
O  O91  1  0.72702917  0.92143298  0.77824489  1  -1.188045  0  -0.354432  -0.635334  0  2.30982  0
O  O92  1  0.05137639  0.75008452  0.77349302  1  -1.189439  0  -0.377394  -0.662742  0  2.344361  0
O  O93  1  0.72008733  0.08456685  0.42815668  1  -1.181936  0  -0.348832  -0.62908  0  2.31576  0
O  O94  1  0.91652857  0.27290321  0.23414189  1  -1.160934  0  -0.3384  -0.588597  0  2.237173  0
O  O95  1  0.24996678  0.92526850  0.58295709  1  -1.195632  0  -0.352266  -0.632926  0  2.318151  0
O  O96  1  0.24981443  0.74627549  0.42656439  1  -1.182454  0  -0.35307  -0.630813  0  2.319627  0
O  O97  1  0.90200148  0.07749351  0.77651892  1  -1.189006  0  -0.349356  -0.629566  0  2.322816  0
O  O98  1  0.72532995  0.27728546  0.57646899  1  -1.180256  0  -0.354396  -0.634106  0  2.323996  0
O  O99  1  0.05597918  0.92986217  0.24471231  1  -1.187467  0  -0.353432  -0.631624  0  2.329721  0
O  O100  1  0.05571816  0.92404561  0.77771235  1  -1.190422  0  -0.345152  -0.606703  0  2.268356  0
O  O101  1  0.72797036  0.28016834  0.42089337  1  -1.180317  0  -0.353467  -0.611948  0  2.264366  0
O  O102  1  0.89878116  0.07938095  0.24838545  1  -1.177503  0  -0.345294  -0.599733  0  2.290562  0
O  O103  1  0.24994468  0.74505850  0.57989992  1  -1.182625  0  -0.35387  -0.611729  0  2.2739  0
O  O104  1  0.90938529  0.73196941  0.77099005  1  -1.164033  0  -0.334399  -0.588382  0  2.221276  0
O  O105  1  0.25158535  0.07933489  0.42811129  1  -1.1894  0  -0.357481  -0.617417  0  2.282053  0
O  O106  1  0.05947172  0.27585117  0.25059871  1  -1.187636  0  -0.371066  -0.659615  0  2.302783  0
O  O107  1  0.71697706  0.93198173  0.58476618  1  -1.185435  0  -0.355744  -0.613716  0  2.283985  0
O  O108  1  0.72255844  0.07958956  0.77346349  1  -1.183587  0  -0.357805  -0.617525  0  2.280505  0
O  O109  1  0.05670609  0.74786501  0.42507260  1  -1.18183  0  -0.358667  -0.613622  0  2.284905  0
O  O110  1  0.24981112  0.92734810  0.24561987  1  -1.184174  0  -0.356567  -0.614024  0  2.277926  0
O  O111  1  0.90448685  0.27377909  0.58089890  1  -1.188799  0  -0.354776  -0.613871  0  2.278086  0
O  O112  1  0.78071751  0.07662995  0.57351953  1  -1.229647  0  -0.691529  -1.063568  0  2.34139  0
O  O113  1  0.05062010  0.07199041  0.57585726  1  -1.223519  0  -0.698322  -1.071935  0  2.366518  0
O  O114  1  0.05144512  0.07598925  0.30344502  1  -1.280125  0  -0.699848  -1.068887  0  2.355179  0
O  O115  1  0.04863262  0.80300022  0.57423928  1  -1.253062  0  -0.695713  -1.065848  0  2.341513  0
O  O116  1  0.13198733  0.95612122  0.45799457  1  -1.199257  0  -0.79938  -1.149021  0  2.153781  0
O  O117  1  0.93225907  0.96042151  0.45680932  1  -1.197917  0  -0.794558  -1.145395  0  2.1492  0
O  O118  1  0.93491666  0.15650398  0.45664942  1  -1.197054  0  -0.795684  -1.14756  0  2.147904  0
O  O119  1  0.93303663  0.95682397  0.65461982  1  -1.198086  0  -0.796822  -1.148817  0  2.153095  0
O  O120  1  0.16432572  0.40643950  0.35977404  1  -1.142884  0  -0.356282  -0.434045  0  2.24588  0
O  O121  1  0.78652158  0.62781536  0.63385824  1  -1.132167  0  -0.353381  -0.432341  0  2.243582  0
O  O122  1  0.41097374  0.16065480  0.10374974  1  -1.144303  0  -0.356419  -0.435038  0  2.245519  0
O  O123  1  0.58427902  0.82269267  0.93891598  1  -1.133169  0  -0.355073  -0.433719  0  2.242216  0
O  O124  1  0.79836596  0.15373116  0.93828484  1  -1.141603  0  -0.35416  -0.42869  0  2.249959  0
O  O125  1  0.14392708  0.83799583  0.09877700  1  -1.126243  0  -0.351198  -0.425791  0  2.245519  0
O  O126  1  0.40811568  0.60651889  0.32796524  1  -1.138211  0  -0.357895  -0.43844  0  2.245972  0
O  O127  1  0.58653541  0.43745895  0.65480787  1  -1.135411  0  -0.356917  -0.43678  0  2.247958  0
O  O128  1  0.39943007  0.83590783  0.67299560  1  -1.137921  0  -0.35674  -0.434962  0  2.244729  0
O  O129  1  0.58405167  0.16020544  0.32619714  1  -1.145233  0  -0.356416  -0.436562  0  2.245039  0
O  O130  1  0.03958159  0.49181917  0.16020409  1  -1.120087  0  -0.340046  -0.399451  0  2.280078  0
O  O131  1  0.03503195  0.66824421  0.98234785  1  -1.128423  0  -0.33971  -0.400821  0  2.283526  0
O  O132  1  0.08193370  0.18260466  0.06505591  1  -1.151192  0  -0.342398  -0.427818  0  2.359331  0
O  O133  1  0.09542921  0.17565022  0.87675645  1  -1.138765  0  -0.373254  -0.465351  0  2.312104  0
O  O134  1  0.08466303  0.36547834  0.69161701  1  -1.141335  0  -0.349331  -0.431918  0  2.329194  0
O  O135  1  0.06341373  0.55770842  0.68888524  1  -1.145564  0  -0.346094  -0.430816  0  2.334373  0
