# generated using pymatgen
data_ErH14C15(NO4)2
_symmetry_space_group_name_H-M   'P 1'
_cell_length_a   8.57632510
_cell_length_b   10.22730285
_cell_length_c   10.82400477
_cell_angle_alpha   66.00224771
_cell_angle_beta   68.78721616
_cell_angle_gamma   78.61205543
_symmetry_Int_Tables_number   1
_chemical_formula_structural   ErH14C15(NO4)2
_chemical_formula_sum   'Er2 H28 C30 N4 O16'
_cell_volume   807.15820726
_cell_formula_units_Z   2
loop_
 _symmetry_equiv_pos_site_id
 _symmetry_equiv_pos_as_xyz
  1  'x, y, z'
loop_
 _atom_site_type_symbol
 _atom_site_label
 _atom_site_symmetry_multiplicity
 _atom_site_fract_x
 _atom_site_fract_y
 _atom_site_fract_z
 _atom_site_occupancy
 _atom_site_hle17_bader_spin_density
 _atom_site_hle17_ddec_charge
 _atom_site_hle17_ddec_spin_density
 _atom_site_hle17_ddec_sum_bond_order
 _atom_site_hle17_magmom
 _atom_site_hse06_10hf_bader_spin_density
 _atom_site_hse06_10hf_ddec_charge
 _atom_site_hse06_10hf_ddec_spin_density
 _atom_site_hse06_10hf_ddec_sum_bond_order
 _atom_site_hse06_10hf_magmom
 _atom_site_hse06_bader_spin_density
 _atom_site_hse06_ddec_charge
 _atom_site_hse06_ddec_spin_density
 _atom_site_hse06_ddec_sum_bond_order
 _atom_site_hse06_magmom
 _atom_site_pbe_bader_spin_density
 _atom_site_pbe_cm5_charge
 _atom_site_pbe_ddec_charge
 _atom_site_pbe_ddec_spin_density
 _atom_site_pbe_ddec_sum_bond_order
 _atom_site_pbe_magmom
Er  Er0  1  0.65909755  0.43884120  0.14895088  1  0  2.240545  0  1.635519  0  0  2.099888  0  2.111081  0  0  2.233975  0  1.911435  0  0  1.514615  2.062766  0  2.14293  0
Er  Er1  1  0.34090081  0.56115707  0.85105107  1  0  2.240548  0  1.635517  0  0  2.099912  0  2.111086  0  0  2.233988  0  1.911438  0  0  1.514659  2.062773  0  2.142946  0
H  H2  1  0.92205688  0.58516646  0.87702594  1  0  0.451703  0  0.839082  0  0  0.422846  0  0.899596  0  0  0.433602  0  0.884072  0  0  0.306324  0.415347  0  0.910639  0
H  H3  1  0.07794840  0.41482443  0.12296946  1  0  0.451577  0  0.839267  0  0  0.422759  0  0.899696  0  0  0.433516  0  0.884172  0  0  0.306327  0.415268  0  0.910725  0
H  H4  1  0.75933963  0.56975457  0.84528546  1  0  0.432849  0  0.868856  0  0  0.403528  0  0.930934  0  0  0.414171  0  0.915676  0  0  0.298997  0.396099  0  0.941814  0
H  H5  1  0.24065982  0.43024587  0.15471351  1  0  0.432849  0  0.868856  0  0  0.403516  0  0.930952  0  0  0.414161  0  0.915693  0  0  0.298994  0.39609  0  0.941832  0
H  H6  1  0.22303934  0.63910130  0.47829269  1  0  0.106651  0  0.945025  0  0  0.114854  0  1.008583  0  0  0.118647  0  1.005999  0  0  0.108696  0.112226  0  1.01049  0
H  H7  1  0.77696220  0.36090454  0.52170181  1  0  0.106658  0  0.94501  0  0  0.114859  0  1.008554  0  0  0.118649  0  1.005969  0  0  0.108677  0.112216  0  1.010485  0
H  H8  1  0.07559072  0.32277366  0.38229498  1  0  0.088871  0  0.99268  0  0  0.09767  0  1.059204  0  0  0.100208  0  1.058376  0  0  0.102301  0.096069  0  1.059304  0
H  H9  1  0.92440698  0.67723321  0.61770114  1  0  0.088839  0  0.992698  0  0  0.09762  0  1.059245  0  0  0.100168  0  1.058402  0  0  0.102266  0.096012  0  1.059348  0
H  H10  1  0.72271218  0.80588860  0.98150750  1  0  0.102278  0  0.968175  0  0  0.109209  0  1.035767  0  0  0.112983  0  1.032899  0  0  0.111364  0.106115  0  1.038667  0
H  H11  1  0.27727605  0.19411062  0.01850156  1  0  0.102286  0  0.968183  0  0  0.109282  0  1.035723  0  0  0.113052  0  1.032852  0  0  0.111385  0.106186  0  1.038613  0
H  H12  1  0.21647633  0.97384965  0.00297389  1  0  0.093693  0  0.963368  0  0  0.103251  0  1.028334  0  0  0.106604  0  1.026376  0  0  0.103833  0.100937  0  1.029486  0
H  H13  1  0.78350461  0.02616239  0.99703332  1  0  0.093717  0  0.963386  0  0  0.10331  0  1.028301  0  0  0.10667  0  1.026333  0  0  0.103881  0.100994  0  1.029449  0
H  H14  1  0.16456907  0.13580653  0.25069725  1  0  0.100059  0  0.966267  0  0  0.108632  0  1.030418  0  0  0.112008  0  1.028139  0  0  0.105184  0.106167  0  1.032147  0
H  H15  1  0.83544039  0.86419400  0.74929888  1  0  0.100093  0  0.966317  0  0  0.108668  0  1.030442  0  0  0.112045  0  1.028161  0  0  0.105204  0.106205  0  1.032166  0
H  H16  1  0.69293611  0.05549196  0.58596075  1  0  0.108919  0  0.937997  0  0  0.119309  0  0.995476  0  0  0.123448  0  0.99261  0  0  0.109177  0.116262  0  0.997632  0
H  H17  1  0.30707354  0.94450644  0.41403335  1  0  0.108881  0  0.938042  0  0  0.119289  0  0.995498  0  0  0.123412  0  0.99265  0  0  0.109176  0.116246  0  0.997651  0
H  H18  1  0.68780141  0.82044654  0.44497092  1  0  0.079457  0  0.920445  0  0  0.095007  0  0.978933  0  0  0.095693  0  0.979047  0  0  0.109907  0.094417  0  0.978933  0
H  H19  1  0.31219946  0.17955177  0.55502846  1  0  0.07944  0  0.92049  0  0  0.094977  0  0.978966  0  0  0.095665  0  0.979077  0  0  0.1099  0.094395  0  0.978973  0
H  H20  1  0.63049790  0.93180750  0.28987774  1  0  0.063691  0  0.925473  0  0  0.078463  0  0.98684  0  0  0.079057  0  0.986602  0  0  0.102797  0.077911  0  0.98712  0
H  H21  1  0.36951040  0.06819195  0.71011819  1  0  0.06368  0  0.925448  0  0  0.078425  0  0.986825  0  0  0.079017  0  0.986588  0  0  0.10281  0.077881  0  0.987106  0
H  H22  1  0.91846119  0.97394982  0.17501486  1  0  0.068638  0  0.923579  0  0  0.083367  0  0.98654  0  0  0.084175  0  0.986001  0  0  0.104975  0.082718  0  0.987069  0
H  H23  1  0.08154606  0.02604635  0.82498814  1  0  0.068685  0  0.923517  0  0  0.083375  0  0.986479  0  0  0.084184  0  0.985943  0  0  0.104977  0.082729  0  0.987013  0
H  H24  1  0.97979135  0.82393013  0.31019441  1  0  0.054839  0  0.952074  0  0  0.068785  0  1.017797  0  0  0.068189  0  1.020682  0  0  0.096285  0.069018  0  1.016211  0
H  H25  1  0.02021226  0.17606497  0.68980726  1  0  0.054722  0  0.952049  0  0  0.068667  0  1.017771  0  0  0.068069  0  1.020663  0  0  0.09623  0.068898  0  1.016181  0
H  H26  1  0.56865683  0.66452662  0.35936001  1  0  0.336132  0  0.871452  0  0  0.320173  0  0.92728  0  0  0.328314  0  0.920257  0  0  0.326675  0.31451  0  0.932058  0
H  H27  1  0.43134489  0.33547708  0.64063432  1  0  0.336162  0  0.871457  0  0  0.320142  0  0.927368  0  0  0.328284  0  0.920351  0  0  0.326681  0.314482  0  0.932148  0
H  H28  1  0.04471357  0.74549139  0.09908935  1  0  0.322616  0  0.872813  0  0  0.307255  0  0.930243  0  0  0.31443  0  0.924508  0  0  0.322907  0.302355  0  0.933918  0
H  H29  1  0.95529609  0.25450588  0.90091256  1  0  0.322609  0  0.872746  0  0  0.307181  0  0.930259  0  0  0.314347  0  0.92453  0  0  0.322898  0.30227  0  0.933928  0
C  C30  1  0.34147419  0.45817075  0.33495392  1  0  0.645623  0  3.909373  0  0  0.59903  0  4.199354  0  0  0.631993  0  4.198977  0  0  0.198918  0.576022  0  4.204326  0
C  C31  1  0.65852145  0.54183076  0.66504295  1  0  0.645713  0  3.909276  0  0  0.599183  0  4.199179  0  0  0.632144  0  4.198802  0  0  0.198935  0.576161  0  4.204154  0
C  C32  1  0.16552805  0.48013561  0.42041258  1  0  -0.050885  0  3.741432  0  0  -0.029567  0  3.972501  0  0  -0.03497  0  3.992355  0  0  -0.013712  -0.025273  0  3.957889  0
C  C33  1  0.83447098  0.51987020  0.57958356  1  0  -0.05092  0  3.741528  0  0  -0.029604  0  3.972561  0  0  -0.035007  0  3.992419  0  0  -0.013646  -0.025306  0  3.957926  0
C  C34  1  0.12454043  0.57940761  0.48772051  1  0  -0.062577  0  3.707835  0  0  -0.087003  0  3.960241  0  0  -0.087248  0  3.978017  0  0  -0.077878  -0.086765  0  3.947582  0
C  C35  1  0.87545860  0.42059820  0.51227563  1  0  -0.062618  0  3.707889  0  0  -0.087045  0  3.960287  0  0  -0.087285  0  3.978055  0  0  -0.077902  -0.086791  0  3.947648  0
C  C36  1  0.04063897  0.40106092  0.43330581  1  0  -0.067855  0  3.723389  0  0  -0.090599  0  3.972415  0  0  -0.090799  0  3.991501  0  0  -0.081056  -0.090067  0  3.958279  0
C  C37  1  0.95935621  0.59894592  0.56669288  1  0  -0.067732  0  3.723398  0  0  -0.090485  0  3.972426  0  0  -0.090689  0  3.991516  0  0  -0.081008  -0.08994  0  3.958257  0
C  C38  1  0.43233961  0.74483673  0.98051764  1  0  0.713612  0  3.872411  0  0  0.669214  0  4.156951  0  0  0.705331  0  4.150721  0  0  0.229102  0.644977  0  4.164932  0
C  C39  1  0.56765349  0.25516472  0.01948459  1  0  0.713418  0  3.872866  0  0  0.669082  0  4.157302  0  0  0.705209  0  4.151073  0  0  0.228964  0.644859  0  4.165246  0
C  C40  1  0.46580746  0.87633072  0.99191733  1  0  -0.056289  0  3.74341  0  0  -0.033331  0  3.970574  0  0  -0.038644  0  3.989421  0  0  -0.011617  -0.029307  0  3.956219  0
C  C41  1  0.53417699  0.12366960  0.00808684  1  0  -0.055993  0  3.743388  0  0  -0.033064  0  3.970557  0  0  -0.038374  0  3.9894  0  0  -0.011485  -0.029043  0  3.956179  0
C  C42  1  0.62566175  0.89125631  0.98995563  1  0  -0.075792  0  3.738444  0  0  -0.099584  0  3.98942  0  0  -0.100418  0  4.008769  0  0  -0.081302  -0.098943  0  3.975978  0
C  C43  1  0.37432515  0.10874398  0.01005340  1  0  -0.075886  0  3.738452  0  0  -0.099779  0  3.989478  0  0  -0.10061  0  4.008825  0  0  -0.081326  -0.099116  0  3.975996  0
C  C44  1  0.34032880  0.98564330  0.00201770  1  0  -0.070842  0  3.738905  0  0  -0.093062  0  3.986856  0  0  -0.093664  0  4.006248  0  0  -0.081198  -0.092097  0  3.972907  0
C  C45  1  0.65965676  0.01435805  0.99799131  1  0  -0.071051  0  3.739185  0  0  -0.093323  0  3.987148  0  0  -0.093932  0  4.006542  0  0  -0.081323  -0.092357  0  3.973205  0
C  C46  1  0.83376005  0.22425337  0.31351783  1  0  0.636605  0  3.928159  0  0  0.592239  0  4.217384  0  0  0.624355  0  4.219409  0  0  0.196794  0.569531  0  4.222076  0
C  C47  1  0.16624081  0.77574493  0.68648248  1  0  0.636531  0  3.928222  0  0  0.592197  0  4.217412  0  0  0.624314  0  4.219435  0  0  0.196736  0.569471  0  4.222123  0
C  C48  1  0.91997195  0.10717446  0.40864410  1  0  -0.055056  0  3.741225  0  0  -0.031359  0  3.970167  0  0  -0.037042  0  3.991319  0  0  -0.01159  -0.027638  0  3.955448  0
C  C49  1  0.08003520  0.89282393  0.59135071  1  0  -0.055032  0  3.74129  0  0  -0.031341  0  3.970222  0  0  -0.037029  0  3.991379  0  0  -0.011575  -0.027628  0  3.955516  0
C  C50  1  0.09306833  0.07590620  0.35991780  1  0  -0.07339  0  3.728464  0  0  -0.096957  0  3.98038  0  0  -0.097383  0  3.999186  0  0  -0.081483  -0.096336  0  3.967384  0
C  C51  1  0.90694139  0.92409111  0.64007854  1  0  -0.073499  0  3.728763  0  0  -0.097044  0  3.980674  0  0  -0.097471  0  3.999488  0  0  -0.081496  -0.096413  0  3.967666  0
C  C52  1  0.82732334  0.03036360  0.54946202  1  0  -0.063393  0  3.707404  0  0  -0.085462  0  3.953717  0  0  -0.086162  0  3.972221  0  0  -0.075273  -0.084726  0  3.941033  0
C  C53  1  0.17268655  0.96963158  0.45053415  1  0  -0.063401  0  3.707293  0  0  -0.085482  0  3.953608  0  0  -0.086174  0  3.97212  0  0  -0.07531  -0.084748  0  3.940931  0
C  C54  1  0.80451032  0.68031986  0.21207040  1  0  0.760008  0  3.891346  0  0  0.690992  0  4.196211  0  0  0.726197  0  4.192373  0  0  0.346995  0.667339  0  4.199413  0
C  C55  1  0.19549767  0.31968275  0.78792997  1  0  0.759833  0  3.891922  0  0  0.69096  0  4.196563  0  0  0.726161  0  4.19272  0  0  0.346981  0.667323  0  4.199713  0
C  C56  1  0.71079739  0.83851257  0.33285658  1  0  0.048095  0  3.586563  0  0  -0.010031  0  3.851841  0  0  -0.005591  0  3.862046  0  0  -0.046882  -0.012875  0  3.844713  0
C  C57  1  0.28920706  0.16148791  0.66714097  1  0  0.04815  0  3.586753  0  0  -0.009926  0  3.851907  0  0  -0.005485  0  3.862113  0  0  -0.046869  -0.012781  0  3.844805  0
C  C58  1  0.89812019  0.86062745  0.24259950  1  0  0.038853  0  3.611393  0  0  -0.022241  0  3.881626  0  0  -0.018666  0  3.893669  0  0  -0.054156  -0.024589  0  3.873374  0
C  C59  1  0.10188955  0.13936874  0.75740372  1  0  0.038924  0  3.61152  0  0  -0.022107  0  3.881563  0  0  -0.018551  0  3.893607  0  0  -0.054091  -0.024459  0  3.873312  0
N  N60  1  0.67954531  0.71213697  0.31666411  1  0  -0.482859  0  3.226375  0  0  -0.422653  0  3.477702  0  0  -0.443528  0  3.482497  0  0  -0.420968  -0.408272  0  3.473502  0
N  N61  1  0.32046056  0.28786137  0.68333477  1  0  -0.482874  0  3.226501  0  0  -0.422678  0  3.477801  0  0  -0.44356  0  3.482604  0  0  -0.420991  -0.408313  0  3.473612  0
N  N62  1  0.92915078  0.77163239  0.15794362  1  0  -0.486446  0  3.177938  0  0  -0.427094  0  3.431244  0  0  -0.446334  0  3.433809  0  0  -0.427996  -0.41319  0  3.427904  0
N  N63  1  0.07085791  0.22836167  0.84205794  1  0  -0.486431  0  3.178103  0  0  -0.427047  0  3.431323  0  0  -0.44625  0  3.433856  0  0  -0.428022  -0.413126  0  3.427942  0
O  O64  1  0.37273640  0.37884626  0.26068932  1  0  -0.715453  0  2.020501  0  0  -0.657815  0  2.251156  0  0  -0.692649  0  2.241983  0  0  -0.374593  -0.639741  0  2.256362  0
O  O65  1  0.62725424  0.62115521  0.73930897  1  0  -0.715534  0  2.020433  0  0  -0.657928  0  2.251099  0  0  -0.692759  0  2.241912  0  0  -0.37466  -0.639844  0  2.256294  0
O  O66  1  0.82743945  0.52379854  0.91114639  1  0  -0.911835  0  1.868886  0  0  -0.868379  0  2.068809  0  0  -0.898337  0  2.030742  0  0  -0.646604  -0.854965  0  2.091022  0
O  O67  1  0.17255940  0.47619444  0.08885002  1  0  -0.911698  0  1.868995  0  0  -0.868282  0  2.069001  0  0  -0.898237  0  2.030926  0  0  -0.646608  -0.854869  0  2.091213  0
O  O68  1  0.45924118  0.51844663  0.33272702  1  0  -0.682902  0  1.992822  0  0  -0.638511  0  2.233997  0  0  -0.671187  0  2.224441  0  0  -0.362002  -0.621714  0  2.239475  0
O  O69  1  0.54075728  0.48155059  0.66727252  1  0  -0.682894  0  1.992845  0  0  -0.638533  0  2.233997  0  0  -0.671211  0  2.224445  0  0  -0.361991  -0.621734  0  2.23947  0
O  O70  1  0.51552489  0.62902863  0.02769835  1  0  -0.783793  0  2.161074  0  0  -0.727889  0  2.422335  0  0  -0.770159  0  2.411939  0  0  -0.404661  -0.709615  0  2.429215  0
O  O71  1  0.48448623  0.37098266  0.97229048  1  0  -0.783675  0  2.161286  0  0  -0.727822  0  2.422561  0  0  -0.770098  0  2.412174  0  0  -0.40462  -0.709549  0  2.42942  0
O  O72  1  0.32398593  0.75445305  0.92122230  1  0  -0.7168  0  1.969596  0  0  -0.670943  0  2.216018  0  0  -0.705916  0  2.201785  0  0  -0.385245  -0.653887  0  2.223174  0
O  O73  1  0.67599546  0.24553750  0.07879565  1  0  -0.716754  0  1.969787  0  0  -0.670901  0  2.216155  0  0  -0.705875  0  2.201922  0  0  -0.385168  -0.65385  0  2.223297  0
O  O74  1  0.67652547  0.25115299  0.36222065  1  0  -0.687685  0  1.949208  0  0  -0.645016  0  2.18414  0  0  -0.67876  0  2.174655  0  0  -0.38236  -0.628384  0  2.18966  0
O  O75  1  0.32347996  0.74884954  0.63778693  1  0  -0.687644  0  1.949216  0  0  -0.644994  0  2.18415  0  0  -0.678728  0  2.174661  0  0  -0.382342  -0.628349  0  2.189677  0
O  O76  1  0.91748581  0.29727200  0.18508008  1  0  -0.696359  0  1.984387  0  0  -0.641067  0  2.217925  0  0  -0.673946  0  2.207673  0  0  -0.360107  -0.624027  0  2.2249  0
O  O77  1  0.08250394  0.70272520  0.81491823  1  0  -0.696358  0  1.98438  0  0  -0.641063  0  2.217904  0  0  -0.673936  0  2.207654  0  0  -0.360069  -0.624009  0  2.224886  0
O  O78  1  0.80755086  0.58313747  0.16759775  1  0  -0.753489  0  2.077718  0  0  -0.705079  0  2.353583  0  0  -0.741915  0  2.336878  0  0  -0.415187  -0.688328  0  2.361825  0
O  O79  1  0.19244901  0.41685760  0.83240405  1  0  -0.753359  0  2.078136  0  0  -0.705025  0  2.353948  0  0  -0.741857  0  2.337237  0  0  -0.415156  -0.688277  0  2.362157  0
