# generated using pymatgen
data_AgH16C10SN2ClO7
_symmetry_space_group_name_H-M   'P 1'
_cell_length_a   8.12212986
_cell_length_b   9.61494038
_cell_length_c   11.34383299
_cell_angle_alpha   93.18614275
_cell_angle_beta   109.98053948
_cell_angle_gamma   112.85958495
_symmetry_Int_Tables_number   1
_chemical_formula_structural   AgH16C10SN2ClO7
_chemical_formula_sum   'Ag2 H32 C20 S2 N4 Cl2 O14'
_cell_volume   748.81146160
_cell_formula_units_Z   2
loop_
 _symmetry_equiv_pos_site_id
 _symmetry_equiv_pos_as_xyz
  1  'x, y, z'
loop_
 _atom_site_type_symbol
 _atom_site_label
 _atom_site_symmetry_multiplicity
 _atom_site_fract_x
 _atom_site_fract_y
 _atom_site_fract_z
 _atom_site_occupancy
 _atom_site_pbe_bader_spin_density
 _atom_site_pbe_cm5_charge
 _atom_site_pbe_ddec_charge
 _atom_site_pbe_ddec_spin_density
 _atom_site_pbe_ddec_sum_bond_order
 _atom_site_pbe_magmom
Ag  Ag0  1  0.61945370  0.46142837  0.37480190  1  0  0.402501  0.335112  0  2.054583  0
Ag  Ag1  1  0.16036942  0.45799907  0.46799182  1  0  0.404211  0.329383  0  2.083681  0
H  H2  1  0.43513182  0.08238665  0.57068894  1  0  0.314488  0.301119  0  0.953245  0
H  H3  1  0.57679121  0.42772242  0.92181356  1  0  0.30021  0.343948  0  1.000577  0
H  H4  1  0.38883078  0.02596696  0.89960526  1  0  0.104614  0.123863  0  1.003933  0
H  H5  1  0.30044799  0.03468279  0.73729803  1  0  0.107854  0.13157  0  0.987172  0
H  H6  1  0.57332139  0.53805049  0.67498246  1  0  0.304078  0.288181  0  0.983361  0
H  H7  1  0.06452268  0.00439884  0.90417781  1  0  0.090156  0.08496  0  1.006922  0
H  H8  1  0.97260300  0.97837616  0.73597819  1  0  0.089171  0.090839  0  1.00144  0
H  H9  1  0.12094998  0.82608037  0.24932913  1  0  0.323724  0.306334  0  0.931233  0
H  H10  1  0.89245662  0.73613275  0.82883661  1  0  0.08807  0.084882  0  1.004256  0
H  H11  1  0.13905321  0.77320290  0.88313897  1  0  0.087538  0.083638  0  1.006829  0
H  H12  1  0.75457856  0.36963073  0.16960854  1  0  0.304272  0.287363  0  0.979332  0
H  H13  1  0.31694848  0.45586918  0.91356252  1  0  0.298532  0.346799  0  1.004315  0
H  H14  1  0.11013123  0.75609812  0.64959645  1  0  0.090178  0.103767  0  1.002564  0
H  H15  1  0.85936027  0.70540671  0.60144679  1  0  0.085749  0.092606  0  1.032562  0
H  H16  1  0.08238193  0.53068351  0.74550274  1  0  0.108189  0.099986  0  0.982673  0
H  H17  1  0.82982619  0.47590643  0.82288457  1  0  0.11273  0.069566  0  0.982541  0
H  H18  1  0.77381786  0.21521613  0.76256903  1  0  0.116093  0.080638  0  0.976489  0
H  H19  1  0.73343624  0.14100780  0.50993999  1  0  0.110826  0.146951  0  0.992686  0
H  H20  1  0.96384566  0.23656250  0.64324433  1  0  0.10818  0.137763  0  0.987053  0
H  H21  1  0.49752982  0.85036151  0.02430803  1  0  0.098348  0.117718  0  1.031735  0
H  H22  1  0.56888881  0.85871358  0.89344382  1  0  0.106197  0.134989  0  1.016887  0
H  H23  1  0.82816602  0.92256214  0.17756308  1  0  0.092349  0.096563  0  0.974353  0
H  H24  1  0.90635279  0.89359854  0.05463628  1  0  0.089827  0.084464  0  1.00569  0
H  H25  1  0.73801837  0.12775881  0.05220643  1  0  0.084109  0.079117  0  1.004163  0
H  H26  1  0.89782290  0.11944014  0.98201173  1  0  0.087785  0.082236  0  0.99678  0
H  H27  1  0.98484434  0.21720358  0.26680165  1  0  0.083136  0.087968  0  1.033307  0
H  H28  1  0.14524794  0.16806095  0.22113530  1  0  0.089393  0.102002  0  1.021941  0
H  H29  1  0.20382875  0.37253235  0.10183676  1  0  0.109045  0.101803  0  0.965953  0
H  H30  1  0.92102252  0.41736772  0.01986582  1  0  0.112847  0.072909  0  0.973124  0
H  H31  1  0.15593500  0.67975474  0.06590192  1  0  0.112629  0.070754  0  0.994667  0
H  H32  1  0.42684548  0.77578267  0.32060936  1  0  0.10981  0.144064  0  0.998699  0
H  H33  1  0.44950321  0.67697627  0.19314683  1  0  0.107281  0.134639  0  0.986506  0
C  C34  1  0.35117588  0.22644520  0.86621235  1  0  0.247527  0.662426  0  4.01318  0
C  C35  1  0.28390889  0.05575366  0.82816985  1  0  -0.163577  -0.309672  0  3.91953  0
C  C36  1  0.07748064  0.96082434  0.81780907  1  0  -0.169763  -0.124426  0  3.939839  0
C  C37  1  0.02294110  0.78823024  0.80727938  1  0  -0.166034  -0.131842  0  3.893968  0
C  C38  1  0.98542215  0.70122063  0.67628606  1  0  -0.172334  -0.180176  0  3.911592  0
C  C39  1  0.94908092  0.53431862  0.67965656  1  0  -0.067997  -0.04462  0  3.814229  0
C  C40  1  0.78192016  0.43907060  0.71851550  1  0  0.022076  0.086773  0  3.805849  0
C  C41  1  0.72770393  0.26369074  0.67880277  1  0  0.022396  0.12392  0  3.81273  0
C  C42  1  0.82642128  0.24209283  0.58961625  1  0  -0.140659  -0.233156  0  3.771026  0
C  C43  1  0.44570839  0.30223582  0.60041559  1  0  0.315057  0.616236  0  4.255507  0
C  C44  1  0.53942118  0.65941759  0.96150597  1  0  0.244838  0.664122  0  4.016958  0
C  C45  1  0.59739731  0.82927878  0.98881751  1  0  -0.170053  -0.328046  0  3.932958  0
C  C46  1  0.80852916  0.93274383  0.07801915  1  0  -0.163924  -0.114334  0  3.904433  0
C  C47  1  0.86375235  0.10203518  0.06769753  1  0  -0.164  -0.125996  0  3.893461  0
C  C48  1  0.03566737  0.21294741  0.18869214  1  0  -0.173631  -0.185408  0  3.931565  0
C  C49  1  0.13397961  0.37498177  0.16928919  1  0  -0.067176  -0.045701  0  3.816019  0
C  C50  1  0.00974502  0.46343437  0.12350577  1  0  0.022291  0.091088  0  3.78092  0
C  C51  1  0.14924640  0.63980821  0.15352087  1  0  0.02402  0.125131  0  3.81002  0
C  C52  1  0.35613524  0.67120501  0.24497974  1  0  -0.14212  -0.232922  0  3.780786  0
C  C53  1  0.90801222  0.60729210  0.23218917  1  0  0.319162  0.622674  0  4.246485  0
S  S54  1  0.88603323  0.41594542  0.52451450  1  0  -0.02513  0.073307  0  3.45798  0
S  S55  1  0.32982366  0.50517676  0.31921144  1  0  -0.022946  0.077777  0  3.45422  0
N  N56  1  0.51762560  0.19576983  0.61630939  1  0  -0.430903  -0.4351  0  3.511847  0
N  N57  1  0.59942412  0.44736546  0.65001174  1  0  -0.445172  -0.477727  0  3.518058  0
N  N58  1  0.05898122  0.71089611  0.21092105  1  0  -0.425948  -0.426788  0  3.494784  0
N  N59  1  0.88712207  0.46054590  0.19265859  1  0  -0.443429  -0.47655  0  3.499876  0
Cl  Cl60  1  0.50908717  0.81839294  0.62043025  1  0  0.728131  1.267309  0  6.767965  0
Cl  Cl61  1  0.46491784  0.08743815  0.21863466  1  0  0.725123  1.26748  0  6.786363  0
O  O62  1  0.54038426  0.31017244  0.90151357  1  0  -0.32996  -0.489655  0  2.335267  0
O  O63  1  0.23780944  0.28524623  0.86470879  1  0  -0.288271  -0.508426  0  2.190062  0
O  O64  1  0.26925141  0.27249716  0.54999031  1  0  -0.336336  -0.527134  0  2.21728  0
O  O65  1  0.35650582  0.57279702  0.94480577  1  0  -0.33273  -0.497146  0  2.305635  0
O  O66  1  0.64929489  0.60255057  0.95039252  1  0  -0.288648  -0.505507  0  2.201603  0
O  O67  1  0.80574618  0.63936208  0.27978273  1  0  -0.335085  -0.531509  0  2.224369  0
O  O68  1  0.43346867  0.67342266  0.66538604  1  0  -0.322948  -0.5173  0  2.160899  0
O  O69  1  0.63306926  0.94539512  0.73213253  1  0  -0.28727  -0.460891  0  2.13023  0
O  O70  1  0.34396994  0.84422867  0.53949763  1  0  -0.306582  -0.500698  0  2.084513  0
O  O71  1  0.61890373  0.80305019  0.54663076  1  0  -0.296368  -0.476711  0  2.111718  0
O  O72  1  0.48737161  0.23564638  0.17774411  1  0  -0.326593  -0.520989  0  2.145646  0
O  O73  1  0.37205036  0.06910009  0.31054908  1  0  -0.307346  -0.500131  0  2.095607  0
O  O74  1  0.34227162  0.96155273  0.10567245  1  0  -0.292837  -0.473397  0  2.148063  0
O  O75  1  0.65607418  0.09014110  0.27843793  1  0  -0.298971  -0.47478  0  2.088615  0
