# generated using pymatgen
data_ZnH5C4N3O2
_symmetry_space_group_name_H-M   'P 1'
_cell_length_a   8.19533361
_cell_length_b   8.43677497
_cell_length_c   9.27456195
_cell_angle_alpha   90.00002104
_cell_angle_beta   90.00003769
_cell_angle_gamma   89.99993834
_symmetry_Int_Tables_number   1
_chemical_formula_structural   ZnH5C4N3O2
_chemical_formula_sum   'Zn4 H20 C16 N12 O8'
_cell_volume   641.26348214
_cell_formula_units_Z   4
loop_
 _symmetry_equiv_pos_site_id
 _symmetry_equiv_pos_as_xyz
  1  'x, y, z'
loop_
 _atom_site_type_symbol
 _atom_site_label
 _atom_site_symmetry_multiplicity
 _atom_site_fract_x
 _atom_site_fract_y
 _atom_site_fract_z
 _atom_site_occupancy
 _atom_site_pbe_bader_spin_density
 _atom_site_pbe_cm5_charge
 _atom_site_pbe_ddec_charge
 _atom_site_pbe_ddec_spin_density
 _atom_site_pbe_ddec_sum_bond_order
 _atom_site_pbe_magmom
Zn  Zn0  1  0.26877850  0.11237929  0.00000117  1  0  0.701881  0.761412  0  2.428886  0
Zn  Zn1  1  0.76877865  0.88762086  0.50000027  1  0  0.701904  0.76145  0  2.428878  0
Zn  Zn2  1  0.92583410  0.48431383  0.49999917  1  0  0.701495  0.734893  0  2.452663  0
Zn  Zn3  1  0.42583473  0.51568616  0.00000021  1  0  0.701492  0.734892  0  2.45268  0
H  H4  1  0.03802255  0.55327063  0.00000010  1  0  0.092294  0.147199  0  1.02701  0
H  H5  1  0.53802197  0.44672976  0.50000013  1  0  0.09229  0.147212  0  1.026975  0
H  H6  1  0.92759367  0.70332295  0.90494016  1  0  0.098163  0.158881  0  1.01189  0
H  H7  1  0.42759339  0.29667843  0.59505901  1  0  0.09816  0.158884  0  1.011911  0
H  H8  1  0.92759459  0.70332279  0.09505932  1  0  0.098162  0.158874  0  1.011909  0
H  H9  1  0.42759332  0.29667839  0.40494113  1  0  0.098163  0.15889  0  1.011903  0
H  H10  1  0.86916036  0.19249846  0.00000028  1  0  0.091538  0.141162  0  1.018644  0
H  H11  1  0.36916104  0.80750041  0.50000014  1  0  0.091557  0.141175  0  1.018572  0
H  H12  1  0.80594922  0.01823303  0.90561390  1  0  0.099127  0.155872  0  1.00017  0
H  H13  1  0.30594940  0.98176847  0.59438520  1  0  0.099125  0.15586  0  1.000197  0
H  H14  1  0.80594891  0.01823168  0.09438529  1  0  0.099128  0.155865  0  1.000198  0
H  H15  1  0.30594932  0.98176725  0.40561402  1  0  0.099123  0.155863  0  1.000176  0
H  H16  1  0.03211479  0.15010962  0.69623130  1  0  0.134921  0.109306  0  1.005439  0
H  H17  1  0.53211362  0.84988980  0.80376764  1  0  0.134912  0.10928  0  1.00547  0
H  H18  1  0.03211343  0.15010954  0.30376748  1  0  0.134929  0.109302  0  1.005422  0
H  H19  1  0.53211339  0.84989087  0.19623167  1  0  0.134921  0.109292  0  1.005435  0
H  H20  1  0.21716375  0.61270216  0.70923474  1  0  0.134821  0.105972  0  0.995953  0
H  H21  1  0.71716308  0.38729707  0.79076538  1  0  0.134824  0.105969  0  0.995928  0
H  H22  1  0.21716237  0.61270208  0.29076538  1  0  0.13481  0.105936  0  0.995954  0
H  H23  1  0.71716286  0.38729695  0.20923495  1  0  0.134824  0.105969  0  0.99593  0
C  C24  1  0.00290982  0.67817620  0.00000011  1  0  -0.251861  -0.532752  0  3.884953  0
C  C25  1  0.50290937  0.32182542  0.50000009  1  0  -0.251868  -0.532799  0  3.884922  0
C  C26  1  0.14926987  0.78746433  0.00000017  1  0  0.214861  0.689265  0  4.120422  0
C  C27  1  0.64927077  0.21253714  0.50000012  1  0  0.214887  0.689317  0  4.120385  0
C  C28  1  0.78306386  0.09337887  0.00000024  1  0  -0.249397  -0.524703  0  3.917704  0
C  C29  1  0.28306443  0.90662127  0.50000013  1  0  -0.249416  -0.524692  0  3.917608  0
C  C30  1  0.60910386  0.15145210  0.00000020  1  0  0.211516  0.683814  0  4.135422  0
C  C31  1  0.10910327  0.84854703  0.50000007  1  0  0.211511  0.683768  0  4.135439  0
C  C32  1  0.09974958  0.25499801  0.72849917  1  0  0.14401  0.149183  0  3.947076  0
C  C33  1  0.59974727  0.74500134  0.77149981  1  0  0.144011  0.149183  0  3.947104  0
C  C34  1  0.09974819  0.25499910  0.27149969  1  0  0.144011  0.149176  0  3.947061  0
C  C35  1  0.59974829  0.74500123  0.22850058  1  0  0.144006  0.149164  0  3.947118  0
C  C36  1  0.19498413  0.48931380  0.73432269  1  0  0.142614  0.151027  0  3.971231  0
C  C37  1  0.69498452  0.51068545  0.76567742  1  0  0.142611  0.151065  0  3.971158  0
C  C38  1  0.19498396  0.48931489  0.26567738  1  0  0.14262  0.151114  0  3.971153  0
C  C39  1  0.69498433  0.51068535  0.23432294  1  0  0.142616  0.151067  0  3.971156  0
N  N40  1  0.27210371  0.41044004  0.83790064  1  0  -0.251907  -0.220376  0  3.50163  0
N  N41  1  0.77210394  0.58955913  0.66209952  1  0  -0.251919  -0.220411  0  3.501606  0
N  N42  1  0.27210468  0.41043990  0.16209945  1  0  -0.251922  -0.220455  0  3.501665  0
N  N43  1  0.77210382  0.58955907  0.33790092  1  0  -0.251938  -0.220453  0  3.501655  0
N  N44  1  0.21096412  0.25879563  0.83449127  1  0  -0.264071  -0.228386  0  3.541925  0
N  N45  1  0.71096418  0.74120479  0.66550993  1  0  -0.264057  -0.228369  0  3.541895  0
N  N46  1  0.21096387  0.25879549  0.16550873  1  0  -0.264067  -0.228354  0  3.541927  0
N  N47  1  0.71096406  0.74120472  0.33449160  1  0  -0.264058  -0.22834  0  3.54194  0
N  N48  1  0.08593430  0.39754418  0.66337590  1  0  -0.345894  -0.313237  0  3.491823  0
N  N49  1  0.58593464  0.60245519  0.83662415  1  0  -0.345884  -0.313229  0  3.491795  0
N  N50  1  0.08593417  0.39754411  0.33662408  1  0  -0.345896  -0.313236  0  3.491789  0
N  N51  1  0.58593439  0.60245505  0.16337618  1  0  -0.345894  -0.313223  0  3.491797  0
O  O52  1  0.11335423  0.93645256  0.00000019  1  0  -0.336098  -0.554468  0  2.322019  0
O  O53  1  0.61335407  0.06354776  0.50000008  1  0  -0.336092  -0.554462  0  2.322004  0
O  O54  1  0.29407060  0.73678731  0.00000021  1  0  -0.31382  -0.553617  0  2.305121  0
O  O55  1  0.79407144  0.26321164  0.50000017  1  0  -0.313834  -0.553657  0  2.305129  0
O  O56  1  0.58178945  0.29813139  0.00000022  1  0  -0.313871  -0.566836  0  2.323617  0
O  O57  1  0.08178902  0.70186778  0.50000004  1  0  -0.313856  -0.566786  0  2.323594  0
O  O58  1  0.49771004  0.04304937  0.00000015  1  0  -0.332098  -0.561845  0  2.340059  0
O  O59  1  0.99771011  0.95695055  0.50000034  1  0  -0.332117  -0.561871  0  2.340078  0
