# generated using pymatgen
data_Li2H8C13S2(NO2)2
_symmetry_space_group_name_H-M   'P 1'
_cell_length_a   5.16799976
_cell_length_b   10.09613711
_cell_length_c   14.63155321
_cell_angle_alpha   90.00015481
_cell_angle_beta   90.00003033
_cell_angle_gamma   94.56469140
_symmetry_Int_Tables_number   1
_chemical_formula_structural   Li2H8C13S2(NO2)2
_chemical_formula_sum   'Li4 H16 C26 S4 N4 O8'
_cell_volume   761.00661633
_cell_formula_units_Z   2
loop_
 _symmetry_equiv_pos_site_id
 _symmetry_equiv_pos_as_xyz
  1  'x, y, z'
loop_
 _atom_site_type_symbol
 _atom_site_label
 _atom_site_symmetry_multiplicity
 _atom_site_fract_x
 _atom_site_fract_y
 _atom_site_fract_z
 _atom_site_occupancy
 _atom_site_hle17_bader_spin_density
 _atom_site_hle17_ddec_charge
 _atom_site_hle17_ddec_spin_density
 _atom_site_hle17_ddec_sum_bond_order
 _atom_site_hle17_magmom
 _atom_site_hse06_10hf_bader_spin_density
 _atom_site_hse06_10hf_ddec_charge
 _atom_site_hse06_10hf_ddec_spin_density
 _atom_site_hse06_10hf_ddec_sum_bond_order
 _atom_site_hse06_10hf_magmom
 _atom_site_hse06_bader_spin_density
 _atom_site_hse06_ddec_charge
 _atom_site_hse06_ddec_spin_density
 _atom_site_hse06_ddec_sum_bond_order
 _atom_site_hse06_magmom
 _atom_site_pbe_bader_spin_density
 _atom_site_pbe_cm5_charge
 _atom_site_pbe_ddec_charge
 _atom_site_pbe_ddec_spin_density
 _atom_site_pbe_ddec_sum_bond_order
 _atom_site_pbe_magmom
Li  Li0  1  0.30763081  0.00237790  0.56704304  1  0  0.836305  0  0.437886  0  0  0.783832  0  0.564018  0  0  0.795584  0  0.544223  0  0  0.522544  0.775421  0  0.578089  0
Li  Li1  1  0.69236369  0.49762075  0.06704399  1  0  0.836315  0  0.437885  0  0  0.783827  0  0.564045  0  0  0.795582  0  0.544249  0  0  0.522558  0.775415  0  0.578116  0
Li  Li2  1  0.69236715  0.99762340  0.43295571  1  0  0.83631  0  0.437874  0  0  0.783845  0  0.563993  0  0  0.795591  0  0.544203  0  0  0.522549  0.775435  0  0.578063  0
Li  Li3  1  0.30763214  0.50237957  0.93295545  1  0  0.836317  0  0.437871  0  0  0.783847  0  0.563994  0  0  0.795601  0  0.544197  0  0  0.522544  0.775434  0  0.578065  0
H  H4  1  0.14584747  0.06677611  0.75931181  1  0  0.07251  0  0.944009  0  0  0.080329  0  1.00895  0  0  0.082956  0  1.007379  0  0  0.114361  0.078459  0  1.01  0
H  H5  1  0.85416133  0.43322519  0.25931130  1  0  0.072545  0  0.943892  0  0  0.080359  0  1.008839  0  0  0.082989  0  1.007265  0  0  0.114347  0.078486  0  1.009891  0
H  H6  1  0.85416190  0.93322410  0.24069173  1  0  0.072531  0  0.943943  0  0  0.080343  0  1.008886  0  0  0.082973  0  1.007323  0  0  0.11436  0.07847  0  1.00994  0
H  H7  1  0.14583873  0.56677708  0.74069156  1  0  0.072557  0  0.943936  0  0  0.080365  0  1.008881  0  0  0.082997  0  1.007312  0  0  0.114367  0.078493  0  1.009934  0
H  H8  1  0.95923795  0.34568897  0.71505163  1  0  0.100884  0  0.972362  0  0  0.106374  0  1.042212  0  0  0.109825  0  1.041045  0  0  0.103116  0.103918  0  1.043054  0
H  H9  1  0.04075723  0.15431225  0.21505114  1  0  0.10087  0  0.972339  0  0  0.106336  0  1.042211  0  0  0.109785  0  1.041052  0  0  0.103106  0.103882  0  1.043054  0
H  H10  1  0.04075963  0.65431033  0.28494644  1  0  0.100879  0  0.972369  0  0  0.106362  0  1.04222  0  0  0.109809  0  1.041066  0  0  0.103115  0.103905  0  1.043062  0
H  H11  1  0.95924054  0.84568805  0.78494694  1  0  0.100868  0  0.972363  0  0  0.106357  0  1.042219  0  0  0.109808  0  1.041055  0  0  0.10311  0.1039  0  1.043059  0
H  H12  1  0.31990803  0.21131245  0.88926467  1  0  0.106227  0  0.96398  0  0  0.111271  0  1.033737  0  0  0.114852  0  1.031933  0  0  0.10807  0.108659  0  1.03522  0
H  H13  1  0.68009718  0.28868939  0.38926523  1  0  0.106218  0  0.963949  0  0  0.111259  0  1.033709  0  0  0.11484  0  1.031908  0  0  0.108041  0.108647  0  1.035193  0
H  H14  1  0.68009609  0.78869078  0.11073614  1  0  0.106297  0  0.963924  0  0  0.11133  0  1.033687  0  0  0.114911  0  1.031888  0  0  0.108087  0.108718  0  1.035171  0
H  H15  1  0.31990216  0.71130890  0.61073558  1  0  0.106264  0  0.963923  0  0  0.111297  0  1.033685  0  0  0.114877  0  1.031886  0  0  0.108078  0.108685  0  1.035169  0
H  H16  1  0.75174044  0.20244658  0.59041195  1  0  0.069962  0  0.944406  0  0  0.075373  0  1.015229  0  0  0.078954  0  1.011963  0  0  0.122629  0.072716  0  1.017768  0
H  H17  1  0.24825622  0.29755314  0.09041039  1  0  0.069984  0  0.944358  0  0  0.075391  0  1.015194  0  0  0.078974  0  1.011925  0  0  0.122629  0.072733  0  1.017731  0
H  H18  1  0.24826010  0.79754773  0.40958818  1  0  0.069958  0  0.944443  0  0  0.075369  0  1.01527  0  0  0.078949  0  1.012004  0  0  0.122625  0.072712  0  1.017809  0
H  H19  1  0.75174439  0.70245212  0.90958974  1  0  0.06994  0  0.944366  0  0  0.075376  0  1.015173  0  0  0.078942  0  1.011921  0  0  0.12264  0.072718  0  1.017711  0
C  C20  1  0.00000321  0.00000694  0.00000000  1  0  -0.001595  0  3.934704  0  0  -0.008243  0  4.272175  0  0  0.011515  0  4.292408  0  0  0.036078  -0.020926  0  4.258283  0
C  C21  1  0.00000655  0.49999792  0.50000070  1  0  -0.001594  0  3.934675  0  0  -0.008241  0  4.272148  0  0  0.011517  0  4.292379  0  0  0.036072  -0.020925  0  4.258257  0
C  C22  1  0.32487177  0.13108471  0.75227162  1  0  0.125876  0  3.735843  0  0  0.102235  0  3.992363  0  0  0.106474  0  4.010347  0  0  0.048899  0.099547  0  3.979881  0
C  C23  1  0.67513279  0.36891460  0.25227096  1  0  0.125843  0  3.73581  0  0  0.102214  0  3.992316  0  0  0.10645  0  4.010302  0  0  0.048881  0.099526  0  3.979826  0
C  C24  1  0.67512812  0.86891657  0.24772782  1  0  0.126001  0  3.73581  0  0  0.102377  0  3.992298  0  0  0.106608  0  4.010286  0  0  0.048946  0.099688  0  3.979812  0
C  C25  1  0.32487235  0.63108365  0.74772848  1  0  0.125848  0  3.735912  0  0  0.102227  0  3.992404  0  0  0.106458  0  4.010396  0  0  0.048881  0.099539  0  3.979917  0
C  C26  1  0.65437334  0.28922919  0.81187518  1  0  -0.018271  0  3.711725  0  0  0.002842  0  3.93686  0  0  -0.000451  0  3.958463  0  0  0.004915  0.005094  0  3.922163  0
C  C27  1  0.34562536  0.21076941  0.31187621  1  0  -0.018175  0  3.711794  0  0  0.002906  0  3.936903  0  0  -0.000385  0  3.958506  0  0  0.004917  0.005157  0  3.922206  0
C  C28  1  0.34561513  0.71077317  0.18812426  1  0  -0.018028  0  3.711559  0  0  0.003053  0  3.936709  0  0  -0.000236  0  3.958308  0  0  0.005056  0.005294  0  3.922011  0
C  C29  1  0.65438116  0.78922585  0.68812255  1  0  -0.018197  0  3.711728  0  0  0.002905  0  3.936866  0  0  -0.000386  0  3.958468  0  0  0.005  0.00515  0  3.922173  0
C  C30  1  0.77178613  0.37421664  0.88870648  1  0  0.691611  0  3.935249  0  0  0.642705  0  4.233771  0  0  0.675899  0  4.223095  0  0  0.226856  0.620204  0  4.240439  0
C  C31  1  0.22821715  0.12578522  0.38871007  1  0  0.691361  0  3.935514  0  0  0.642543  0  4.233913  0  0  0.675733  0  4.223243  0  0  0.226836  0.620045  0  4.240582  0
C  C32  1  0.22820971  0.62578368  0.11129091  1  0  0.691572  0  3.935184  0  0  0.642699  0  4.233673  0  0  0.675891  0  4.222999  0  0  0.226881  0.620205  0  4.240334  0
C  C33  1  0.77178854  0.87421601  0.61129211  1  0  0.691667  0  3.935085  0  0  0.642768  0  4.233601  0  0  0.67596  0  4.222926  0  0  0.226898  0.620272  0  4.240271  0
C  C34  1  0.77663065  0.28665458  0.72665183  1  0  -0.130533  0  3.728052  0  0  -0.1496  0  3.970171  0  0  -0.155173  0  3.992809  0  0  -0.079815  -0.145711  0  3.954536  0
C  C35  1  0.22337016  0.21334565  0.22665217  1  0  -0.130503  0  3.728011  0  0  -0.149537  0  3.970127  0  0  -0.155109  0  3.992765  0  0  -0.079795  -0.145653  0  3.954494  0
C  C36  1  0.22336168  0.71334775  0.27334829  1  0  -0.130502  0  3.728032  0  0  -0.149544  0  3.970148  0  0  -0.155118  0  3.992781  0  0  -0.079817  -0.145649  0  3.95451  0
C  C37  1  0.77663479  0.78665161  0.77334727  1  0  -0.130484  0  3.728051  0  0  -0.149553  0  3.970184  0  0  -0.155125  0  3.992816  0  0  -0.079811  -0.145659  0  3.954546  0
C  C38  1  0.42250438  0.21003918  0.82439460  1  0  -0.124397  0  3.727616  0  0  -0.147484  0  3.977162  0  0  -0.151826  0  3.997925  0  0  -0.075114  -0.144696  0  3.96308  0
C  C39  1  0.57749822  0.28995944  0.32439446  1  0  -0.124495  0  3.727658  0  0  -0.147577  0  3.977206  0  0  -0.151919  0  3.997972  0  0  -0.075099  -0.144788  0  3.963121  0
C  C40  1  0.57748602  0.78996316  0.17560484  1  0  -0.124742  0  3.727744  0  0  -0.147812  0  3.977294  0  0  -0.152156  0  3.998059  0  0  -0.075236  -0.145015  0  3.963207  0
C  C41  1  0.42251006  0.71003481  0.67560498  1  0  -0.124572  0  3.727788  0  0  -0.147635  0  3.977329  0  0  -0.151978  0  3.998097  0  0  -0.0752  -0.144843  0  3.963247  0
C  C42  1  0.66231650  0.20672718  0.65789008  1  0  0.122506  0  3.742486  0  0  0.0973  0  4.000602  0  0  0.101666  0  4.018203  0  0  0.049992  0.094453  0  3.988625  0
C  C43  1  0.33768592  0.29327177  0.15788922  1  0  0.122494  0  3.742437  0  0  0.097276  0  4.000556  0  0  0.101644  0  4.018152  0  0  0.049988  0.09443  0  3.988571  0
C  C44  1  0.33768302  0.79327211  0.34210936  1  0  0.122487  0  3.742588  0  0  0.097269  0  4.000705  0  0  0.101639  0  4.018302  0  0  0.049992  0.094422  0  3.988724  0
C  C45  1  0.66231922  0.70672648  0.84210954  1  0  0.122568  0  3.742454  0  0  0.097334  0  4.00059  0  0  0.101717  0  4.018188  0  0  0.049999  0.094487  0  3.988605  0
S  S46  1  0.80405886  0.10451708  0.02305924  1  0  0.037752  0  2.219963  0  0  0.044709  0  2.502187  0  0  0.034993  0  2.510238  0  0  0.052115  0.050685  0  2.496706  0
S  S47  1  0.19593712  0.39547939  0.52305969  1  0  0.037778  0  2.220022  0  0  0.044738  0  2.502241  0  0  0.035021  0  2.510291  0  0  0.052135  0.050715  0  2.49676  0
S  S48  1  0.19593264  0.89549123  0.97693951  1  0  0.037855  0  2.21998  0  0  0.04481  0  2.502209  0  0  0.035095  0  2.510257  0  0  0.052193  0.050786  0  2.496728  0
S  S49  1  0.80405194  0.60450505  0.47694385  1  0  0.037811  0  2.219897  0  0  0.044761  0  2.502131  0  0  0.035046  0  2.510182  0  0  0.052171  0.050737  0  2.496651  0
N  N50  1  0.44078670  0.12921326  0.67004112  1  0  -0.392803  0  3.17326  0  0  -0.34517  0  3.43872  0  0  -0.355621  0  3.453429  0  0  -0.391475  -0.33797  0  3.428642  0
N  N51  1  0.55921454  0.37078973  0.17003976  1  0  -0.392758  0  3.17323  0  0  -0.345122  0  3.438682  0  0  -0.355575  0  3.453393  0  0  -0.391448  -0.33792  0  3.428595  0
N  N52  1  0.55921475  0.87078602  0.32996037  1  0  -0.392854  0  3.173282  0  0  -0.345227  0  3.438747  0  0  -0.355674  0  3.453453  0  0  -0.391512  -0.338026  0  3.428666  0
N  N53  1  0.44078571  0.62921354  0.82996105  1  0  -0.392796  0  3.173251  0  0  -0.345168  0  3.438713  0  0  -0.355619  0  3.453417  0  0  -0.391473  -0.337966  0  3.428628  0
O  O54  1  0.62021559  0.40059652  0.95412538  1  0  -0.789785  0  2.007901  0  0  -0.738194  0  2.26043  0  0  -0.759904  0  2.244316  0  0  -0.438013  -0.723014  0  2.271186  0
O  O55  1  0.37979363  0.09940556  0.45412621  1  0  -0.789588  0  2.007799  0  0  -0.738047  0  2.260292  0  0  -0.759746  0  2.244174  0  0  -0.438003  -0.722871  0  2.271052  0
O  O56  1  0.37978659  0.59940673  0.04587406  1  0  -0.78976  0  2.007851  0  0  -0.738185  0  2.260372  0  0  -0.759891  0  2.244255  0  0  -0.437998  -0.723007  0  2.271126  0
O  O57  1  0.62021363  0.90059368  0.54587391  1  0  -0.789815  0  2.007728  0  0  -0.738237  0  2.260252  0  0  -0.759939  0  2.244134  0  0  -0.43802  -0.723058  0  2.27101  0
O  O58  1  0.00898099  0.41275187  0.88305223  1  0  -0.707139  0  1.963475  0  0  -0.662484  0  2.211471  0  0  -0.684074  0  2.19807  0  0  -0.387154  -0.647385  0  2.220332  0
O  O59  1  0.99101823  0.08724900  0.38304973  1  0  -0.70707  0  1.96352  0  0  -0.662438  0  2.211458  0  0  -0.684025  0  2.19806  0  0  -0.387164  -0.647338  0  2.220321  0
O  O60  1  0.99101274  0.58724746  0.11694516  1  0  -0.707164  0  1.963439  0  0  -0.662521  0  2.211442  0  0  -0.684109  0  2.198039  0  0  -0.387237  -0.647423  0  2.220303  0
O  O61  1  0.00898534  0.91275126  0.61694902  1  0  -0.707153  0  1.963409  0  0  -0.662497  0  2.211401  0  0  -0.684086  0  2.198001  0  0  -0.387192  -0.647398  0  2.220264  0
