# generated using pymatgen
data_KCuH8C12I(NO2)2
_symmetry_space_group_name_H-M   'P 1'
_cell_length_a   8.65813306
_cell_length_b   9.18678435
_cell_length_c   9.18682359
_cell_angle_alpha   99.07632435
_cell_angle_beta   98.11778773
_cell_angle_gamma   98.11712780
_symmetry_Int_Tables_number   1
_chemical_formula_structural   KCuH8C12I(NO2)2
_chemical_formula_sum   'K2 Cu2 H16 C24 I2 N4 O8'
_cell_volume   704.28563828
_cell_formula_units_Z   2
loop_
 _symmetry_equiv_pos_site_id
 _symmetry_equiv_pos_as_xyz
  1  'x, y, z'
loop_
 _atom_site_type_symbol
 _atom_site_label
 _atom_site_symmetry_multiplicity
 _atom_site_fract_x
 _atom_site_fract_y
 _atom_site_fract_z
 _atom_site_occupancy
 _atom_site_hle17_ddec_charge
 _atom_site_hle17_ddec_spin_density
 _atom_site_hle17_ddec_sum_bond_order
 _atom_site_hle17_magmom
 _atom_site_hse06_10hf_bader_charge
 _atom_site_hse06_10hf_bader_spin_density
 _atom_site_hse06_10hf_ddec_charge
 _atom_site_hse06_10hf_ddec_spin_density
 _atom_site_hse06_10hf_ddec_sum_bond_order
 _atom_site_hse06_10hf_magmom
 _atom_site_hse06_ddec_charge
 _atom_site_hse06_ddec_spin_density
 _atom_site_hse06_ddec_sum_bond_order
 _atom_site_hse06_magmom
 _atom_site_pbe_cm5_charge
 _atom_site_pbe_ddec_charge
 _atom_site_pbe_ddec_spin_density
 _atom_site_pbe_ddec_sum_bond_order
 _atom_site_pbe_magmom
K  K0  1  0.99998351  0.50001443  0.50000372  1  0.9272  8.6e-05  0.399536  0.0  0.889302  -0.000335  0.874049  -0.0004  0.577907  0.0  0.891176  -0.000232  0.554426  0.0  0.625319  0.861562  -0.000601  0.594403  0.0
K  K1  1  0.50001768  0.50000725  0.49999725  1  0.927207  9.2e-05  0.399529  0.0  0.889284  -0.000335  0.87405  -0.000398  0.577916  0.0  0.891178  -0.000235  0.554435  0.0  0.625329  0.861569  -0.000602  0.594391  0.0
Cu  Cu2  1  0.00000543  0.00000210  0.50000212  1  0.790054  -0.657299  1.894345  -0.489  1.056659  -0.623988  0.777538  -0.774086  2.27896  -0.622  0.875194  -0.839883  2.199022  -0.707  0.694711  0.717076  -0.726125  2.333443  -0.566
Cu  Cu3  1  0.49999675  0.49999796  0.99999973  1  0.790012  -0.657282  1.894344  -0.489  1.056659  -0.623982  0.777543  -0.774077  2.278955  -0.622  0.875202  -0.839887  2.198966  -0.707  0.694731  0.717077  -0.726122  2.333399  -0.566
H  H4  1  0.66205410  0.83045936  0.87480539  1  0.115946  -0.000372  0.962582  0.0  0.111401  -0.000801  0.122831  -0.000419  1.026252  0.0  0.126401  -0.000297  1.024501  0.0  0.109517  0.1202  -0.000517  1.027688  -0.001
H  H5  1  0.83795383  0.12518945  0.16953375  1  0.11601  -0.000372  0.962485  0.0  0.111458  -0.000801  0.122842  -0.000419  1.026211  0.0  0.126411  -0.000297  1.024462  0.0  0.109515  0.120213  -0.000517  1.027646  -0.001
H  H6  1  0.33795128  0.16954266  0.12519755  1  0.115907  -0.000375  0.962565  0.0  0.111287  -0.000801  0.122768  -0.00042  1.026267  0.0  0.126339  -0.000297  1.024516  0.0  0.109481  0.120138  -0.000517  1.027701  -0.001
H  H7  1  0.16204223  0.87480576  0.83046371  1  0.116008  -0.000374  0.962613  0.0  0.111089  -0.000801  0.122787  -0.000419  1.026402  0.0  0.126356  -0.000297  1.024647  0.0  0.109486  0.120159  -0.000517  1.027833  -0.001
H  H8  1  0.47340147  0.01319482  0.82742617  1  0.093259  -0.00012  0.936035  0.0  0.114757  6e-06  0.105482  2.6e-05  0.994055  0.0  0.10777  4.7e-05  0.992973  0.0  0.104277  0.10371  0.0  0.99502  0.0
H  H9  1  0.02660373  0.17257278  0.98679847  1  0.093287  -0.00012  0.936041  0.0  0.114726  6e-06  0.105518  2.6e-05  0.994071  0.0  0.107805  4.6e-05  0.992992  0.0  0.104294  0.103744  0.0  0.995035  0.0
H  H10  1  0.52660354  0.98680496  0.17257529  1  0.093226  -0.000119  0.936084  0.0  0.114711  5e-06  0.105454  2.6e-05  0.994103  0.0  0.107742  4.7e-05  0.993019  0.0  0.10427  0.103679  0.0  0.995068  0.0
H  H11  1  0.97339326  0.82742801  0.01319886  1  0.093277  -0.000121  0.936048  0.0  0.114644  5e-06  0.105529  2.5e-05  0.994057  0.0  0.107818  4.6e-05  0.992975  0.0  0.104275  0.103753  0.0  0.995025  0.0
H  H12  1  0.52081276  0.17661275  0.64154363  1  0.108573  -0.000649  0.981738  -0.001  0.11479  -0.001201  0.116502  -0.000669  1.047539  -0.001  0.120734  -0.000459  1.044456  -0.001  0.096444  0.113354  -0.000859  1.049705  -0.001
H  H13  1  0.97919098  0.35846273  0.82338524  1  0.108542  -0.000651  0.981714  -0.001  0.114695  -0.001201  0.116486  -0.000669  1.047487  -0.001  0.120715  -0.000459  1.044425  -0.001  0.096429  0.113325  -0.000859  1.049691  -0.001
H  H14  1  0.47918953  0.82338476  0.35845605  1  0.10857  -0.000652  0.981706  -0.001  0.114723  -0.001201  0.116511  -0.000669  1.047479  -0.001  0.120739  -0.000459  1.044415  -0.001  0.096455  0.113358  -0.000859  1.049661  -0.001
H  H15  1  0.02080641  0.64154032  0.17661575  1  0.108551  -0.000652  0.981701  -0.001  0.114684  -0.001202  0.116485  -0.000669  1.0475  -0.001  0.120732  -0.000459  1.044379  -0.001  0.096452  0.113334  -0.000859  1.049672  -0.001
H  H16  1  0.88492789  0.82179641  0.72994670  1  0.098688  -0.000825  0.953018  -0.002  0.124074  -0.001878  0.104979  -0.000767  1.01877  -0.002  0.107907  -0.000559  1.015782  -0.001  0.126337  0.102681  -0.000921  1.021145  -0.002
H  H17  1  0.61507874  0.27005163  0.17820089  1  0.098708  -0.000827  0.952974  -0.002  0.124144  -0.001878  0.104962  -0.000767  1.0188  -0.002  0.107889  -0.000559  1.015815  -0.001  0.126374  0.102667  -0.000921  1.021172  -0.002
H  H18  1  0.11507812  0.17820228  0.27005799  1  0.098722  -0.000827  0.953013  -0.002  0.124148  -0.001878  0.104977  -0.000767  1.018809  -0.002  0.107905  -0.000559  1.015823  -0.001  0.126355  0.102678  -0.000921  1.021183  -0.002
H  H19  1  0.38491535  0.72994578  0.82179556  1  0.098707  -0.000827  0.952944  -0.002  0.124199  -0.001878  0.104974  -0.000768  1.018721  -0.002  0.107899  -0.000559  1.015742  -0.001  0.126366  0.102675  -0.000921  1.021092  -0.002
C  C20  1  0.77298283  0.18793313  0.48450966  1  0.602766  0.004804  3.943831  0.004  1.631375  0.00118  0.560754  0.001158  4.234867  0.001  0.595912  0.001173  4.229134  0.001  0.191153  0.536786  0.001079  4.238369  0.001
C  C21  1  0.72701962  0.51549705  0.81206789  1  0.602654  0.004802  3.943902  0.004  1.631553  0.001181  0.560679  0.001159  4.234892  0.001  0.595833  0.001171  4.229166  0.001  0.191094  0.536708  0.001079  4.2384  0.001
C  C22  1  0.22702142  0.81206217  0.51548994  1  0.602484  0.004807  3.944091  0.004  1.631459  0.001179  0.560434  0.001157  4.235206  0.001  0.595584  0.001172  4.229476  0.001  0.191048  0.536458  0.001078  4.238718  0.001
C  C23  1  0.27297660  0.48450600  0.18793404  1  0.60257  0.004805  3.943911  0.004  1.631252  0.001181  0.560535  0.001159  4.234997  0.001  0.595685  0.001171  4.22927  0.001  0.191081  0.536574  0.001079  4.238483  0.001
C  C24  1  0.67851904  0.90684705  0.79679673  1  -0.102163  -0.008748  3.694584  -0.01  0.010334  -0.006015  -0.11467  -0.003948  3.943199  -0.005  -0.119546  -0.003574  3.96019  -0.004  -0.070687  -0.111561  -0.004183  3.932028  -0.005
C  C25  1  0.82148916  0.20320111  0.09314782  1  -0.102143  -0.008745  3.694392  -0.01  0.010151  -0.006017  -0.114567  -0.003949  3.943003  -0.005  -0.119445  -0.003574  3.96  -0.004  -0.070592  -0.111456  -0.004183  3.931827  -0.005
C  C26  1  0.32148481  0.09315273  0.20320677  1  -0.102112  -0.008709  3.694346  -0.009  0.010564  -0.006016  -0.114585  -0.003949  3.942966  -0.005  -0.11946  -0.003573  3.959957  -0.004  -0.07062  -0.111469  -0.004183  3.931781  -0.005
C  C27  1  0.17850296  0.79679852  0.90684871  1  -0.102179  -0.008734  3.694504  -0.009  0.010836  -0.006017  -0.114576  -0.003949  3.943138  -0.005  -0.119446  -0.003576  3.960122  -0.004  -0.070601  -0.111464  -0.004183  3.931954  -0.005
C  C28  1  0.73085117  0.09014676  0.59432637  1  0.092919  0.008399  3.741513  0.006  0.46271  0.001673  0.099727  0.002585  3.975484  0.001  0.102292  0.003891  3.997023  0.002  0.109947  0.097769  0.001627  3.961784  0.001
C  C29  1  0.76914705  0.40567531  0.90984895  1  0.092872  0.008394  3.74143  0.006  0.462515  0.001668  0.099678  0.00258  3.975403  0.001  0.102242  0.003895  3.996945  0.002  0.109955  0.09773  0.001626  3.961688  0.001
C  C30  1  0.26915306  0.90984852  0.40566996  1  0.093065  0.008354  3.741313  0.006  0.462797  0.001673  0.09989  0.002585  3.975283  0.001  0.102459  0.003888  3.996823  0.002  0.110012  0.097944  0.001626  3.961588  0.001
C  C31  1  0.23084880  0.59432550  0.09015260  1  0.092956  0.008383  3.741414  0.006  0.462685  0.001672  0.099787  0.002584  3.975372  0.001  0.102354  0.003893  3.99691  0.002  0.110038  0.097838  0.001627  3.961676  0.001
C  C32  1  0.57458997  0.00621485  0.76970933  1  0.002776  0.011306  3.693911  0.007  -0.117222  0.003841  -0.014612  0.004345  3.940309  0.002  -0.01108  0.004929  3.957936  0.003  -0.06296  -0.017096  0.003846  3.928676  0.002
C  C33  1  0.92541353  0.23029071  0.99377898  1  0.002651  0.011301  3.694034  0.007  -0.117279  0.003839  -0.014743  0.004343  3.940413  0.002  -0.011213  0.00493  3.95804  0.003  -0.063046  -0.017233  0.003846  3.928786  0.002
C  C34  1  0.42541448  0.99378157  0.23029155  1  0.002788  0.011253  3.693933  0.007  -0.117234  0.00384  -0.014612  0.004344  3.940324  0.002  -0.01108  0.004928  3.957949  0.003  -0.062995  -0.017095  0.003846  3.928692  0.002
C  C35  1  0.07458366  0.76971121  0.00622073  1  0.002656  0.011288  3.694131  0.007  -0.11765  0.003839  -0.014769  0.004343  3.940519  0.002  -0.011242  0.004931  3.958152  0.003  -0.063041  -0.017258  0.003846  3.928897  0.002
C  C36  1  0.60066706  0.09850078  0.66599808  1  -0.09922  -0.006132  3.698105  -0.006  0.060757  -0.003462  -0.117868  -0.002361  3.935567  -0.002  -0.123203  -0.002275  3.955908  -0.002  -0.074525  -0.114358  -0.002484  3.922363  -0.002
C  C37  1  0.89933845  0.33400795  0.90149878  1  -0.099095  -0.006128  3.697954  -0.006  0.060987  -0.003457  -0.117752  -0.002358  3.935445  -0.002  -0.123092  -0.002276  3.955783  -0.002  -0.074501  -0.114249  -0.002485  3.922229  -0.002
C  C38  1  0.39933874  0.90149678  0.33400315  1  -0.099283  -0.006097  3.698105  -0.006  0.060673  -0.003462  -0.117932  -0.002361  3.935587  -0.002  -0.123271  -0.002274  3.955922  -0.002  -0.074591  -0.114426  -0.002484  3.922378  -0.002
C  C39  1  0.10065676  0.66599618  0.09849992  1  -0.099188  -0.00612  3.697969  -0.006  0.060968  -0.00346  -0.11784  -0.00236  3.935463  -0.002  -0.123172  -0.002276  3.955812  -0.002  -0.074575  -0.114328  -0.002485  3.922251  -0.002
C  C40  1  0.80479915  0.90201395  0.71825781  1  0.129708  0.009572  3.657653  0.007  0.493395  0.002115  0.100268  0.002506  3.913245  0.001  0.109555  0.004158  3.92974  0.003  0.054371  0.094154  0.001212  3.902941  0.001
C  C41  1  0.69520492  0.28174140  0.09798129  1  0.129736  0.009573  3.657472  0.007  0.493478  0.002118  0.100252  0.00251  3.913145  0.001  0.109538  0.004158  3.929637  0.003  0.054306  0.094126  0.001213  3.902849  0.001
C  C42  1  0.19520315  0.09798357  0.28174296  1  0.129714  0.009529  3.65766  0.006  0.493352  0.002116  0.100292  0.002508  3.913254  0.001  0.109585  0.004156  3.92973  0.003  0.054355  0.094176  0.001212  3.90296  0.001
C  C43  1  0.30479054  0.71825716  0.90201768  1  0.129761  0.009559  3.657417  0.007  0.493529  0.002117  0.100305  0.002509  3.913065  0.001  0.109588  0.004159  3.929559  0.003  0.054342  0.094203  0.001213  3.902762  0.001
I  I44  1  0.75000034  0.72504441  0.27495090  1  -0.637296  -0.079564  0.751532  -0.061  -0.69577  -0.0036  -0.680715  -0.00152  1.036319  -0.004  -0.701606  0.00218  1.009145  -0.001  -0.303577  -0.661871  -0.007786  1.054138  -0.008
I  I45  1  0.25000146  0.27495751  0.72504177  1  -0.637305  -0.079577  0.75154  -0.061  -0.695774  -0.003601  -0.680722  -0.001519  1.036307  -0.004  -0.701613  0.00218  1.009132  -0.001  -0.303576  -0.661882  -0.007787  1.054127  -0.008
N  N46  1  0.83069336  0.99341634  0.62071789  1  -0.304715  -0.071896  3.393662  -0.093  -1.269569  -0.076796  -0.256705  -0.0498  3.676595  -0.068  -0.288612  -0.040745  3.70018  -0.059  -0.351966  -0.2379  -0.054869  3.66335  -0.071
N  N47  1  0.66930972  0.37928192  0.00658219  1  -0.304716  -0.071893  3.393655  -0.093  -1.269542  -0.076798  -0.256692  -0.049802  3.676615  -0.068  -0.288594  -0.040747  3.700187  -0.059  -0.351946  -0.237886  -0.054871  3.663359  -0.071
N  N48  1  0.16931107  0.00658007  0.37928081  1  -0.304728  -0.07187  3.393719  -0.093  -1.269519  -0.076799  -0.256726  -0.049802  3.676646  -0.068  -0.288634  -0.040745  3.700238  -0.059  -0.351936  -0.237937  -0.054871  3.663426  -0.071
N  N49  1  0.33068206  0.62071550  0.99341723  1  -0.304727  -0.071887  3.393684  -0.093  -1.269567  -0.076799  -0.256725  -0.049803  3.676636  -0.068  -0.288628  -0.040746  3.700209  -0.059  -0.351989  -0.237946  -0.054872  3.663408  -0.071
O  O50  1  0.89967894  0.16640820  0.42961490  1  -0.636167  -0.065531  2.094614  -0.091  -1.156456  -0.091262  -0.593122  -0.056529  2.367393  -0.085  -0.636542  -0.043601  2.359102  -0.071  -0.351312  -0.565263  -0.063865  2.373512  -0.091
O  O51  1  0.60031806  0.57038190  0.83358973  1  -0.636105  -0.065524  2.09464  -0.091  -1.156476  -0.091261  -0.59308  -0.056529  2.367394  -0.085  -0.636504  -0.043597  2.35911  -0.071  -0.351299  -0.565226  -0.063858  2.373523  -0.091
O  O52  1  0.10032159  0.83358592  0.57037969  1  -0.636051  -0.065532  2.094793  -0.091  -1.156379  -0.091261  -0.592933  -0.056529  2.367467  -0.085  -0.636395  -0.043602  2.35929  -0.071  -0.351265  -0.565115  -0.063861  2.373705  -0.091
O  O53  1  0.39967759  0.42961778  0.16641053  1  -0.636032  -0.065529  2.094664  -0.091  -1.156404  -0.091264  -0.592936  -0.056531  2.367347  -0.085  -0.636397  -0.043599  2.359154  -0.071  -0.351245  -0.565107  -0.063863  2.373528  -0.091
O  O54  1  0.69157228  0.28463219  0.45413769  1  -0.642377  -0.011405  1.952786  -0.015  -1.205555  -0.013436  -0.599045  -0.008123  2.1826  -0.012  -0.623991  -0.003718  2.175172  -0.006  -0.388835  -0.580873  -0.012813  2.186817  -0.017
O  O55  1  0.80842683  0.54587110  0.71536967  1  -0.642355  -0.011403  1.952776  -0.015  -1.205333  -0.013436  -0.59904  -0.008122  2.182576  -0.012  -0.623986  -0.003719  2.175154  -0.006  -0.388846  -0.580867  -0.012811  2.186803  -0.017
O  O56  1  0.30843391  0.71536762  0.54586611  1  -0.642276  -0.011409  1.952847  -0.015  -1.205571  -0.013436  -0.598935  -0.008123  2.182647  -0.012  -0.623876  -0.003718  2.175231  -0.006  -0.388794  -0.580758  -0.012811  2.186882  -0.017
O  O57  1  0.19156823  0.45413195  0.28463429  1  -0.642297  -0.011408  1.952667  -0.015  -1.205506  -0.013438  -0.598964  -0.008124  2.182466  -0.012  -0.623909  -0.003718  2.175049  -0.006  -0.388797  -0.580794  -0.012813  2.186688  -0.017
