# generated using pymatgen
data_KH19RuC22(N2O3)2
_symmetry_space_group_name_H-M   'P 1'
_cell_length_a   9.11441604
_cell_length_b   11.32837072
_cell_length_c   11.54000000
_cell_angle_alpha   83.33980832
_cell_angle_beta   82.84385885
_cell_angle_gamma   70.44429402
_symmetry_Int_Tables_number   1
_chemical_formula_structural   KH19RuC22(N2O3)2
_chemical_formula_sum   'K2 H38 Ru2 C44 N8 O12'
_cell_volume   1110.52323749
_cell_formula_units_Z   2
loop_
 _symmetry_equiv_pos_site_id
 _symmetry_equiv_pos_as_xyz
  1  'x, y, z'
loop_
 _atom_site_type_symbol
 _atom_site_label
 _atom_site_symmetry_multiplicity
 _atom_site_fract_x
 _atom_site_fract_y
 _atom_site_fract_z
 _atom_site_occupancy
 _atom_site_hle17_bader_spin_density
 _atom_site_hle17_ddec_charge
 _atom_site_hle17_ddec_spin_density
 _atom_site_hle17_ddec_sum_bond_order
 _atom_site_hle17_magmom
 _atom_site_hse06_10hf_bader_spin_density
 _atom_site_hse06_10hf_ddec_charge
 _atom_site_hse06_10hf_ddec_spin_density
 _atom_site_hse06_10hf_ddec_sum_bond_order
 _atom_site_hse06_10hf_magmom
 _atom_site_hse06_bader_spin_density
 _atom_site_hse06_ddec_charge
 _atom_site_hse06_ddec_spin_density
 _atom_site_hse06_ddec_sum_bond_order
 _atom_site_hse06_magmom
 _atom_site_pbe_bader_charge
 _atom_site_pbe_bader_spin_density
 _atom_site_pbe_cm5_charge
 _atom_site_pbe_ddec_charge
 _atom_site_pbe_ddec_spin_density
 _atom_site_pbe_ddec_sum_bond_order
 _atom_site_pbe_magmom
K  K0  1  0.98853512  0.15337792  0.58571157  1  0  0.946291  0  0.429573  0  0  0.903302  0  0.601941  0  0  0.917673  0  0.581158  0  0.888451  0  0.7522  0.891842  0  0.617825  0
K  K1  1  0.01146067  0.84662522  0.41428684  1  0  0.946301  0  0.429566  0  0  0.903307  0  0.601941  0  0  0.917681  0  0.581154  0  0.888453  0  0.752205  0.89185  0  0.617824  0
H  H2  1  0.26957111  0.98181059  0.47534930  1  0  0.384136  0  0.934132  0  0  0.358749  0  0.99629  0  0  0.368541  0  0.982139  0  0.61829  0  0.272479  0.351845  0  1.006215  0
H  H3  1  0.73042620  0.01818880  0.52465285  1  0  0.38413  0  0.934139  0  0  0.358744  0  0.996296  0  0  0.368535  0  0.982147  0  0.617784  0  0.272468  0.35184  0  1.006221  0
H  H4  1  0.90034758  0.96643728  0.08058277  1  0  0.105214  0  0.955803  0  0  0.116971  0  1.015849  0  0  0.11999  0  1.015215  0  0.080334  0  0.101383  0.114739  0  1.016374  0
H  H5  1  0.09965374  0.03356587  0.91941423  1  0  0.10523  0  0.955811  0  0  0.117011  0  1.015825  0  0  0.120032  0  1.01519  0  0.08033  0  0.101412  0.114783  0  1.016348  0
H  H6  1  0.64483694  0.11986562  0.02946387  1  0  0.073588  0  0.983613  0  0  0.076302  0  1.061257  0  0  0.077907  0  1.060234  0  0.062138  0  0.091079  0.075562  0  1.061626  0
H  H7  1  0.35516659  0.88013753  0.97053204  1  0  0.073603  0  0.983581  0  0  0.076284  0  1.061267  0  0  0.077902  0  1.060233  0  0.062122  0  0.091068  0.075545  0  1.061635  0
H  H8  1  0.54872112  0.33033408  0.11193813  1  0  0.077018  0  0.974657  0  0  0.089613  0  1.037  0  0  0.09223  0  1.036727  0  0.036008  0  0.088401  0.08749  0  1.037236  0
H  H9  1  0.45128096  0.66966718  0.88806074  1  0  0.076994  0  0.974639  0  0  0.089601  0  1.036974  0  0  0.092219  0  1.036699  0  0.036005  0  0.088412  0.087478  0  1.03721  0
H  H10  1  0.71260118  0.38042164  0.24437913  1  0  0.080262  0  0.992663  0  0  0.089691  0  1.060667  0  0  0.092356  0  1.058754  0  0.080461  0  0.095808  0.088166  0  1.0606  0
H  H11  1  0.28739796  0.61957869  0.75562360  1  0  0.080272  0  0.992676  0  0  0.08968  0  1.060697  0  0  0.092359  0  1.058769  0  0.080495  0  0.095809  0.08814  0  1.060647  0
H  H12  1  0.06074892  0.44131910  0.39947035  1  0  0.11438  0  0.973343  0  0  0.124769  0  1.029985  0  0  0.127998  0  1.028699  0  0.068617  0  0.105393  0.12243  0  1.031592  0
H  H13  1  0.93925171  0.55868029  0.60053148  1  0  0.114426  0  0.973308  0  0  0.124799  0  1.029969  0  0  0.128028  0  1.028682  0  0.068611  0  0.105411  0.12246  0  1.031575  0
H  H14  1  0.24466776  0.52741774  0.47211791  1  0  0.096893  0  0.972628  0  0  0.105478  0  1.038668  0  0  0.10931  0  1.03563  0  0.070878  0  0.102011  0.102447  0  1.041251  0
H  H15  1  0.75533138  0.47258259  0.52788309  1  0  0.096913  0  0.972596  0  0  0.105498  0  1.038638  0  0  0.109329  0  1.0356  0  0.070876  0  0.102022  0.102468  0  1.041219  0
H  H16  1  0.52931781  0.39986500  0.47238667  1  0  0.087989  0  0.957083  0  0  0.100897  0  1.015564  0  0  0.103129  0  1.015453  0  0.081157  0  0.099732  0.098651  0  1.017211  0
H  H17  1  0.47068205  0.60013627  0.52761329  1  0  0.08797  0  0.957108  0  0  0.100878  0  1.015589  0  0  0.103109  0  1.015478  0  0.081225  0  0.099724  0.098633  0  1.017236  0
H  H18  1  0.62197984  0.18423450  0.40732001  1  0  0.114681  0  0.966641  0  0  0.125188  0  1.024088  0  0  0.12929  0  1.021454  0  0.087885  0  0.109711  0.122373  0  1.025439  0
H  H19  1  0.37802151  0.81576583  0.59267990  1  0  0.114642  0  0.96666  0  0  0.125162  0  1.024097  0  0  0.129264  0  1.021462  0  0.08789  0  0.109698  0.122347  0  1.025448  0
H  H20  1  0.79245630  0.73810329  0.34386468  1  0  0.101308  0  0.971778  0  0  0.104896  0  1.043887  0  0  0.109459  0  1.041109  0  0.120322  0  0.112865  0.101867  0  1.04549  0
H  H21  1  0.20754101  0.26189610  0.65613487  1  0  0.101273  0  0.971787  0  0  0.104845  0  1.043915  0  0  0.10939  0  1.041179  0  0.120271  0  0.112836  0.101817  0  1.045518  0
H  H22  1  0.77136697  0.54437547  0.27332991  1  0  0.108254  0  0.942811  0  0  0.119324  0  0.998598  0  0  0.122497  0  0.996532  0  0.1353  0  0.112815  0.117035  0  1.000077  0
H  H23  1  0.22863183  0.45562298  0.72666961  1  0  0.108298  0  0.942811  0  0  0.119357  0  0.998598  0  0  0.122525  0  0.996539  0  0.135307  0  0.112814  0.117069  0  1.000076  0
H  H24  1  0.52749816  0.56068195  0.18135661  1  0  0.099474  0  0.9645  0  0  0.1122  0  1.021614  0  0  0.114807  0  1.021535  0  0.087915  0  0.109042  0.110244  0  1.021999  0
H  H25  1  0.47250174  0.43931650  0.81864106  1  0  0.099383  0  0.964541  0  0  0.11213  0  1.021634  0  0  0.114725  0  1.02157  0  0.087943  0  0.109031  0.110177  0  1.022015  0
H  H26  1  0.31250691  0.77002648  0.17148944  1  0  0.092679  0  0.941978  0  0  0.098981  0  1.009477  0  0  0.101977  0  1.006684  0  0.102593  0  0.127833  0.09706  0  1.01102  0
H  H27  1  0.68749299  0.22997197  0.82850824  1  0  0.092668  0  0.942019  0  0  0.09898  0  1.009503  0  0  0.101975  0  1.006718  0  0.103085  0  0.127858  0.09708  0  1.011022  0
H  H28  1  0.68639420  0.51148340  0.80371773  1  0  0.136244  0  0.965847  0  0  0.15246  0  1.029594  0  0  0.154278  0  1.030309  0  0.100961  0  0.098645  0.15106  0  1.029219  0
H  H29  1  0.31360532  0.48851599  0.19628247  1  0  0.136234  0  0.96586  0  0  0.152439  0  1.02963  0  0  0.154256  0  1.030346  0  0.100957  0  0.098641  0.151038  0  1.029256  0
H  H30  1  0.69937749  0.45900043  0.95782037  1  0  0.127227  0  0.952798  0  0  0.144323  0  1.01936  0  0  0.145099  0  1.020368  0  0.069694  0  0.096371  0.143334  0  1.019396  0
H  H31  1  0.30062276  0.54099990  0.04218139  1  0  0.127241  0  0.952788  0  0  0.144341  0  1.019341  0  0  0.145116  0  1.02035  0  0.069717  0  0.096381  0.143351  0  1.019378  0
H  H32  1  0.80149638  0.56055602  0.89030923  1  0  0.139611  0  0.929349  0  0  0.16057  0  0.984631  0  0  0.162008  0  0.984537  0  0.069602  0  0.102503  0.159251  0  0.985012  0
H  H33  1  0.19850348  0.43944524  0.10968986  1  0  0.139591  0  0.929419  0  0  0.160551  0  0.98469  0  0  0.161986  0  0.9846  0  0.069604  0  0.102487  0.159231  0  0.985072  0
H  H34  1  0.11833660  0.24118408  0.90401591  1  0  0.133051  0  0.968523  0  0  0.14591  0  1.037467  0  0  0.147651  0  1.037333  0  0.071792  0  0.096424  0.144498  0  1.037807  0
H  H35  1  0.88166475  0.75881624  0.09598401  1  0  0.133067  0  0.968511  0  0  0.145926  0  1.037453  0  0  0.147667  0  1.037321  0  0.071814  0  0.096431  0.144514  0  1.037794  0
H  H36  1  0.05763475  0.39327079  0.95959558  1  0  0.123327  0  0.946483  0  0  0.144347  0  1.005803  0  0  0.145321  0  1.006135  0  0.037644  0  0.095871  0.143519  0  1.005701  0
H  H37  1  0.94236550  0.60672953  0.04040531  1  0  0.123321  0  0.946517  0  0  0.144345  0  1.00583  0  0  0.145318  0  1.006162  0  0.037711  0  0.095865  0.143516  0  1.005728  0
H  H38  1  0.95986845  0.28557020  0.01664873  1  0  0.138403  0  0.977826  0  0  0.153589  0  1.044849  0  0  0.153126  0  1.049217  0  0.086709  0  0.098768  0.153759  0  1.041994  0
H  H39  1  0.04013180  0.71443013  0.98335216  1  0  0.138397  0  0.977848  0  0  0.153585  0  1.044867  0  0  0.153121  0  1.049236  0  0.086706  0  0.098766  0.153754  0  1.042012  0
Ru  Ru40  1  0.26723752  0.03882469  0.25653408  1  0  1.073355  0  4.081725  0  0  1.041417  0  4.65279  0  0  1.075526  0  4.64655  0  1.57206  0  1.222344  1.019362  0  4.656217  0
Ru  Ru41  1  0.73276052  0.96117564  0.74346616  1  0  1.073437  0  4.081703  0  0  1.04153  0  4.652775  0  0  1.075638  0  4.646533  0  1.572166  0  1.222373  1.019473  0  4.656203  0
C  C42  1  0.95288920  0.08667283  0.18765913  1  0  0.311793  0  3.866458  0  0  0.30049  0  4.134018  0  0  0.317902  0  4.147245  0  0.568215  0  0.073763  0.287415  0  4.127722  0
C  C43  1  0.04711177  0.91332844  0.81233985  1  0  0.311728  0  3.866505  0  0  0.300436  0  4.134063  0  0  0.317847  0  4.147287  0  0.568111  0  0.073704  0.28736  0  4.12777  0
C  C44  1  0.85709152  0.05898883  0.11421057  1  0  -0.1831  0  3.723516  0  0  -0.201239  0  3.975515  0  0  -0.208915  0  3.994748  0  -0.005739  0  -0.108965  -0.196004  0  3.964785  0
C  C45  1  0.14290870  0.94101431  0.88578741  1  0  -0.183152  0  3.723554  0  0  -0.201312  0  3.975555  0  0  -0.20899  0  3.994789  0  -0.005592  0  -0.109025  -0.196081  0  3.964832  0
C  C46  1  0.71534830  0.14510063  0.08570258  1  0  -0.038513  0  3.809497  0  0  -0.056716  0  4.06989  0  0  -0.053706  0  4.091057  0  -0.0999  0  -0.100954  -0.061091  0  4.057584  0
C  C47  1  0.28465226  0.85490439  0.91429515  1  0  -0.038528  0  3.809381  0  0  -0.05671  0  4.069784  0  0  -0.053717  0  4.090957  0  -0.100002  0  -0.100918  -0.061086  0  4.057481  0
C  C48  1  0.66228119  0.26330572  0.13081236  1  0  -0.13241  0  3.843878  0  0  -0.147539  0  4.101374  0  0  -0.154433  0  4.125325  0  -0.032696  0  -0.122585  -0.14157  0  4.083824  0
C  C49  1  0.33772051  0.73669649  0.86918731  1  0  -0.132272  0  3.843683  0  0  -0.147408  0  4.101164  0  0  -0.154304  0  4.12512  0  -0.032695  0  -0.122535  -0.141438  0  4.083611  0
C  C50  1  0.75388089  0.29169640  0.20377288  1  0  -0.07144  0  3.812784  0  0  -0.091336  0  4.059907  0  0  -0.08777  0  4.079292  0  -0.083173  0  -0.096449  -0.092198  0  4.043896  0
C  C51  1  0.24612008  0.70830486  0.79622956  1  0  -0.071495  0  3.812736  0  0  -0.091375  0  4.059882  0  0  -0.087818  0  4.07926  0  -0.083136  0  -0.096505  -0.092223  0  4.043873  0
C  C52  1  0.90068774  0.20790296  0.23259844  1  0  -0.195016  0  3.725876  0  0  -0.180014  0  3.969797  0  0  -0.191226  0  3.989436  0  -0.053916  0  -0.038128  -0.173455  0  3.956959  0
C  C53  1  0.09931067  0.79209643  0.76740448  1  0  -0.19502  0  3.725862  0  0  -0.180028  0  3.969781  0  0  -0.191237  0  3.989419  0  -0.054056  0  -0.038107  -0.173468  0  3.956939  0
C  C54  1  0.98119240  0.25730920  0.31239741  1  0  0.511646  0  3.884853  0  0  0.471458  0  4.182254  0  0  0.502951  0  4.179635  0  1.324686  0  0.201434  0.4514  0  4.181563  0
C  C55  1  0.01880785  0.74269113  0.68760435  1  0  0.511609  0  3.884923  0  0  0.471432  0  4.182308  0  0  0.502926  0  4.179687  0  1.325377  0  0.20143  0.451374  0  4.181617  0
C  C56  1  0.23423584  0.26415431  0.36076254  1  0  0.142661  0  3.768265  0  0  0.136424  0  4.027566  0  0  0.142499  0  4.049754  0  0.330191  0  0.07657  0.132599  0  4.011878  0
C  C57  1  0.76576368  0.73584508  0.63923940  1  0  0.142583  0  3.768229  0  0  0.136363  0  4.027536  0  0  0.142437  0  4.049729  0  0.330702  0  0.076539  0.132537  0  4.011847  0
C  C58  1  0.18322092  0.38522844  0.40114185  1  0  -0.165164  0  3.750962  0  0  -0.181608  0  4.001074  0  0  -0.185718  0  4.022125  0  -0.014933  0  -0.104564  -0.181208  0  3.989115  0
C  C59  1  0.81677970  0.61477095  0.59885824  1  0  -0.165192  0  3.750915  0  0  -0.181626  0  4.001033  0  0  -0.185737  0  4.022085  0  -0.015342  0  -0.104544  -0.181229  0  3.989082  0
C  C60  1  0.28847988  0.43363009  0.44092813  1  0  -0.081906  0  3.816601  0  0  -0.10021  0  4.076526  0  0  -0.102778  0  4.099342  0  -0.094026  0  -0.100341  -0.097458  0  4.061818  0
C  C61  1  0.71151964  0.56636930  0.55907207  1  0  -0.08189  0  3.816545  0  0  -0.10019  0  4.076471  0  0  -0.102758  0  4.099289  0  -0.09401  0  -0.100359  -0.097439  0  4.061763  0
C  C62  1  0.44629163  0.36237756  0.44235313  1  0  -0.087869  0  3.815291  0  0  -0.103144  0  4.072393  0  0  -0.106506  0  4.097357  0  -0.07021  0  -0.106186  -0.10279  0  4.056931  0
C  C63  1  0.55370751  0.63762276  0.55764613  1  0  -0.087889  0  3.815271  0  0  -0.103157  0  4.072385  0  0  -0.106519  0  4.097349  0  -0.070299  0  -0.106197  -0.102802  0  4.056921  0
C  C64  1  0.49950352  0.24059016  0.40678168  1  0  -0.13296  0  3.731818  0  0  -0.153357  0  3.983749  0  0  -0.156923  0  4.004235  0  0.026842  0  -0.095435  -0.149853  0  3.966959  0
C  C65  1  0.50049673  0.75941016  0.59321922  1  0  -0.13294  0  3.731866  0  0  -0.15335  0  3.98383  0  0  -0.156917  0  4.004316  0  0.026863  0  -0.095439  -0.149846  0  3.967039  0
C  C66  1  0.39559773  0.18990305  0.36743963  1  0  0.153595  0  3.76667  0  0  0.148703  0  4.021955  0  0  0.153832  0  4.04483  0  0.378514  0  0.083139  0.146953  0  4.002969  0
C  C67  1  0.60440104  0.81009821  0.63255870  1  0  0.153714  0  3.766588  0  0  0.148801  0  4.021927  0  0  0.15393  0  4.044803  0  0.378536  0  0.083193  0.147051  0  4.002942  0
C  C68  1  0.57208272  0.97126851  0.34147357  1  0  0.489856  0  3.84972  0  0  0.449429  0  4.140781  0  0  0.477738  0  4.141069  0  1.406601  0  0.229988  0.430285  0  4.1406  0
C  C69  1  0.42791199  0.02873181  0.65852786  1  0  0.489873  0  3.84986  0  0  0.44948  0  4.140887  0  0  0.477793  0  4.141169  0  1.406601  0  0.229979  0.430336  0  4.140707  0
C  C70  1  0.56704219  0.85371749  0.29454897  1  0  0.119946  0  3.685571  0  0  0.114229  0  3.937996  0  0  0.118336  0  3.954866  0  0.434148  0  0.12193  0.110718  0  3.927417  0
C  C71  1  0.43295547  0.14628377  0.70545120  1  0  0.119989  0  3.685502  0  0  0.114291  0  3.93789  0  0  0.118398  0  3.954757  0  0.434148  0  0.121976  0.11078  0  3.927309  0
C  C72  1  0.69000831  0.74123452  0.30315386  1  0  -0.096678  0  3.703199  0  0  -0.115362  0  3.949412  0  0  -0.119689  0  3.968253  0  -0.050211  0  -0.063763  -0.112141  0  3.936223  0
C  C73  1  0.30998862  0.25876580  0.69684562  1  0  -0.096577  0  3.703176  0  0  -0.115257  0  3.949389  0  0  -0.119579  0  3.968225  0  -0.05018  0  -0.063733  -0.112034  0  3.936196  0
C  C74  1  0.67780999  0.63399910  0.26256667  1  0  0.004529  0  3.682586  0  0  -0.011445  0  3.926361  0  0  -0.008173  0  3.943539  0  0.00127  0  -0.055484  -0.012983  0  3.914242  0
C  C75  1  0.32218880  0.36599935  0.73743371  1  0  0.004458  0  3.682669  0  0  -0.011501  0  3.926448  0  0  -0.008224  0  3.943618  0  0.00118  0  -0.055452  -0.013038  0  3.914326  0
C  C76  1  0.54257336  0.64231304  0.21300397  1  0  -0.114262  0  3.71751  0  0  -0.125661  0  3.96235  0  0  -0.131618  0  3.982199  0  -0.026461  0  -0.07668  -0.121885  0  3.948873  0
C  C77  1  0.45742616  0.35768635  0.78699276  1  0  -0.11412  0  3.717425  0  0  -0.125534  0  3.962266  0  0  -0.131484  0  3.982127  0  -0.02644  0  -0.076649  -0.121761  0  3.948792  0
C  C78  1  0.42255242  0.75724781  0.20701994  1  0  0.133828  0  3.67746  0  0  0.099554  0  3.939561  0  0  0.10823  0  3.953364  0  0.523841  0  0.060727  0.094298  0  3.929237  0
C  C79  1  0.57744600  0.24275158  0.79297864  1  0  0.13383  0  3.677384  0  0  0.099554  0  3.939485  0  0  0.10823  0  3.95328  0  0.523402  0  0.060671  0.094278  0  3.92917  0
C  C80  1  0.90176418  0.36892760  0.84594350  1  0  0.613398  0  3.607331  0  0  0.617956  0  3.859806  0  0  0.637533  0  3.863371  0  0.958594  0  0.179159  0.604163  0  3.857379  0
C  C81  1  0.09823790  0.63107367  0.15405711  1  0  0.613478  0  3.607202  0  0  0.617947  0  3.859804  0  0  0.637542  0  3.863348  0  0.958617  0  0.179146  0.604154  0  3.857376  0
C  C82  1  0.76242559  0.48204583  0.87522639  1  0  -0.444802  0  3.654863  0  0  -0.521507  0  3.880351  0  0  -0.526923  0  3.886662  0  -0.172854  0  -0.244704  -0.517362  0  3.876628  0
C  C83  1  0.23757355  0.51795449  0.12477461  1  0  -0.444813  0  3.654927  0  0  -0.521488  0  3.880445  0  0  -0.52691  0  3.886754  0  -0.172874  0  -0.244698  -0.517344  0  3.876723  0
C  C84  1  0.01783975  0.31840306  0.93586166  1  0  -0.447496  0  3.664532  0  0  -0.524685  0  3.893545  0  0  -0.53019  0  3.901195  0  -0.10404  0  -0.247629  -0.520422  0  3.888449  0
C  C85  1  0.98216198  0.68159633  0.06413832  1  0  -0.447487  0  3.664514  0  0  -0.524656  0  3.893556  0  0  -0.530167  0  3.901201  0  -0.104062  0  -0.247609  -0.520392  0  3.888461  0
N  N86  1  0.32202323  0.09255376  0.11562700  1  0  -0.065226  0  3.257268  0  0  -0.067035  0  3.623585  0  0  -0.045435  0  3.626826  0  0.112243  0  -0.277268  -0.082681  0  3.624528  0
N  N87  1  0.67797740  0.90744562  0.88437223  1  0  -0.06518  0  3.257153  0  0  -0.067038  0  3.623519  0  0  -0.045435  0  3.626761  0  0.111903  0  -0.277266  -0.082685  0  3.624458  0
N  N88  1  0.14013208  0.21206322  0.30780656  1  0  -0.510025  0  3.362817  0  0  -0.468235  0  3.663935  0  0  -0.495269  0  3.681697  0  -1.174106  0  -0.417889  -0.450359  0  3.650554  0
N  N89  1  0.85986744  0.78793617  0.69219537  1  0  -0.509997  0  3.362814  0  0  -0.46821  0  3.663921  0  0  -0.495245  0  3.681686  0  -1.174203  0  -0.417879  -0.450334  0  3.650539  0
N  N90  1  0.43907293  0.06878099  0.32967155  1  0  -0.458246  0  3.407989  0  0  -0.411853  0  3.695047  0  0  -0.439217  0  3.716985  0  -1.207213  0  -0.39386  -0.393228  0  3.679698  0
N  N91  1  0.56092473  0.93122027  0.67032862  1  0  -0.458346  0  3.408056  0  0  -0.412009  0  3.695175  0  0  -0.439372  0  3.717108  0  -1.207182  0  -0.393897  -0.393382  0  3.679828  0
N  N92  1  0.43557647  0.85930711  0.24692457  1  0  -0.290304  0  3.410153  0  0  -0.240745  0  3.688824  0  0  -0.256554  0  3.709981  0  -1.203932  0  -0.336338  -0.230715  0  3.67454  0
N  N93  1  0.56442194  0.14069228  0.75307401  1  0  -0.290478  0  3.410162  0  0  -0.240923  0  3.688828  0  0  -0.256732  0  3.709984  0  -1.203945  0  -0.336407  -0.230896  0  3.674553  0
O  O94  1  0.36465265  0.13093677  0.02196213  1  0  -0.095694  0  2.05269  0  0  -0.063462  0  2.280004  0  0  -0.069498  0  2.279294  0  -0.452692  0  -0.020761  -0.057529  0  2.279724  0
O  O95  1  0.63534805  0.86905698  0.97803946  1  0  -0.095805  0  2.052587  0  0  -0.06353  0  2.279892  0  0  -0.069576  0  2.279196  0  -0.452403  0  -0.020815  -0.057591  0  2.279607  0
O  O96  1  0.20468910  0.97504630  0.41588964  1  0  -0.88824  0  1.807199  0  0  -0.865715  0  2.040554  0  0  -0.894468  0  2.024849  0  -1.158156  0  -0.697506  -0.844585  0  2.050237  0
O  O97  1  0.79531042  0.02495309  0.58410969  1  0  -0.888225  0  1.807187  0  0  -0.865697  0  2.040548  0  0  -0.894445  0  2.024843  0  -1.157641  0  -0.697489  -0.844565  0  2.050229  0
O  O98  1  0.08310661  0.99394084  0.21251458  1  0  -0.594397  0  2.15798  0  0  -0.561491  0  2.438106  0  0  -0.588145  0  2.437542  0  -1.104621  0  -0.396203  -0.543652  0  2.439632  0
O  O99  1  0.91689181  0.00605855  0.78748573  1  0  -0.594367  0  2.158013  0  0  -0.561455  0  2.438125  0  0  -0.588114  0  2.437568  0  -1.104538  0  -0.396156  -0.543613  0  2.439646  0
O  O100  1  0.89859638  0.34141840  0.37827802  1  0  -0.607027  0  1.935818  0  0  -0.565017  0  2.162544  0  0  -0.586896  0  2.155043  0  -1.173213  0  -0.343245  -0.549323  0  2.166556  0
O  O101  1  0.10140386  0.65858193  0.62172461  1  0  -0.606979  0  1.935844  0  0  -0.56497  0  2.16256  0  0  -0.586852  0  2.155058  0  -1.173877  0  -0.343218  -0.549278  0  2.166579  0
O  O102  1  0.69150702  0.96852727  0.38726866  1  0  -0.591929  0  1.992202  0  0  -0.545172  0  2.224579  0  0  -0.566403  0  2.218812  0  -1.173165  0  -0.344739  -0.529858  0  2.229201  0
O  O103  1  0.30849250  0.03147211  0.61273155  1  0  -0.591895  0  1.992289  0  0  -0.545144  0  2.224652  0  0  -0.566371  0  2.218882  0  -1.173208  0  -0.344715  -0.52983  0  2.229276  0
O  O104  1  0.91759347  0.31908156  0.75368080  1  0  -0.541933  0  1.902282  0  0  -0.504689  0  2.109229  0  0  -0.522738  0  2.104971  0  -1.138748  0  -0.32872  -0.492034  0  2.112151  0
O  O105  1  0.08240971  0.68091971  0.24631969  1  0  -0.542008  0  1.902236  0  0  -0.504715  0  2.109215  0  0  -0.522772  0  2.104951  0  -1.138783  0  -0.328728  -0.49206  0  2.112134  0
