# generated using pymatgen
data_Cd3H22C16N9ClO8
_symmetry_space_group_name_H-M   'P 1'
_cell_length_a   9.48359626
_cell_length_b   13.08890937
_cell_length_c   22.76886739
_cell_angle_alpha   89.99996627
_cell_angle_beta   91.67699742
_cell_angle_gamma   90.00002052
_symmetry_Int_Tables_number   1
_chemical_formula_structural   Cd3H22C16N9ClO8
_chemical_formula_sum   'Cd12 H88 C64 N36 Cl4 O32'
_cell_volume   2825.08742809
_cell_formula_units_Z   4
loop_
 _symmetry_equiv_pos_site_id
 _symmetry_equiv_pos_as_xyz
  1  'x, y, z'
loop_
 _atom_site_type_symbol
 _atom_site_label
 _atom_site_symmetry_multiplicity
 _atom_site_fract_x
 _atom_site_fract_y
 _atom_site_fract_z
 _atom_site_occupancy
 _atom_site_pbe_bader_charge
 _atom_site_pbe_bader_spin_density
 _atom_site_pbe_cm5_charge
 _atom_site_pbe_ddec_charge
 _atom_site_pbe_ddec_spin_density
 _atom_site_pbe_ddec_sum_bond_order
 _atom_site_pbe_magmom
Cd  Cd0  1  0.55515031  0.84747613  0.41070768  1  1.279072  0  0.77452  0.89809  0  2.176991  0
Cd  Cd1  1  0.44485526  0.34747893  0.08929145  1  1.279034  0  0.774489  0.897995  0  2.177018  0
Cd  Cd2  1  0.44485214  0.15252201  0.58929436  1  1.279065  0  0.774502  0.898018  0  2.177071  0
Cd  Cd3  1  0.55514614  0.65252609  0.91070706  1  1.279102  0  0.77454  0.898132  0  2.177018  0
Cd  Cd4  1  0.03468310  0.60649655  0.25799067  1  1.245601  0  0.788951  0.78427  0  2.290885  0
Cd  Cd5  1  0.96531498  0.10649551  0.24200757  1  1.245645  0  0.788955  0.784283  0  2.290927  0
Cd  Cd6  1  0.96531830  0.39350160  0.74200829  1  1.245636  0  0.788924  0.784227  0  2.290999  0
Cd  Cd7  1  0.03468431  0.89350339  0.75798828  1  1.245687  0  0.788924  0.784267  0  2.290944  0
Cd  Cd8  1  0.07074743  0.50501666  0.42239600  1  1.219587  0  0.692591  0.785552  0  2.408969  0
Cd  Cd9  1  0.92925376  0.00501655  0.07760406  1  1.219517  0  0.692619  0.785607  0  2.409011  0
Cd  Cd10  1  0.92925080  0.49498148  0.57760335  1  1.219506  0  0.692585  0.78561  0  2.408958  0
Cd  Cd11  1  0.07074974  0.99498159  0.92239667  1  1.219501  0  0.692611  0.78561  0  2.409065  0
H  H12  1  0.48795381  0.88766806  0.60876102  1  0.082849  0  0.103904  0.126547  0  1.012855  0
H  H13  1  0.51204880  0.38767591  0.89123818  1  0.082789  0  0.103914  0.126545  0  1.012881  0
H  H14  1  0.51204548  0.11232397  0.39123923  1  0.082753  0  0.10392  0.126557  0  1.012885  0
H  H15  1  0.48796104  0.61233369  0.10876043  1  0.082814  0  0.103915  0.126573  0  1.012899  0
H  H16  1  0.31644510  0.84471947  0.59062945  1  0.062981  0  0.102381  0.125297  0  0.998863  0
H  H17  1  0.68355749  0.34471971  0.90937109  1  0.06292  0  0.102376  0.125278  0  0.998955  0
H  H18  1  0.68355524  0.15528096  0.40937037  1  0.062958  0  0.102362  0.125277  0  0.998909  0
H  H19  1  0.31644602  0.65527614  0.09062877  1  0.063339  0  0.102347  0.125227  0  0.99896  0
H  H20  1  0.25059672  0.66168358  0.60425144  1  0.115266  0  0.086028  0.103361  0  1.060562  0
H  H21  1  0.74938891  0.16168080  0.89574939  1  0.115262  0  0.085963  0.103276  0  1.060851  0
H  H22  1  0.74938358  0.33832068  0.39574901  1  0.115385  0  0.085967  0.103292  0  1.060798  0
H  H23  1  0.25059666  0.83831429  0.10424893  1  0.115188  0  0.086045  0.103347  0  1.060636  0
H  H24  1  0.27812778  0.51378429  0.67112224  1  0.09459  0  0.096501  0.102806  0  1.045263  0
H  H25  1  0.72185357  0.01378157  0.82888342  1  0.094589  0  0.0965  0.102807  0  1.045489  0
H  H26  1  0.72185252  0.48621691  0.32888260  1  0.094639  0  0.096458  0.102753  0  1.045353  0
H  H27  1  0.27812673  0.98621428  0.17112011  1  0.094606  0  0.096534  0.102843  0  1.045396  0
H  H28  1  0.68968095  0.62151063  0.72583835  1  0.071412  0  0.094723  0.099953  0  1.039383  0
H  H29  1  0.31031838  0.12152085  0.77415739  1  0.071417  0  0.094717  0.099891  0  1.039266  0
H  H30  1  0.31031834  0.37847758  0.27415662  1  0.071389  0  0.094716  0.099877  0  1.039324  0
H  H31  1  0.68967247  0.87849105  0.22583880  1  0.071317  0  0.094703  0.099941  0  1.039364  0
H  H32  1  0.65745962  0.77464718  0.66214343  1  0.054081  0  0.093336  0.091608  0  1.026771  0
H  H33  1  0.34254294  0.27465886  0.83785186  1  0.053992  0  0.093319  0.091606  0  1.026763  0
H  H34  1  0.34253861  0.22534103  0.33785153  1  0.053966  0  0.093302  0.091582  0  1.026771  0
H  H35  1  0.65745741  0.72535227  0.16214489  1  0.054097  0  0.093333  0.091607  0  1.026757  0
H  H36  1  0.40898786  0.41855708  0.74180533  1  0.048074  0  0.099379  0.119139  0  1.003403  0
H  H37  1  0.59100844  0.91855598  0.75819950  1  0.04811  0  0.099332  0.119103  0  1.003248  0
H  H38  1  0.59100932  0.58144182  0.25819621  1  0.048126  0  0.099306  0.119119  0  1.003176  0
H  H39  1  0.40898347  0.08144369  0.24180329  1  0.048002  0  0.099361  0.11914  0  1.003415  0
H  H40  1  0.59671530  0.42916991  0.74165824  1  0.058803  0  0.100905  0.125731  0  1.011618  0
H  H41  1  0.40327467  0.92917181  0.75834299  1  0.058632  0  0.1009  0.125721  0  1.011549  0
H  H42  1  0.40327555  0.57082976  0.25834190  1  0.058636  0  0.100921  0.125772  0  1.011522  0
H  H43  1  0.59671196  0.07083015  0.24165710  1  0.058842  0  0.100887  0.125755  0  1.011553  0
H  H44  1  0.73097499  0.75859409  0.29094063  1  0.118574  0  0.125439  0.088344  0  1.02882  0
H  H45  1  0.26902421  0.25859138  0.20906020  1  0.118573  0  0.125422  0.088376  0  1.028779  0
H  H46  1  0.26902747  0.24140481  0.70905877  1  0.118602  0  0.12545  0.088361  0  1.028795  0
H  H47  1  0.73097508  0.74140371  0.79094180  1  0.118598  0  0.125444  0.088354  0  1.028857  0
H  H48  1  0.80918415  0.67103133  0.46612558  1  0.174623  0  0.129251  0.107894  0  1.007009  0
H  H49  1  0.19081923  0.17103565  0.03387490  1  0.174635  0  0.129236  0.10789  0  1.007079  0
H  H50  1  0.19082147  0.32896834  0.53387254  1  0.17459  0  0.129217  0.107833  0  1.007  0
H  H51  1  0.80918111  0.82896937  0.96612624  1  0.174637  0  0.129255  0.107899  0  1.00703  0
H  H52  1  0.31843408  0.78437923  0.28470756  1  0.138023  0  0.129712  0.096094  0  1.002133  0
H  H53  1  0.68157251  0.28437967  0.21529292  1  0.137982  0  0.12971  0.09606  0  1.002146  0
H  H54  1  0.68157365  0.21561891  0.71529454  1  0.138163  0  0.129682  0.096055  0  1.002153  0
H  H55  1  0.31842889  0.71562458  0.78470472  1  0.138205  0  0.129695  0.096051  0  1.00214  0
H  H56  1  0.37940242  0.63573499  0.44706489  1  0.152322  0  0.134308  0.108944  0  0.990739  0
H  H57  1  0.62060200  0.13573482  0.05293562  1  0.152368  0  0.134263  0.108859  0  0.990769  0
H  H58  1  0.62060004  0.36426162  0.55293803  1  0.152436  0  0.134299  0.108961  0  0.990769  0
H  H59  1  0.37940573  0.86426485  0.94706297  1  0.152359  0  0.134326  0.108985  0  0.990694  0
H  H60  1  0.02369558  0.85559978  0.29895683  1  0.096166  0  0.133911  0.098261  0  0.993516  0
H  H61  1  0.97630893  0.35560185  0.20104140  1  0.096093  0  0.133932  0.098323  0  0.993508  0
H  H62  1  0.97631320  0.14440218  0.70104704  1  0.095946  0  0.133881  0.098293  0  0.993697  0
H  H63  1  0.02369669  0.64439782  0.79895629  1  0.096193  0  0.133931  0.098324  0  0.993481  0
H  H64  1  0.98961314  0.75529906  0.12384479  1  0.128704  0  0.132296  0.099748  0  0.989741  0
H  H65  1  0.01038817  0.25529992  0.37615300  1  0.128786  0  0.132294  0.099722  0  0.98977  0
H  H66  1  0.01039881  0.24469985  0.87615956  1  0.128563  0  0.132266  0.099714  0  0.989704  0
H  H67  1  0.98960373  0.74470205  0.62384452  1  0.12867  0  0.132275  0.099713  0  0.989825  0
H  H68  1  0.33994696  0.42347363  0.40157258  1  0.599166  0  0.289453  0.362805  0  0.97137  0
H  H69  1  0.66005759  0.92347958  0.09842651  1  0.599175  0  0.289382  0.362693  0  0.97151  0
H  H70  1  0.66005972  0.57652146  0.59842776  1  0.599223  0  0.289423  0.362762  0  0.971408  0
H  H71  1  0.33994803  0.07652544  0.90157337  1  0.599173  0  0.289429  0.362771  0  0.971377  0
H  H72  1  0.34881236  0.35560545  0.45755358  1  0.645569  0  0.282008  0.388898  0  0.948209  0
H  H73  1  0.65119004  0.85560993  0.04244639  1  0.645686  0  0.281998  0.388915  0  0.94821  0
H  H74  1  0.65119115  0.64438887  0.54244628  1  0.645704  0  0.281995  0.38894  0  0.948181  0
H  H75  1  0.34881452  0.14439203  0.95755436  1  0.645575  0  0.282028  0.388952  0  0.948133  0
H  H76  1  0.85502908  0.60165292  0.14004050  1  0.600547  0  0.314252  0.38913  0  0.898535  0
H  H77  1  0.14496055  0.10165689  0.35995807  1  0.600485  0  0.314255  0.389137  0  0.898553  0
H  H78  1  0.14496493  0.39834293  0.85995704  1  0.600508  0  0.314268  0.389136  0  0.898563  0
H  H79  1  0.85503241  0.89834736  0.64004210  1  0.600643  0  0.314266  0.389154  0  0.898553  0
H  H80  1  0.76656252  0.51972705  0.17295500  1  0.650318  0  0.282777  0.392329  0  0.948489  0
H  H81  1  0.23343024  0.01973031  0.32704452  1  0.650056  0  0.282761  0.392269  0  0.948564  0
H  H82  1  0.23343466  0.48027033  0.82704522  1  0.650336  0  0.282745  0.392229  0  0.948627  0
H  H83  1  0.76656377  0.98027165  0.67295830  1  0.650309  0  0.282768  0.392284  0  0.948559  0
H  H84  1  0.06662646  0.51490608  0.15542928  1  0.61367  0  0.294231  0.376267  0  0.945242  0
H  H85  1  0.93336419  0.01490417  0.34457022  1  0.6137  0  0.2943  0.376359  0  0.945149  0
H  H86  1  0.93337177  0.48509664  0.84456963  1  0.613665  0  0.294261  0.376282  0  0.94522  0
H  H87  1  0.06662560  0.98509703  0.65542815  1  0.61365  0  0.294229  0.376272  0  0.945202  0
H  H88  1  0.23369490  0.50920738  0.17115894  1  0.659595  0  0.283738  0.382166  0  0.963364  0
H  H89  1  0.76629680  0.00920697  0.32884057  1  0.659567  0  0.283711  0.382078  0  0.963475  0
H  H90  1  0.76630333  0.49079382  0.82883997  1  0.659511  0  0.283751  0.382167  0  0.963356  0
H  H91  1  0.23369510  0.99079117  0.67115695  1  0.659656  0  0.283732  0.382195  0  0.963338  0
H  H92  1  0.66263716  0.01850253  0.48271850  1  0.656009  0  0.281047  0.38312  0  0.95977  0
H  H93  1  0.33736299  0.51850466  0.01727979  1  0.65597  0  0.281063  0.383116  0  0.959781  0
H  H94  1  0.33736318  0.98149179  0.51728176  1  0.655896  0  0.281033  0.383074  0  0.959844  0
H  H95  1  0.66263736  0.48149730  0.98271915  1  0.655995  0  0.281095  0.383166  0  0.959726  0
H  H96  1  0.78427592  0.98839316  0.44039082  1  0.596609  0  0.304249  0.379939  0  0.9215  0
H  H97  1  0.21572549  0.48839440  0.05960821  1  0.596634  0  0.304266  0.379964  0  0.921482  0
H  H98  1  0.21572759  0.01160193  0.55961123  1  0.596559  0  0.304253  0.379966  0  0.9214  0
H  H99  1  0.78427697  0.51160757  0.94039032  1  0.59664  0  0.304294  0.379986  0  0.921409  0
C  C100  1  0.47310491  0.81290327  0.52768615  1  1.537516  0  0.211256  0.642211  0  4.112928  0
C  C101  1  0.52689345  0.31291029  0.97231522  1  1.537731  0  0.210988  0.641594  0  4.113347  0
C  C102  1  0.52689227  0.18709105  0.47231495  1  1.537772  0  0.210952  0.641557  0  4.113465  0
C  C103  1  0.47311006  0.68709473  0.02768595  1  1.537567  0  0.211159  0.641968  0  4.113171  0
C  C104  1  0.42792877  0.82198497  0.59106105  1  -0.025512  0  -0.163347  -0.350172  0  3.943709  0
C  C105  1  0.57207381  0.32198748  0.90893818  1  -0.025496  0  -0.163342  -0.350034  0  3.943612  0
C  C106  1  0.57207157  0.17801241  0.40893789  1  -0.025496  0  -0.163296  -0.350026  0  3.943594  0
C  C107  1  0.42792865  0.67801449  0.09106166  1  -0.025806  0  -0.163288  -0.350056  0  3.943642  0
C  C108  1  0.45024349  0.73001778  0.62953317  1  -0.019352  0  -0.016198  0.135047  0  3.985098  0
C  C109  1  0.54976433  0.23001039  0.87046790  1  -0.019262  0  -0.016165  0.134931  0  3.985228  0
C  C110  1  0.54976002  0.26998877  0.37046844  1  -0.019454  0  -0.016201  0.134919  0  3.985121  0
C  C111  1  0.45023918  0.76998623  0.12953503  1  -0.019264  0  -0.016258  0.135004  0  3.984954  0
C  C112  1  0.34570631  0.65478537  0.63206828  1  -0.018338  0  -0.094983  -0.125424  0  3.952803  0
C  C113  1  0.65429620  0.15478030  0.86793407  1  -0.018632  0  -0.094935  -0.125214  0  3.953105  0
C  C114  1  0.65428982  0.34522423  0.36793587  1  -0.018619  0  -0.094958  -0.125228  0  3.952956  0
C  C115  1  0.34570309  0.84521555  0.13206705  1  -0.018437  0  -0.095011  -0.125368  0  3.952823  0
C  C116  1  0.36189885  0.57060187  0.66917459  1  -0.14169  0  -0.097998  -0.134043  0  3.962678  0
C  C117  1  0.63810784  0.07060524  0.83082960  1  -0.141295  0  -0.098069  -0.134161  0  3.9632  0
C  C118  1  0.63809833  0.42939857  0.33083178  1  -0.141297  0  -0.097935  -0.134069  0  3.962994  0
C  C119  1  0.36189250  0.92939673  0.16917241  1  -0.141209  0  -0.098065  -0.13417  0  3.962923  0
C  C120  1  0.48492823  0.55829756  0.70387366  1  -0.006613  0  -0.01542  0.129648  0  3.973297  0
C  C121  1  0.51508162  0.05830169  0.79613365  1  -0.007423  0  -0.015369  0.129743  0  3.973183  0
C  C122  1  0.51507634  0.44170288  0.29613412  1  -0.007256  0  -0.015421  0.129741  0  3.973262  0
C  C123  1  0.48492505  0.94170638  0.20386844  1  -0.007326  0  -0.015395  0.129704  0  3.973254  0
C  C124  1  0.59227412  0.63161690  0.69987970  1  -0.089382  0  -0.106174  -0.16164  0  4.010572  0
C  C125  1  0.40773048  0.13162558  0.80011961  1  -0.088952  0  -0.106201  -0.161679  0  4.010556  0
C  C126  1  0.40772727  0.36837513  0.30012057  1  -0.088892  0  -0.106208  -0.161633  0  4.010546  0
C  C127  1  0.59227197  0.86838325  0.19987847  1  -0.089171  0  -0.106155  -0.161621  0  4.010552  0
C  C128  1  0.57418869  0.71711984  0.66379680  1  -0.081685  0  -0.100433  -0.150938  0  4.019182  0
C  C129  1  0.42581490  0.21712620  0.83620379  1  -0.081612  0  -0.100412  -0.150878  0  4.019412  0
C  C130  1  0.42581587  0.28287449  0.33620438  1  -0.081439  0  -0.100384  -0.15088  0  4.019477  0
C  C131  1  0.57418966  0.78288111  0.16379740  1  -0.081726  0  -0.100392  -0.150892  0  4.019135  0
C  C132  1  0.49807383  0.47130251  0.74753232  1  -0.008121  0  -0.162832  -0.346344  0  3.923604  0
C  C133  1  0.50192354  0.97130826  0.75246986  1  -0.00804  0  -0.162755  -0.346255  0  3.923216  0
C  C134  1  0.50192230  0.52869258  0.25246876  1  -0.008311  0  -0.162759  -0.346397  0  3.923357  0
C  C135  1  0.49806942  0.02869599  0.24753118  1  -0.00869  0  -0.162717  -0.346334  0  3.92344  0
C  C136  1  0.49960777  0.51739952  0.80876804  1  1.544558  0  0.213439  0.639609  0  4.134307  0
C  C137  1  0.50039152  0.01740300  0.69122906  1  1.544946  0  0.213409  0.639609  0  4.134416  0
C  C138  1  0.50038836  0.48259480  0.19123129  1  1.54488  0  0.213477  0.639751  0  4.13444  0
C  C139  1  0.49959828  0.98259667  0.30876844  1  1.54537  0  0.213456  0.639722  0  4.134133  0
C  C140  1  0.77320306  0.72025246  0.32986145  1  0.955922  0  0.125333  0.126415  0  4.033409  0
C  C141  1  0.22679823  0.22024900  0.17013898  1  0.955947  0  0.125387  0.126412  0  4.033569  0
C  C142  1  0.22680045  0.27974721  0.67013709  1  0.955919  0  0.125347  0.12645  0  4.033386  0
C  C143  1  0.77320001  0.77974914  0.82986213  1  0.95593  0  0.125322  0.126366  0  4.033514  0
C  C144  1  0.81195431  0.67592481  0.41868198  1  0.990912  0  0.137801  0.157127  0  3.965324  0
C  C145  1  0.18804591  0.17592679  0.08131714  1  0.990852  0  0.137774  0.157068  0  3.965339  0
C  C146  1  0.18804920  0.32407333  0.58131656  1  0.99092  0  0.137848  0.157258  0  3.965354  0
C  C147  1  0.81195549  0.82407517  0.91868269  1  0.990898  0  0.137809  0.157137  0  3.965351  0
C  C148  1  0.30931007  0.73173311  0.32128138  1  0.941476  0  0.133367  0.144766  0  3.998403  0
C  C149  1  0.69069545  0.23173207  0.17871867  1  0.941536  0  0.133381  0.144886  0  3.998472  0
C  C150  1  0.69069871  0.26826656  0.67872162  1  0.941328  0  0.133436  0.144899  0  3.998391  0
C  C151  1  0.30930806  0.76827066  0.82127812  1  0.941156  0  0.133436  0.144975  0  3.998376  0
C  C152  1  0.34051073  0.65612479  0.40330505  1  0.985714  0  0.137484  0.150782  0  3.967303  0
C  C153  1  0.65949686  0.15612688  0.09669461  1  0.985729  0  0.137552  0.150951  0  3.967452  0
C  C154  1  0.65949594  0.34387335  0.59669704  1  0.985749  0  0.137476  0.150824  0  3.967413  0
C  C155  1  0.34051086  0.84387585  0.90330355  1  0.985742  0  0.137466  0.150802  0  3.967149  0
C  C156  1  0.00665662  0.85347205  0.25164775  1  1.005052  0  0.132962  0.126762  0  4.016922  0
C  C157  1  0.99335107  0.35347178  0.24834965  1  1.005394  0  0.132844  0.126636  0  4.016927  0
C  C158  1  0.99335006  0.14653068  0.74835522  1  1.005201  0  0.132927  0.126629  0  4.017125  0
C  C159  1  0.00665139  0.64652712  0.75164756  1  1.004807  0  0.132954  0.126673  0  4.016945  0
C  C160  1  0.98850327  0.80194617  0.16325914  1  0.944093  0  0.137034  0.14017  0  4.002  0
C  C161  1  0.01149489  0.30194630  0.33673947  1  0.944122  0  0.137072  0.140241  0  4.001975  0
C  C162  1  0.01150551  0.19805809  0.83674385  1  0.943875  0  0.137044  0.140157  0  4.001812  0
C  C163  1  0.98850018  0.69805414  0.66325897  1  0.944117  0  0.13706  0.140177  0  4.002071  0
N  N164  1  0.73257562  0.74041988  0.38507517  1  -1.261327  0  -0.367518  -0.34108  0  3.499353  0
N  N165  1  0.26742780  0.24041879  0.11492573  1  -1.261278  0  -0.367556  -0.341043  0  3.499367  0
N  N166  1  0.26743106  0.25957979  0.61492385  1  -1.261447  0  -0.367611  -0.341159  0  3.499373  0
N  N167  1  0.73257044  0.75958241  0.88507582  1  -1.261386  0  -0.367602  -0.341099  0  3.499352  0
N  N168  1  0.89711766  0.61944802  0.38645434  1  -0.779576  0  -0.259929  -0.215481  0  3.450344  0
N  N169  1  0.10287936  0.11944917  0.11354389  1  -0.779542  0  -0.259943  -0.215504  0  3.450339  0
N  N170  1  0.10288585  0.38055012  0.61354333  1  -0.779459  0  -0.259943  -0.21561  0  3.450555  0
N  N171  1  0.89711887  0.88055050  0.88645503  1  -0.779532  0  -0.259936  -0.215565  0  3.450487  0
N  N172  1  0.87219076  0.64786982  0.32900680  1  -0.761219  0  -0.269017  -0.23753  0  3.48068  0
N  N173  1  0.12781050  0.14786634  0.17099191  1  -0.76123  0  -0.268998  -0.237537  0  3.480757  0
N  N174  1  0.12781275  0.35212909  0.67099086  1  -0.761058  0  -0.268969  -0.237465  0  3.480605  0
N  N175  1  0.87218879  0.85213104  0.82900702  1  -0.761255  0  -0.26899  -0.237483  0  3.480689  0
N  N176  1  0.38822989  0.73590151  0.37166775  1  -1.221478  0  -0.36026  -0.344178  0  3.479214  0
N  N177  1  0.61177668  0.23590279  0.12833230  1  -1.221382  0  -0.36029  -0.344292  0  3.479375  0
N  N178  1  0.61177572  0.26409816  0.62833476  1  -1.221237  0  -0.360265  -0.344267  0  3.479238  0
N  N179  1  0.38822999  0.76410146  0.87166496  1  -1.221347  0  -0.360269  -0.344296  0  3.479223  0
N  N180  1  0.21799493  0.65394434  0.32152473  1  -0.768613  0  -0.267162  -0.233527  0  3.466992  0
N  N181  1  0.78200739  0.15394180  0.17847574  1  -0.768707  0  -0.267161  -0.233583  0  3.467058  0
N  N182  1  0.78201280  0.34605609  0.67847605  1  -0.768878  0  -0.267161  -0.233583  0  3.467269  0
N  N183  1  0.21799296  0.84606017  0.82152364  1  -0.768609  0  -0.267188  -0.233696  0  3.467063  0
N  N184  1  0.23818588  0.60529702  0.37460704  1  -0.776896  0  -0.263548  -0.210961  0  3.432278  0
N  N185  1  0.76181958  0.10529758  0.12539261  1  -0.776975  0  -0.263547  -0.210971  0  3.432337  0
N  N186  1  0.76182185  0.39470265  0.62539375  1  -0.776975  0  -0.263535  -0.210956  0  3.432436  0
N  N187  1  0.23818393  0.89470514  0.87460681  1  -0.776962  0  -0.263542  -0.210923  0  3.432261  0
N  N188  1  0.01323688  0.76756040  0.21874608  1  -1.214686  0  -0.365725  -0.338021  0  3.495805  0
N  N189  1  0.98676865  0.26756163  0.28125263  1  -1.21467  0  -0.365672  -0.337987  0  3.495912  0
N  N190  1  0.98677190  0.23244003  0.78125691  1  -1.214624  0  -0.365765  -0.338029  0  3.495967  0
N  N191  1  0.01322747  0.73243957  0.71874582  1  -1.214677  0  -0.365727  -0.337934  0  3.495736  0
N  N192  1  0.97846599  0.93571206  0.21877657  1  -0.776025  0  -0.26051  -0.209436  0  3.463105  0
N  N193  1  0.02153857  0.43571301  0.28122164  1  -0.776466  0  -0.260489  -0.209477  0  3.463053  0
N  N194  1  0.02153752  0.06428762  0.78122724  1  -0.775836  0  -0.260414  -0.209337  0  3.462866  0
N  N195  1  0.97846389  0.56428742  0.71877557  1  -0.775751  0  -0.260499  -0.209409  0  3.463157  0
N  N196  1  0.96665670  0.90232122  0.16174979  1  -0.736052  0  -0.253316  -0.206108  0  3.439866  0
N  N197  1  0.03334467  0.40232518  0.33824926  1  -0.735991  0  -0.253319  -0.206044  0  3.439603  0
N  N198  1  0.03334892  0.09767845  0.83825360  1  -0.735847  0  -0.253276  -0.206019  0  3.439695  0
N  N199  1  0.96665673  0.59767831  0.66174881  1  -0.736094  0  -0.253336  -0.206141  0  3.439835  0
Cl  Cl200  1  0.91963028  0.37890616  0.48186236  1  -0.644648  0  -0.310677  -0.501346  0  1.222412  0
Cl  Cl201  1  0.08037108  0.87890898  0.01813539  1  -0.64453  0  -0.310679  -0.501364  0  1.222473  0
Cl  Cl202  1  0.08037112  0.62108969  0.51813704  1  -0.644609  0  -0.310678  -0.50137  0  1.222445  0
Cl  Cl203  1  0.91963454  0.12108840  0.98186405  1  -0.644587  0  -0.310684  -0.501357  0  1.222459  0
O  O204  1  0.42586254  0.88296871  0.49240454  1  -1.163858  0  -0.326102  -0.556799  0  2.24508  0
O  O205  1  0.57413566  0.38298462  0.00759536  1  -1.164051  0  -0.32589  -0.556457  0  2.245362  0
O  O206  1  0.57413042  0.11701721  0.50759694  1  -1.164108  0  -0.325881  -0.556423  0  2.24532  0
O  O207  1  0.42586468  0.61702880  0.99240446  1  -1.16392  0  -0.326033  -0.556678  0  2.245237  0
O  O208  1  0.55583511  0.74405111  0.51083481  1  -1.187714  0  -0.310633  -0.553406  0  2.181693  0
O  O209  1  0.44416955  0.24405044  0.98916359  1  -1.187574  0  -0.310614  -0.55321  0  2.181745  0
O  O210  1  0.44416946  0.25595085  0.48916418  1  -1.18764  0  -0.310585  -0.553185  0  2.181828  0
O  O211  1  0.55584240  0.75594694  0.01083506  1  -1.18774  0  -0.310646  -0.553378  0  2.181754  0
O  O212  1  0.61732801  0.55393428  0.82892218  1  -1.187078  0  -0.325966  -0.581173  0  2.30104  0
O  O213  1  0.38265757  0.05393315  0.67108001  1  -1.187167  0  -0.325919  -0.581133  0  2.300963  0
O  O214  1  0.38265756  0.44606310  0.17108097  1  -1.187225  0  -0.325952  -0.581169  0  2.300986  0
O  O215  1  0.61732378  0.94606422  0.32892090  1  -1.186902  0  -0.326001  -0.581232  0  2.301004  0
O  O216  1  0.38804345  0.52530007  0.83753102  1  -1.190916  0  -0.313329  -0.564365  0  2.200416  0
O  O217  1  0.61196638  0.02530361  0.66247323  1  -1.190971  0  -0.313305  -0.564395  0  2.200593  0
O  O218  1  0.61196006  0.47469501  0.16247279  1  -1.190888  0  -0.313355  -0.564493  0  2.200626  0
O  O219  1  0.38802763  0.97470065  0.33752739  1  -1.191105  0  -0.31338  -0.564467  0  2.200412  0
O  O220  1  0.71447041  0.95842349  0.46573080  1  -1.237374  0  -0.591096  -0.752531  0  2.026424  0
O  O221  1  0.28553310  0.45842554  0.03426827  1  -1.237352  0  -0.591122  -0.752525  0  2.026465  0
O  O222  1  0.28553205  0.04157160  0.53426992  1  -1.237257  0  -0.591103  -0.752501  0  2.026409  0
O  O223  1  0.71447252  0.54157643  0.96573249  1  -1.237406  0  -0.591196  -0.752623  0  2.026301  0
O  O224  1  0.14980721  0.55578268  0.16631825  1  -1.266113  0  -0.591322  -0.747314  0  2.022921  0
O  O225  1  0.85018557  0.05578152  0.33367994  1  -1.266119  0  -0.591362  -0.747334  0  2.022988  0
O  O226  1  0.85019208  0.44422005  0.83367980  1  -1.266059  0  -0.59135  -0.747325  0  2.022988  0
O  O227  1  0.14980422  0.94421891  0.66631887  1  -1.266171  0  -0.591309  -0.747369  0  2.022923  0
O  O228  1  0.86390159  0.55184815  0.17163214  1  -1.252387  0  -0.584902  -0.775409  0  2.015774  0
O  O229  1  0.13608802  0.05184985  0.32836733  1  -1.252121  0  -0.584894  -0.775366  0  2.015908  0
O  O230  1  0.13609348  0.44815152  0.82836673  1  -1.252401  0  -0.5849  -0.775337  0  2.015914  0
O  O231  1  0.86390388  0.94815287  0.67163371  1  -1.252495  0  -0.584899  -0.775376  0  2.0159  0
O  O232  1  0.29865279  0.41581979  0.44003817  1  -1.25086  0  -0.600146  -0.771605  0  2.067274  0
O  O233  1  0.70134753  0.91582809  0.05996000  1  -1.250977  0  -0.600067  -0.771491  0  2.067458  0
O  O234  1  0.70134756  0.58416995  0.55995990  1  -1.251051  0  -0.600098  -0.771585  0  2.067278  0
O  O235  1  0.29865703  0.08417540  0.94003987  1  -1.250859  0  -0.600127  -0.771607  0  2.067264  0
