# generated using pymatgen
data_CuH2C7NO4
_symmetry_space_group_name_H-M   'P 1'
_cell_length_a   8.34003630
_cell_length_b   8.34002440
_cell_length_c   10.51002073
_cell_angle_alpha   89.88089631
_cell_angle_beta   89.88023260
_cell_angle_gamma   60.26737163
_symmetry_Int_Tables_number   1
_chemical_formula_structural   CuH2C7NO4
_chemical_formula_sum   'Cu4 H8 C28 N4 O16'
_cell_volume   634.79280222
_cell_formula_units_Z   4
loop_
 _symmetry_equiv_pos_site_id
 _symmetry_equiv_pos_as_xyz
  1  'x, y, z'
loop_
 _atom_site_type_symbol
 _atom_site_label
 _atom_site_symmetry_multiplicity
 _atom_site_fract_x
 _atom_site_fract_y
 _atom_site_fract_z
 _atom_site_occupancy
 _atom_site_hle17_ddec_charge
 _atom_site_hle17_ddec_spin_density
 _atom_site_hle17_ddec_sum_bond_order
 _atom_site_hle17_magmom
 _atom_site_hse06_10hf_ddec_charge
 _atom_site_hse06_10hf_ddec_spin_density
 _atom_site_hse06_10hf_ddec_sum_bond_order
 _atom_site_hse06_10hf_magmom
 _atom_site_hse06_ddec_charge
 _atom_site_hse06_ddec_spin_density
 _atom_site_hse06_ddec_sum_bond_order
 _atom_site_hse06_magmom
 _atom_site_pbe_cm5_charge
 _atom_site_pbe_ddec_charge
 _atom_site_pbe_ddec_spin_density
 _atom_site_pbe_ddec_sum_bond_order
 _atom_site_pbe_magmom
Cu  Cu0  1  0.55910967  0.81292718  0.83331218  1  0.938802  -0.713694  1.731079  -0.513  0.935536  -0.807869  2.119834  -0.64  1.026921  -0.887404  2.054435  -0.734  0.739336  0.873826  -0.743131  2.173185  -0.574
Cu  Cu1  1  0.18708180  0.44090254  0.66669655  1  0.93877  0.713729  1.731165  0.513  0.935471  0.807889  2.119966  0.64  1.026813  0.887431  2.054621  0.734  0.739338  0.873807  0.743162  2.173233  0.574
Cu  Cu2  1  0.44089126  0.18707254  0.16668891  1  0.93883  0.713695  1.731091  0.513  0.935578  0.80788  2.119834  0.64  1.026913  0.887408  2.054418  0.734  0.73934  0.873846  0.743127  2.173165  0.574
Cu  Cu3  1  0.81291981  0.55909580  0.33330455  1  0.938787  -0.713731  1.731157  -0.513  0.93548  -0.807889  2.119965  -0.64  1.026846  -0.88743  2.054637  -0.734  0.739353  0.873831  -0.743155  2.173267  -0.574
H  H4  1  0.25262520  0.67089522  0.17915720  1  0.129654  -0.000761  0.973198  -0.001  0.137726  -0.000623  1.033722  -0.001  0.141632  -0.000417  1.031557  -0.001  0.116775  0.13424  -0.000727  1.036706  -0.001
H  H5  1  0.32909189  0.74739380  0.32084409  1  0.12963  0.000761  0.973294  0.001  0.137706  0.000623  1.033798  0.001  0.141624  0.000416  1.031618  0.001  0.116745  0.134217  0.000727  1.036779  0.001
H  H6  1  0.74737521  0.32910312  0.82084199  1  0.129699  0.000758  0.973108  0.001  0.13773  0.000623  1.033668  0.001  0.141658  0.000416  1.031473  0.001  0.116777  0.134238  0.000727  1.036652  0.001
H  H7  1  0.67090356  0.25260731  0.67915415  1  0.129622  -0.000761  0.97329  -0.001  0.137779  -0.000623  1.033719  -0.001  0.14164  -0.000416  1.031619  -0.001  0.116754  0.134297  -0.000727  1.036678  -0.001
H  H8  1  0.96678851  0.72673781  0.06204874  1  0.129005  -9.1e-05  0.913593  0.0  0.138356  1.7e-05  0.970253  0.0  0.142069  5.5e-05  0.967287  0.0  0.120763  0.135686  -4.1e-05  0.972431  0.0
H  H9  1  0.27324914  0.03323192  0.43795333  1  0.12908  8.8e-05  0.913687  0.0  0.138441  -1.7e-05  0.970325  0.0  0.142154  -5.5e-05  0.96736  0.0  0.120806  0.135781  4.1e-05  0.972516  0.0
H  H10  1  0.03321053  0.27326329  0.93795045  1  0.128996  9.1e-05  0.913578  0.0  0.138347  -1.7e-05  0.970234  0.0  0.14206  -5.5e-05  0.967269  0.0  0.120761  0.135674  4e-05  0.972414  0.0
H  H11  1  0.72674939  0.96676780  0.56204491  1  0.129049  -8.8e-05  0.913696  0.0  0.138414  1.7e-05  0.970327  0.0  0.142126  5.5e-05  0.967364  0.0  0.120787  0.135749  -4e-05  0.972515  0.0
C  C12  1  0.36706476  0.73102106  0.01436110  1  0.107027  0.004414  3.715278  0.005  0.109424  0.000143  3.962999  0.001  0.114123  0.001097  3.979795  0.002  0.114211  0.105979  -0.000791  3.952161  0.0
C  C13  1  0.26897541  0.63295170  0.48564660  1  0.107206  -0.004414  3.715042  -0.005  0.109284  -0.000144  3.963076  -0.001  0.113974  -0.001096  3.979898  -0.002  0.114253  0.105839  0.000792  3.952239  0.0
C  C14  1  0.63293428  0.26898004  0.98563904  1  0.107057  -0.004407  3.715295  -0.005  0.109432  -0.000144  3.963012  -0.001  0.114129  -0.001096  3.979811  -0.002  0.114226  0.10599  0.000791  3.95217  0.0
C  C15  1  0.73102312  0.36704802  0.51435260  1  0.107161  0.004419  3.715033  0.005  0.109248  0.000144  3.963123  0.001  0.113937  0.001097  3.979932  0.002  0.114288  0.10581  -0.000791  3.952284  0.0
C  C16  1  0.23134643  0.71397867  0.08009297  1  -0.075743  -0.005073  3.649801  -0.005  -0.102131  -0.002342  3.901823  -0.002  -0.105605  -0.002371  3.917444  -0.002  -0.064884  -0.100323  -0.002457  3.893488  -0.002
C  C17  1  0.28600883  0.76867415  0.41991051  1  -0.075735  0.005071  3.649764  0.005  -0.102025  0.002343  3.901869  0.002  -0.105503  0.002372  3.917476  0.002  -0.064817  -0.100216  0.002458  3.893535  0.002
C  C18  1  0.76865398  0.28601967  0.91990717  1  -0.075754  0.005069  3.64981  0.005  -0.102094  0.002343  3.901821  0.002  -0.10558  0.002372  3.917427  0.002  -0.064859  -0.100284  0.002457  3.893477  0.002
C  C19  1  0.71398781  0.23132695  0.58008868  1  -0.075692  -0.005078  3.649621  -0.005  -0.102076  -0.002343  3.901748  -0.002  -0.105518  -0.002372  3.917402  -0.002  -0.064826  -0.100265  -0.002457  3.89339  -0.002
C  C20  1  0.07672624  0.73881148  0.01437192  1  0.016433  0.005846  3.610629  0.006  -0.009909  0.001483  3.858733  0.002  -0.003748  0.001937  3.871457  0.002  -0.048877  -0.014222  0.001258  3.850871  0.001
C  C21  1  0.26118239  0.92329156  0.48563048  1  0.016308  -0.005832  3.610797  -0.006  -0.01009  -0.001484  3.858965  -0.002  -0.003917  -0.001938  3.871692  -0.002  -0.049004  -0.014418  -0.001258  3.85112  -0.001
C  C22  1  0.92327469  0.26118824  0.98562727  1  0.016398  -0.005836  3.610666  -0.006  -0.009941  -0.001484  3.858758  -0.002  -0.003779  -0.001938  3.871485  -0.002  -0.048928  -0.014251  -0.001258  3.850891  -0.001
C  C23  1  0.73881545  0.07670954  0.51436871  1  0.016347  0.005843  3.610724  0.006  -0.010035  0.001483  3.85891  0.002  -0.003864  0.001938  3.871624  0.002  -0.048967  -0.014359  0.001258  3.851063  0.001
C  C24  1  0.06949209  0.76465208  0.88240377  1  -0.108791  -0.014209  3.689576  -0.015  -0.095902  -0.007305  3.929176  -0.008  -0.105982  -0.005828  3.947201  -0.007  0.004037  -0.089682  -0.008301  3.917733  -0.009
C  C25  1  0.23535080  0.93052751  0.61759937  1  -0.109088  0.014205  3.690026  0.015  -0.096243  0.007307  3.929443  0.008  -0.106359  0.00583  3.947519  0.007  0.003918  -0.090021  0.008302  3.918002  0.009
C  C26  1  0.93050884  0.23534764  0.11759542  1  -0.108758  0.014199  3.689501  0.015  -0.095897  0.007305  3.92914  0.008  -0.105979  0.005827  3.947166  0.007  0.004028  -0.089681  0.008301  3.917705  0.009
C  C27  1  0.76465013  0.06947221  0.38239887  1  -0.109145  -0.014212  3.690109  -0.015  -0.096319  -0.007306  3.929532  -0.008  -0.106423  -0.005828  3.947586  -0.007  0.003886  -0.090098  -0.008302  3.918099  -0.009
C  C28  1  0.21177104  0.77798814  0.82065069  1  0.182614  0.003999  3.701831  0.006  0.171598  -0.000211  3.95198  0.001  0.180256  0.000944  3.971709  0.003  0.131909  0.165526  -0.001355  3.939548  0.0
C  C29  1  0.22202048  0.78824700  0.67935281  1  0.182516  -0.003993  3.701763  -0.006  0.171725  0.000211  3.951634  -0.001  0.180391  -0.000942  3.971358  -0.003  0.131911  0.165655  0.001356  3.939197  0.0
C  C30  1  0.78822988  0.22201158  0.17934851  1  0.18263  -0.003996  3.701814  -0.006  0.171639  0.00021  3.951932  -0.001  0.180296  -0.000944  3.971659  -0.003  0.131924  0.165562  0.001355  3.939512  0.0
C  C31  1  0.77798045  0.21175272  0.32064638  1  0.182528  0.004  3.701781  0.006  0.171747  -0.000212  3.951646  0.001  0.180409  0.000942  3.971369  0.003  0.131906  0.165681  -0.001356  3.939221  0.0
C  C32  1  0.54789933  0.68968411  0.07482485  1  0.614849  0.005237  3.905315  0.008  0.572387  -1.5e-05  4.21188  0.002  0.610114  -9.8e-05  4.204561  0.001  0.209489  0.546563  -0.000109  4.214989  0.002
C  C33  1  0.31031512  0.45210417  0.42518374  1  0.614848  -0.005233  3.905607  -0.008  0.572597  1.6e-05  4.211982  -0.002  0.61031  9.9e-05  4.204687  -0.001  0.209617  0.546773  0.00011  4.215097  -0.002
C  C34  1  0.45210039  0.31031561  0.92517624  1  0.614843  -0.005237  3.905484  -0.008  0.572389  1.6e-05  4.212029  -0.002  0.610115  9.8e-05  4.204709  -0.001  0.209495  0.546559  0.000109  4.215139  -0.002
C  C35  1  0.68968410  0.54789417  0.57481546  1  0.614924  0.005235  3.905514  0.008  0.572658  -1.6e-05  4.211899  0.002  0.610377  -9.9e-05  4.204597  0.001  0.209568  0.546827  -0.00011  4.215007  0.002
C  C36  1  0.91735067  0.75249302  0.81577608  1  0.661518  -0.001382  3.879909  0.0  0.619751  -0.001817  4.181015  -0.001  0.66179  -0.001074  4.17093  -0.001  0.220131  0.590878  -0.002528  4.186604  -0.002
C  C37  1  0.24751834  0.08266326  0.68423263  1  0.661472  0.001379  3.880093  0.0  0.619924  0.001816  4.180845  0.001  0.661972  0.001074  4.170752  0.001  0.220303  0.591056  0.002527  4.186437  0.002
C  C38  1  0.08264889  0.24750946  0.18422502  1  0.661526  0.001383  3.879784  0.0  0.619727  0.001817  4.180945  0.001  0.661765  0.001075  4.170854  0.001  0.220155  0.59086  0.002528  4.186537  0.002
C  C39  1  0.75248447  0.91733508  0.31576751  1  0.661483  -0.001381  3.880154  0.0  0.619968  -0.001817  4.180837  -0.001  0.662013  -0.001074  4.170742  -0.001  0.220365  0.591103  -0.002527  4.186436  -0.002
N  N40  1  0.35266856  0.77048762  0.88889930  1  -0.338237  -0.07484  3.299003  -0.093  -0.30334  -0.054499  3.585829  -0.072  -0.332494  -0.044525  3.606671  -0.062  -0.328618  -0.285191  -0.059434  3.573546  -0.075
N  N41  1  0.22951611  0.64734876  0.61110733  1  -0.338153  0.074837  3.298739  0.093  -0.303185  0.0545  3.585551  0.072  -0.33232  0.044524  3.606384  0.062  -0.328617  -0.285039  0.059435  3.573261  0.075
N  N42  1  0.64733116  0.22951209  0.11110085  1  -0.338265  0.074833  3.299005  0.093  -0.303386  0.054498  3.585849  0.072  -0.332524  0.044523  3.606668  0.062  -0.328624  -0.28523  0.059433  3.57356  0.075
N  N43  1  0.77048430  0.35264958  0.38889186  1  -0.338167  -0.074839  3.298763  -0.093  -0.303222  -0.0545  3.585596  -0.072  -0.332361  -0.044525  3.60644  -0.062  -0.328652  -0.285082  -0.059433  3.573324  -0.075
O  O44  1  0.66294230  0.70642009  0.00173178  1  -0.573727  -0.100189  2.03291  -0.133  -0.561467  -0.060236  2.322699  -0.088  -0.604495  -0.044482  2.314075  -0.069  -0.317632  -0.532486  -0.069379  2.328562  -0.098
O  O45  1  0.29358010  0.33707053  0.49827825  1  -0.573616  0.100151  2.033073  0.133  -0.561398  0.060216  2.322805  0.088  -0.604404  0.044469  2.314179  0.069  -0.317629  -0.532428  0.069353  2.328672  0.097
O  O46  1  0.33705879  0.29357686  0.99826836  1  -0.573644  0.100192  2.032938  0.133  -0.561421  0.060232  2.322714  0.088  -0.604439  0.044479  2.314086  0.069  -0.317619  -0.532432  0.06938  2.328567  0.098
O  O47  1  0.70641842  0.66292919  0.50172094  1  -0.573616  -0.100166  2.033049  -0.133  -0.561409  -0.06022  2.322767  -0.088  -0.604426  -0.044471  2.314153  -0.069  -0.317623  -0.532442  -0.069363  2.32864  -0.097
O  O48  1  0.57810529  0.63425935  0.18748609  1  -0.569542  -0.024596  2.045061  -0.033  -0.547316  -0.010422  2.313106  -0.016  -0.578574  -0.004164  2.303348  -0.007  -0.292164  -0.522699  -0.017634  2.317759  -0.024
O  O49  1  0.36573774  0.42189467  0.31251925  1  -0.569767  0.024604  2.045427  0.033  -0.54758  0.010423  2.313341  0.016  -0.578855  0.004164  2.303642  0.007  -0.292317  -0.52294  0.017636  2.317978  0.024
O  O50  1  0.42189512  0.36573899  0.81251405  1  -0.569627  0.024597  2.045223  0.033  -0.547391  0.010421  2.31326  0.016  -0.578641  0.004163  2.303494  0.007  -0.292188  -0.522765  0.017638  2.3179  0.024
O  O51  1  0.63426267  0.57810367  0.68748090  1  -0.569818  -0.0246  2.045374  -0.033  -0.547584  -0.010423  2.313278  -0.016  -0.578871  -0.004163  2.303582  -0.007  -0.292294  -0.522951  -0.01764  2.317919  -0.024
O  O52  1  0.95783523  0.60317375  0.75923275  1  -0.570684  0.060747  2.115446  0.079  -0.550859  0.039511  2.408038  0.057  -0.591369  0.030233  2.394227  0.046  -0.303961  -0.522798  0.045093  2.417194  0.062
O  O53  1  0.39684500  0.04216849  0.74076462  1  -0.570612  -0.060737  2.115352  -0.079  -0.550884  -0.039505  2.407819  -0.057  -0.591398  -0.030229  2.393991  -0.046  -0.303972  -0.522817  -0.045084  2.416987  -0.062
O  O54  1  0.04216245  0.39683011  0.24076549  1  -0.570721  -0.060744  2.115389  -0.079  -0.550895  -0.03951  2.408005  -0.057  -0.591409  -0.030233  2.3942  -0.046  -0.303981  -0.522836  -0.045087  2.417175  -0.062
O  O55  1  0.60315849  0.95782847  0.25923457  1  -0.570701  0.060738  2.115429  0.079  -0.550951  0.039505  2.407872  0.057  -0.591452  0.030229  2.394026  0.046  -0.304016  -0.522875  0.045082  2.417033  0.062
O  O56  1  0.75359087  0.88507337  0.83026663  1  -0.543069  -0.066063  2.02856  -0.086  -0.513826  -0.042321  2.296241  -0.061  -0.554585  -0.033254  2.285734  -0.05  -0.300514  -0.485304  -0.046559  2.30322  -0.064
O  O57  1  0.11493782  0.24642325  0.66975200  1  -0.542941  0.066067  2.028625  0.086  -0.513765  0.042325  2.29621  0.061  -0.554515  0.033257  2.285692  0.05  -0.30054  -0.485247  0.046562  2.303184  0.064
O  O58  1  0.24641057  0.11492773  0.16973732  1  -0.543145  0.066066  2.028645  0.086  -0.513793  0.042321  2.296229  0.061  -0.554554  0.033254  2.285741  0.05  -0.300503  -0.485261  0.046558  2.303199  0.064
O  O59  1  0.88506379  0.75357508  0.33025195  1  -0.542861  -0.066069  2.028573  -0.086  -0.513727  -0.042326  2.296181  -0.061  -0.554484  -0.033258  2.285674  -0.05  -0.300527  -0.485209  -0.046562  2.303165  -0.064
