# generated using pymatgen
data_ZnSiH28C40(N2F3)2
_symmetry_space_group_name_H-M   'P 1'
_cell_length_a   15.06377280
_cell_length_b   17.80249973
_cell_length_c   17.80247599
_cell_angle_alpha   89.99963968
_cell_angle_beta   90.00001997
_cell_angle_gamma   90.00030722
_symmetry_Int_Tables_number   1
_chemical_formula_structural   ZnSiH28C40(N2F3)2
_chemical_formula_sum   'Zn4 Si4 H112 C160 N16 F24'
_cell_volume   4774.14003071
_cell_formula_units_Z   4
loop_
 _symmetry_equiv_pos_site_id
 _symmetry_equiv_pos_as_xyz
  1  'x, y, z'
loop_
 _atom_site_type_symbol
 _atom_site_label
 _atom_site_symmetry_multiplicity
 _atom_site_fract_x
 _atom_site_fract_y
 _atom_site_fract_z
 _atom_site_occupancy
 _atom_site_pbe_bader_charge
 _atom_site_pbe_bader_spin_density
 _atom_site_pbe_cm5_charge
 _atom_site_pbe_ddec_charge
 _atom_site_pbe_ddec_spin_density
 _atom_site_pbe_ddec_sum_bond_order
 _atom_site_pbe_magmom
Zn  Zn0  1  0.87151727  0.74999991  0.74999906  1  1.373246  0  0.715037  0.735788  0  2.490783  0
Zn  Zn1  1  0.37151637  0.74999878  0.75000124  1  1.37324  0  0.715018  0.735722  0  2.490826  0
Zn  Zn2  1  0.62848218  0.25000036  0.24999993  1  1.373243  0  0.715067  0.735922  0  2.490576  0
Zn  Zn3  1  0.12848194  0.24999923  0.25000097  1  1.373244  0  0.715105  0.735887  0  2.490662  0
Si  Si4  1  0.62157524  0.74999822  0.75000071  1  3.237556  0  0.252805  1.744728  0  3.950116  0
Si  Si5  1  0.12157566  0.75000046  0.74999839  1  3.237558  0  0.25285  1.744675  0  3.950347  0
Si  Si6  1  0.87842554  0.24999980  0.25000109  1  3.237548  0  0.252859  1.744947  0  3.949667  0
Si  Si7  1  0.37842397  0.25000148  0.24999820  1  3.237603  0  0.252832  1.74474  0  3.950164  0
H  H8  1  0.76035879  0.82491628  0.87141675  1  0.152191  0  0.120181  0.105501  0  1.005953  0
H  H9  1  0.76182975  0.84135825  0.01120714  1  0.078961  0  0.105985  0.113077  0  1.005907  0
H  H10  1  0.98759543  0.69224485  0.01900488  1  0.083973  0  0.10619  0.11317  0  1.010867  0
H  H11  1  0.98382628  0.68841346  0.87823930  1  0.165812  0  0.121142  0.104912  0  1.002434  0
H  H12  1  0.87965623  0.65398391  0.12667933  1  0.072894  0  0.104569  0.107747  0  0.996347  0
H  H13  1  0.87449567  0.90647053  0.24830993  1  0.028734  0  0.10571  0.106962  0  0.993592  0
H  H14  1  0.87110668  0.89531073  0.10928211  1  0.051884  0  0.101014  0.099055  0  1.004489  0
H  H15  1  0.76035495  0.67508528  0.62858527  1  0.152782  0  0.120139  0.105493  0  1.005952  0
H  H16  1  0.76182595  0.65864196  0.48879466  1  0.079001  0  0.105967  0.113088  0  1.0059  0
H  H17  1  0.98759523  0.80775527  0.48099362  1  0.08395  0  0.106182  0.113149  0  1.010875  0
H  H18  1  0.98382729  0.81158798  0.62175998  1  0.1658  0  0.12115  0.104921  0  1.002442  0
H  H19  1  0.87965424  0.84601628  0.37332307  1  0.072853  0  0.104561  0.107738  0  0.996349  0
H  H20  1  0.87449667  0.59352907  0.25169134  1  0.02879  0  0.105722  0.106999  0  0.993579  0
H  H21  1  0.87110582  0.60468661  0.39071972  1  0.051811  0  0.10099  0.098973  0  1.004463  0
H  H22  1  0.76035418  0.62858276  0.82491597  1  0.152895  0  0.120155  0.105538  0  1.005913  0
H  H23  1  0.76183145  0.48878999  0.84135739  1  0.078964  0  0.105968  0.113088  0  1.005887  0
H  H24  1  0.98760286  0.48099431  0.69224335  1  0.084026  0  0.106166  0.113171  0  1.010805  0
H  H25  1  0.98383002  0.62176106  0.68841086  1  0.165754  0  0.121163  0.104889  0  1.002479  0
H  H26  1  0.87966076  0.37332279  0.65398327  1  0.073044  0  0.104575  0.1078  0  0.996332  0
H  H27  1  0.87450037  0.25169131  0.90646932  1  0.028846  0  0.105724  0.106988  0  0.993575  0
H  H28  1  0.87110790  0.39071957  0.89531144  1  0.051852  0  0.10098  0.098973  0  1.004546  0
H  H29  1  0.76034828  0.87141767  0.67507875  1  0.152844  0  0.120105  0.105482  0  1.005853  0
H  H30  1  0.76182592  0.01121212  0.65864498  1  0.079143  0  0.105953  0.113071  0  1.005905  0
H  H31  1  0.98759544  0.01900265  0.80775571  1  0.084164  0  0.106196  0.11318  0  1.010813  0
H  H32  1  0.98382820  0.87823645  0.81158393  1  0.165858  0  0.121169  0.10495  0  1.002309  0
H  H33  1  0.87965803  0.12667873  0.84602025  1  0.072996  0  0.104561  0.107739  0  0.996313  0
H  H34  1  0.87449963  0.24830738  0.59353252  1  0.028844  0  0.105674  0.106881  0  0.993667  0
H  H35  1  0.87110495  0.10927911  0.60468702  1  0.051818  0  0.10098  0.099029  0  1.004465  0
H  H36  1  0.26035651  0.82491984  0.62858360  1  0.152243  0  0.120139  0.105522  0  1.005872  0
H  H37  1  0.26182961  0.84135731  0.48879008  1  0.078959  0  0.105966  0.11307  0  1.005904  0
H  H38  1  0.48759528  0.69224114  0.48099447  1  0.083889  0  0.106177  0.113129  0  1.010845  0
H  H39  1  0.48382998  0.68841145  0.62176086  1  0.165763  0  0.121142  0.104889  0  1.002386  0
H  H40  1  0.37965671  0.65397975  0.37332079  1  0.072979  0  0.104612  0.107822  0  0.996357  0
H  H41  1  0.37449610  0.90647051  0.25169197  1  0.028753  0  0.105715  0.106979  0  0.99356  0
H  H42  1  0.37110451  0.89531152  0.39072098  1  0.051832  0  0.101016  0.099041  0  1.004422  0
H  H43  1  0.26035277  0.67508001  0.87141659  1  0.152911  0  0.120113  0.105489  0  1.005916  0
H  H44  1  0.26182694  0.65864233  0.01120989  1  0.078906  0  0.105953  0.113057  0  1.005921  0
H  H45  1  0.48759423  0.80775783  0.01900500  1  0.083963  0  0.106197  0.113176  0  1.010833  0
H  H46  1  0.48382843  0.81158829  0.87823884  1  0.165813  0  0.121121  0.104886  0  1.002464  0
H  H47  1  0.37965528  0.84601817  0.12667809  1  0.073024  0  0.104576  0.107757  0  0.996351  0
H  H48  1  0.37449842  0.59352908  0.24830747  1  0.028785  0  0.105717  0.106987  0  0.993594  0
H  H49  1  0.37110552  0.60468861  0.10927902  1  0.051813  0  0.100998  0.098984  0  1.004484  0
H  H50  1  0.26035324  0.62858435  0.67508112  1  0.152857  0  0.12013  0.1055  0  1.00588  0
H  H51  1  0.26182520  0.48878999  0.65864284  1  0.078898  0  0.105955  0.113067  0  1.005877  0
H  H52  1  0.48759601  0.48099394  0.80775643  1  0.083941  0  0.106191  0.113165  0  1.010842  0
H  H53  1  0.48383113  0.62176010  0.81158803  1  0.165759  0  0.121162  0.104912  0  1.002352  0
H  H54  1  0.37965459  0.37332049  0.84601659  1  0.072901  0  0.104589  0.107757  0  0.996331  0
H  H55  1  0.37449674  0.25169060  0.59352906  1  0.028758  0  0.105727  0.106986  0  0.993538  0
H  H56  1  0.37110561  0.39071991  0.60468887  1  0.051853  0  0.101001  0.099008  0  1.004476  0
H  H57  1  0.26035670  0.87141607  0.82491738  1  0.152785  0  0.120158  0.105507  0  1.005946  0
H  H58  1  0.26182970  0.01120761  0.84135881  1  0.078957  0  0.105984  0.113103  0  1.005853  0
H  H59  1  0.48759717  0.01900525  0.69224361  1  0.083902  0  0.106185  0.113186  0  1.010805  0
H  H60  1  0.48382727  0.87823908  0.68841335  1  0.165804  0  0.12115  0.104914  0  1.002477  0
H  H61  1  0.37965708  0.12667877  0.65398341  1  0.072895  0  0.104581  0.107765  0  0.996341  0
H  H62  1  0.37449746  0.24830751  0.90647038  1  0.028813  0  0.105735  0.107022  0  0.993539  0
H  H63  1  0.37110676  0.10927987  0.89531057  1  0.051839  0  0.100983  0.098975  0  1.004575  0
H  H64  1  0.73964270  0.17508098  0.37141812  1  0.152334  0  0.120151  0.105512  0  1.005879  0
H  H65  1  0.73816894  0.15864127  0.51121052  1  0.07894  0  0.105977  0.113061  0  1.005904  0
H  H66  1  0.51240127  0.30775743  0.51900725  1  0.084052  0  0.106155  0.113111  0  1.010834  0
H  H67  1  0.51617122  0.31158600  0.37824199  1  0.165787  0  0.121126  0.104898  0  1.002506  0
H  H68  1  0.62034250  0.34601713  0.62667869  1  0.073046  0  0.104576  0.107776  0  0.996374  0
H  H69  1  0.62550046  0.09352806  0.74830975  1  0.028736  0  0.105722  0.10701  0  0.993525  0
H  H70  1  0.62889138  0.10468649  0.60928018  1  0.051813  0  0.100986  0.09901  0  1.004446  0
H  H71  1  0.73964644  0.32492025  0.12858289  1  0.152926  0  0.12012  0.105482  0  1.005911  0
H  H72  1  0.73817227  0.34135737  0.98878959  1  0.078919  0  0.105951  0.113044  0  1.005918  0
H  H73  1  0.51240498  0.19224186  0.98099560  1  0.083916  0  0.106184  0.113171  0  1.010833  0
H  H74  1  0.51617211  0.18841084  0.12176176  1  0.165799  0  0.121148  0.104905  0  1.002445  0
H  H75  1  0.62034393  0.15398041  0.87332195  1  0.072975  0  0.104586  0.107759  0  0.996345  0
H  H76  1  0.62550145  0.40647062  0.75169145  1  0.028791  0  0.105723  0.106996  0  0.993534  0
H  H77  1  0.62889302  0.39531052  0.89072046  1  0.051828  0  0.100995  0.099042  0  1.004497  0
H  H78  1  0.73964464  0.37141647  0.32491498  1  0.152808  0  0.12015  0.105517  0  1.005954  0
H  H79  1  0.73817268  0.51120690  0.34135720  1  0.078958  0  0.105966  0.113074  0  1.005879  0
H  H80  1  0.51240453  0.51900632  0.19224361  1  0.083964  0  0.106173  0.113149  0  1.010878  0
H  H81  1  0.51617405  0.37824016  0.18841257  1  0.165795  0  0.121165  0.104952  0  1.002423  0
H  H82  1  0.62034462  0.62667977  0.15398176  1  0.073027  0  0.104581  0.107784  0  0.996358  0
H  H83  1  0.62550247  0.74830910  0.40647266  1  0.028731  0  0.105732  0.107029  0  0.993516  0
H  H84  1  0.62889294  0.60928091  0.39531229  1  0.05183  0  0.100993  0.098986  0  1.004475  0
H  H85  1  0.73964384  0.12858475  0.17508209  1  0.15278  0  0.120153  0.105516  0  1.005906  0
H  H86  1  0.73817150  0.98879321  0.15864123  1  0.07897  0  0.105986  0.113099  0  1.005863  0
H  H87  1  0.51240469  0.98099445  0.30775811  1  0.084059  0  0.106196  0.113197  0  1.010793  0
H  H88  1  0.51617393  0.12176174  0.31158781  1  0.165794  0  0.121145  0.1049  0  1.002472  0
H  H89  1  0.62034345  0.87332262  0.34601719  1  0.072861  0  0.104568  0.107741  0  0.996361  0
H  H90  1  0.62550241  0.75169275  0.09353079  1  0.028852  0  0.105703  0.106939  0  0.993571  0
H  H91  1  0.62889178  0.89072095  0.10469003  1  0.051847  0  0.100968  0.098926  0  1.004584  0
H  H92  1  0.23964440  0.17508342  0.12858497  1  0.152796  0  0.120151  0.105487  0  1.005944  0
H  H93  1  0.23816946  0.15864201  0.98879346  1  0.078974  0  0.105992  0.113104  0  1.005892  0
H  H94  1  0.01240444  0.30775485  0.98099460  1  0.083964  0  0.1062  0.113187  0  1.010847  0
H  H95  1  0.01617226  0.31158848  0.12176074  1  0.165784  0  0.121127  0.104892  0  1.002456  0
H  H96  1  0.12034696  0.34601466  0.87332296  1  0.07287  0  0.104584  0.10775  0  0.996316  0
H  H97  1  0.12550354  0.09353141  0.75169123  1  0.028827  0  0.105717  0.106979  0  0.993518  0
H  H98  1  0.12889186  0.10469065  0.89071736  1  0.051909  0  0.100968  0.098953  0  1.004575  0
H  H99  1  0.23964360  0.32491667  0.37141364  1  0.152799  0  0.12016  0.105512  0  1.005894  0
H  H100  1  0.23816795  0.34136167  0.51120594  1  0.078845  0  0.105997  0.113109  0  1.005874  0
H  H101  1  0.01240133  0.19224556  0.51900923  1  0.083916  0  0.106149  0.113101  0  1.010879  0
H  H102  1  0.01616927  0.18841003  0.37824230  1  0.16576  0  0.12116  0.104898  0  1.002382  0
H  H103  1  0.12034497  0.15398735  0.62667809  1  0.072929  0  0.104554  0.107756  0  0.996339  0
H  H104  1  0.12550320  0.40647287  0.74831038  1  0.028684  0  0.105756  0.107027  0  0.993557  0
H  H105  1  0.12889074  0.39531252  0.60928425  1  0.05188  0  0.100973  0.099025  0  1.004453  0
H  H106  1  0.23964901  0.37141637  0.17507732  1  0.152867  0  0.120114  0.105496  0  1.005803  0
H  H107  1  0.23817306  0.51121027  0.15864041  1  0.078867  0  0.105943  0.113044  0  1.005883  0
H  H108  1  0.01240431  0.51900483  0.30775444  1  0.084165  0  0.106188  0.113159  0  1.010836  0
H  H109  1  0.01616986  0.37823807  0.31158356  1  0.165806  0  0.121167  0.104961  0  1.002308  0
H  H110  1  0.12034442  0.62667691  0.34601733  1  0.073026  0  0.104593  0.107764  0  0.99635  0
H  H111  1  0.12550083  0.74830895  0.09352791  1  0.028725  0  0.105716  0.106988  0  0.993617  0
H  H112  1  0.12889264  0.60928013  0.10468523  1  0.051789  0  0.100968  0.098992  0  1.004489  0
H  H113  1  0.23964562  0.12858315  0.32492017  1  0.152934  0  0.120133  0.10552  0  1.00587  0
H  H114  1  0.23817063  0.98878982  0.34135956  1  0.078908  0  0.105977  0.113083  0  1.005891  0
H  H115  1  0.01240244  0.98099256  0.19224265  1  0.08407  0  0.10617  0.113149  0  1.010809  0
H  H116  1  0.01617167  0.12175875  0.18841274  1  0.165791  0  0.121141  0.10489  0  1.002482  0
H  H117  1  0.12034450  0.87332096  0.15398203  1  0.07302  0  0.104583  0.107754  0  0.996383  0
H  H118  1  0.12550356  0.75169007  0.40646920  1  0.028781  0  0.105678  0.106925  0  0.993575  0
H  H119  1  0.12889426  0.89071834  0.39531077  1  0.051891  0  0.101019  0.099042  0  1.00447  0
C  C120  1  0.81133200  0.79847169  0.90616538  1  0.504733  0  0.05441  0.103256  0  3.924753  0
C  C121  1  0.81184520  0.80663378  0.98380343  1  -0.067341  0  -0.087046  -0.18327  0  3.952452  0
C  C122  1  0.87501232  0.76770251  0.02662716  1  -0.097207  0  0.010866  0.111356  0  4.007872  0
C  C123  1  0.93658061  0.72281885  0.98819580  1  0.064729  0  -0.086145  -0.18124  0  3.947588  0
C  C124  1  0.93418743  0.71971953  0.91020385  1  0.414092  0  0.055308  0.105095  0  3.92398  0
C  C125  1  0.87612695  0.77345145  0.10923475  1  0.03632  0  -0.009902  0.060905  0  4.027123  0
C  C126  1  0.87896801  0.70929572  0.15320693  1  -0.112244  0  -0.082267  -0.172919  0  3.939493  0
C  C127  1  0.87772068  0.71373866  0.23248746  1  0.076271  0  -0.003064  0.085154  0  3.996439  0
C  C128  1  0.87522306  0.85133903  0.22147900  1  0.029536  0  -0.085003  -0.123281  0  3.994572  0
C  C129  1  0.87323481  0.84512554  0.14448018  1  -0.083473  0  -0.0923  -0.136743  0  4.013916  0
C  C130  1  0.81132698  0.70153066  0.59383610  1  0.503738  0  0.054463  0.103279  0  3.924674  0
C  C131  1  0.81184275  0.69336633  0.51619805  1  -0.067376  0  -0.087068  -0.183385  0  3.952381  0
C  C132  1  0.87501031  0.73229822  0.47337299  1  -0.097184  0  0.01089  0.111448  0  4.007797  0
C  C133  1  0.93658135  0.77718070  0.51180235  1  0.064734  0  -0.086125  -0.181205  0  3.94761  0
C  C134  1  0.93418689  0.78028057  0.58979542  1  0.414161  0  0.055301  0.105064  0  3.923941  0
C  C135  1  0.87612420  0.72654872  0.39076540  1  0.036377  0  -0.009886  0.06082  0  4.027084  0
C  C136  1  0.87896565  0.79070559  0.34679154  1  -0.112218  0  -0.082254  -0.172921  0  3.939463  0
C  C137  1  0.87772025  0.78625871  0.26751269  1  0.013349  0  -0.003074  0.085118  0  3.996473  0
C  C138  1  0.87522442  0.64866001  0.27852283  1  0.029523  0  -0.085069  -0.123541  0  3.994812  0
C  C139  1  0.87323625  0.65487294  0.35552165  1  -0.082744  0  -0.092209  -0.136392  0  4.013806  0
C  C140  1  0.81132801  0.59383616  0.79846809  1  0.503944  0  0.054496  0.103319  0  3.924544  0
C  C141  1  0.81184357  0.51619928  0.80663349  1  -0.067392  0  -0.087116  -0.183459  0  3.952237  0
C  C142  1  0.87501751  0.47337466  0.76770534  1  -0.055132  0  0.010926  0.111474  0  4.007674  0
C  C143  1  0.93658587  0.51180269  0.72281821  1  0.022647  0  -0.086094  -0.18123  0  3.947558  0
C  C144  1  0.93419030  0.58979568  0.71971615  1  0.414037  0  0.055269  0.105088  0  3.923879  0
C  C145  1  0.87612786  0.39076659  0.77345311  1  0.035883  0  -0.009848  0.060844  0  4.027065  0
C  C146  1  0.87897494  0.34679432  0.70929532  1  -0.112396  0  -0.08234  -0.173039  0  3.939395  0
C  C147  1  0.87772600  0.26751442  0.71374270  1  0.013529  0  -0.003072  0.085089  0  3.996447  0
C  C148  1  0.87522536  0.27852367  0.85133870  1  0.029532  0  -0.085048  -0.123421  0  3.994688  0
C  C149  1  0.87324336  0.35552130  0.84512640  1  -0.082356  0  -0.092237  -0.136487  0  4.014086  0
C  C150  1  0.81132301  0.90616226  0.70153059  1  0.503938  0  0.05447  0.103288  0  3.92447  0
C  C151  1  0.81184172  0.98380307  0.69336631  1  -0.067554  0  -0.087061  -0.183404  0  3.952477  0
C  C152  1  0.87500613  0.02662852  0.73229650  1  -0.055228  0  0.010854  0.111476  0  4.007958  0
C  C153  1  0.93658141  0.98819742  0.77717825  1  0.022615  0  -0.086201  -0.18134  0  3.947652  0
C  C154  1  0.93418934  0.91020723  0.78027975  1  0.414034  0  0.055349  0.105146  0  3.923805  0
C  C155  1  0.87612961  0.10923436  0.72654760  1  0.036355  0  -0.009838  0.060877  0  4.027142  0
C  C156  1  0.87897235  0.15320552  0.79070539  1  -0.11235  0  -0.082311  -0.172987  0  3.939363  0
C  C157  1  0.87772391  0.23248597  0.78626026  1  0.076365  0  -0.003015  0.085208  0  3.996398  0
C  C158  1  0.87522381  0.22147839  0.64866482  1  0.029612  0  -0.084967  -0.123175  0  3.994533  0
C  C159  1  0.87323601  0.14447851  0.65487375  1  -0.08347  0  -0.092288  -0.136714  0  4.013954  0
C  C160  1  0.31132971  0.79846985  0.59383797  1  0.504598  0  0.054521  0.103309  0  3.924544  0
C  C161  1  0.31184420  0.80663356  0.51619874  1  -0.067302  0  -0.087075  -0.183367  0  3.952345  0
C  C162  1  0.37500819  0.76770222  0.47337281  1  -0.097156  0  0.01086  0.111411  0  4.007857  0
C  C163  1  0.43658227  0.72281810  0.51180244  1  0.064763  0  -0.086107  -0.181157  0  3.947568  0
C  C164  1  0.43419111  0.71971772  0.58979273  1  0.414018  0  0.055278  0.105034  0  3.923921  0
C  C165  1  0.37612942  0.77345168  0.39076574  1  0.036409  0  -0.009821  0.060934  0  4.027016  0
C  C166  1  0.37896980  0.70929342  0.34679565  1  -0.112384  0  -0.082385  -0.173098  0  3.939514  0
C  C167  1  0.37772111  0.71373967  0.26751566  1  0.076505  0  -0.003079  0.08514  0  3.996475  0
C  C168  1  0.37522350  0.85133828  0.27852156  1  0.029464  0  -0.084996  -0.123322  0  3.994636  0
C  C169  1  0.37323462  0.84512599  0.35551986  1  -0.083446  0  -0.092303  -0.136667  0  4.01391  0
C  C170  1  0.31132615  0.70153024  0.90616168  1  0.503907  0  0.05452  0.103306  0  3.924641  0
C  C171  1  0.31184194  0.69336597  0.98380147  1  -0.067309  0  -0.087075  -0.18338  0  3.952555  0
C  C172  1  0.37500732  0.73229736  0.02662663  1  -0.097136  0  0.010835  0.111415  0  4.007953  0
C  C173  1  0.43658055  0.77718144  0.98819668  1  0.064738  0  -0.086171  -0.181266  0  3.947637  0
C  C174  1  0.43418805  0.78028236  0.91020639  1  0.414064  0  0.055358  0.105102  0  3.923985  0
C  C175  1  0.37612723  0.72654791  0.10923370  1  0.036395  0  -0.009816  0.060899  0  4.027098  0
C  C176  1  0.37896736  0.79070506  0.15320547  1  -0.112504  0  -0.082331  -0.173  0  3.939538  0
C  C177  1  0.37772133  0.78625881  0.23248547  1  0.013789  0  -0.003043  0.08514  0  3.996547  0
C  C178  1  0.37522218  0.64866131  0.22147844  1  0.029429  0  -0.084991  -0.12339  0  3.994622  0
C  C179  1  0.37323729  0.65487359  0.14447902  1  -0.083444  0  -0.092288  -0.136538  0  4.013886  0
C  C180  1  0.31132643  0.59383758  0.70152925  1  0.503914  0  0.054508  0.103342  0  3.924447  0
C  C181  1  0.31184198  0.51619794  0.69336602  1  -0.067324  0  -0.087053  -0.183365  0  3.952447  0
C  C182  1  0.37500797  0.47337420  0.73229727  1  -0.09715  0  0.010803  0.111372  0  4.007863  0
C  C183  1  0.43658232  0.51180364  0.77718080  1  0.06475  0  -0.086142  -0.181239  0  3.947552  0
C  C184  1  0.43418874  0.58979435  0.78028237  1  0.414086  0  0.055329  0.105135  0  3.92385  0
C  C185  1  0.37612761  0.39076785  0.72654776  1  0.036375  0  -0.009838  0.060856  0  4.027087  0
C  C186  1  0.37896542  0.34679237  0.79070359  1  -0.112276  0  -0.082321  -0.17293  0  3.939402  0
C  C187  1  0.37771913  0.26751250  0.78625839  1  0.013569  0  -0.003067  0.085127  0  3.996536  0
C  C188  1  0.37522176  0.27852206  0.64866232  1  0.029607  0  -0.08499  -0.123358  0  3.994644  0
C  C189  1  0.37323578  0.35552077  0.65487526  1  -0.083467  0  -0.092296  -0.136604  0  4.013972  0
C  C190  1  0.31132810  0.90616532  0.79847208  1  0.504087  0  0.054399  0.103197  0  3.924753  0
C  C191  1  0.31184482  0.98380271  0.80663306  1  -0.06731  0  -0.087087  -0.183386  0  3.952447  0
C  C192  1  0.37501386  0.02662672  0.76770217  1  -0.097156  0  0.01094  0.111529  0  4.007749  0
C  C193  1  0.43658316  0.98819589  0.72281832  1  0.064755  0  -0.086152  -0.181289  0  3.947419  0
C  C194  1  0.43418709  0.91020292  0.71972012  1  0.414135  0  0.055289  0.105063  0  3.923882  0
C  C195  1  0.37612540  0.10923533  0.77345111  1  0.035895  0  -0.009905  0.060816  0  4.027094  0
C  C196  1  0.37896678  0.15320801  0.70929586  1  -0.112255  0  -0.082324  -0.173068  0  3.939598  0
C  C197  1  0.37772233  0.23248731  0.71374049  1  0.076403  0  -0.003054  0.08523  0  3.996516  0
C  C198  1  0.37522295  0.22147718  0.85133768  1  0.029611  0  -0.08505  -0.12349  0  3.994734  0
C  C199  1  0.37324179  0.14447790  0.84512699  1  -0.082337  0  -0.092222  -0.136466  0  4.013926  0
C  C200  1  0.68867016  0.20152816  0.40616320  1  0.504479  0  0.054456  0.103306  0  3.92466  0
C  C201  1  0.68815567  0.19336558  0.48380130  1  -0.067285  0  -0.087047  -0.183305  0  3.952319  0
C  C202  1  0.62498704  0.23229691  0.52662667  1  -0.055235  0  0.010865  0.111377  0  4.007774  0
C  C203  1  0.56341362  0.27717879  0.48819816  1  0.022563  0  -0.086137  -0.181203  0  3.947601  0
C  C204  1  0.56580943  0.28027917  0.41020619  1  0.414186  0  0.055381  0.105168  0  3.924081  0
C  C205  1  0.62387111  0.22654633  0.60923430  1  0.035957  0  -0.009812  0.060974  0  4.026953  0
C  C206  1  0.62102808  0.29070516  0.65320607  1  -0.112358  0  -0.08233  -0.173055  0  3.93948  0
C  C207  1  0.62227677  0.28625834  0.73248551  1  0.013174  0  -0.003068  0.08514  0  3.996499  0
C  C208  1  0.62477571  0.14866029  0.72147848  1  0.02947  0  -0.084944  -0.123352  0  3.994436  0
C  C209  1  0.62675994  0.15487259  0.64447906  1  -0.082284  0  -0.092296  -0.136623  0  4.013806  0
C  C210  1  0.68867439  0.29846946  0.09383723  1  0.503895  0  0.054496  0.10331  0  3.924645  0
C  C211  1  0.68815727  0.30663429  0.01619857  1  -0.067308  0  -0.0871  -0.183387  0  3.952485  0
C  C212  1  0.62499189  0.26770177  0.97337341  1  -0.097135  0  0.010865  0.111424  0  4.007775  0
C  C213  1  0.56341866  0.22281770  0.01180336  1  0.064772  0  -0.086163  -0.181285  0  3.947597  0
C  C214  1  0.56581050  0.21971790  0.08979364  1  0.414015  0  0.055346  0.105125  0  3.923936  0
C  C215  1  0.62387132  0.27345234  0.89076634  1  0.036375  0  -0.009831  0.060943  0  4.027011  0
C  C216  1  0.62102985  0.20929351  0.84679625  1  -0.112379  0  -0.082366  -0.17304  0  3.939387  0
C  C217  1  0.62227721  0.21373977  0.76751625  1  0.076313  0  -0.003096  0.085144  0  3.996373  0
C  C218  1  0.62477636  0.35133783  0.77852216  1  0.029639  0  -0.084993  -0.123332  0  3.994562  0
C  C219  1  0.62676325  0.34512554  0.85552214  1  -0.083484  0  -0.092255  -0.136663  0  4.013981  0
C  C220  1  0.68867212  0.40616493  0.29847023  1  0.504005  0  0.054408  0.103194  0  3.924756  0
C  C221  1  0.68815656  0.48380288  0.30663289  1  -0.067355  0  -0.087024  -0.18326  0  3.952409  0
C  C222  1  0.62499057  0.52662662  0.26770053  1  -0.097143  0  0.010872  0.111362  0  4.007775  0
C  C223  1  0.56341822  0.48819718  0.22281812  1  0.064685  0  -0.08614  -0.181214  0  3.947563  0
C  C224  1  0.56581246  0.41020478  0.21972048  1  0.414153  0  0.055315  0.105064  0  3.923938  0
C  C225  1  0.62387425  0.60923466  0.27345171  1  0.036321  0  -0.009851  0.060952  0  4.027017  0
C  C226  1  0.62103312  0.65320733  0.20929477  1  -0.11238  0  -0.082346  -0.173103  0  3.939564  0
C  C227  1  0.62227742  0.73248664  0.21374053  1  0.076566  0  -0.003067  0.085103  0  3.996569  0
C  C228  1  0.62477612  0.72147820  0.35134053  1  0.029503  0  -0.085009  -0.123502  0  3.994607  0
C  C229  1  0.62676542  0.64447893  0.34512703  1  -0.083447  0  -0.092219  -0.136443  0  4.01379  0
C  C230  1  0.68867111  0.09383550  0.20152739  1  0.504062  0  0.05443  0.103238  0  3.924648  0
C  C231  1  0.68815505  0.01619699  0.19336697  1  -0.067307  0  -0.0871  -0.18338  0  3.952441  0
C  C232  1  0.62498866  0.97337410  0.23230011  1  -0.097146  0  0.010966  0.11156  0  4.007776  0
C  C233  1  0.56341738  0.01180549  0.27718228  1  0.064609  0  -0.08618  -0.181329  0  3.947424  0
C  C234  1  0.56581344  0.08979734  0.28027992  1  0.414101  0  0.055322  0.105165  0  3.92393  0
C  C235  1  0.62387314  0.89076662  0.22655117  1  0.036284  0  -0.009958  0.060678  0  4.027294  0
C  C236  1  0.62103375  0.84679337  0.29070587  1  -0.112268  0  -0.082307  -0.172969  0  3.939581  0
C  C237  1  0.62227688  0.76751239  0.28626123  1  0.013564  0  -0.003069  0.085227  0  3.996425  0
C  C238  1  0.62477427  0.77852252  0.14866236  1  0.029438  0  -0.085024  -0.123377  0  3.994632  0
C  C239  1  0.62676539  0.85552236  0.15487586  1  -0.082653  0  -0.092172  -0.136343  0  4.013905  0
C  C240  1  0.18867119  0.20152970  0.09383522  1  0.504099  0  0.054429  0.103281  0  3.924641  0
C  C241  1  0.18815468  0.19336648  0.01619661  1  -0.067327  0  -0.087057  -0.183336  0  3.952458  0
C  C242  1  0.12498689  0.23229775  0.97337288  1  -0.097196  0  0.010874  0.111422  0  4.007899  0
C  C243  1  0.06341926  0.27718084  0.01180311  1  0.06471  0  -0.086149  -0.181264  0  3.947593  0
C  C244  1  0.06581178  0.28028017  0.08979619  1  0.414127  0  0.055352  0.105154  0  3.923907  0
C  C245  1  0.12387425  0.22654825  0.89076416  1  0.0363  0  -0.009938  0.060693  0  4.027243  0
C  C246  1  0.12103717  0.29070454  0.84679087  1  -0.11268  0  -0.082293  -0.172881  0  3.939543  0
C  C247  1  0.12228185  0.28626159  0.76751258  1  0.076258  0  -0.003092  0.085075  0  3.996732  0
C  C248  1  0.12478013  0.14866347  0.77852103  1  0.029587  0  -0.084954  -0.123308  0  3.994515  0
C  C249  1  0.12675975  0.15487529  0.85552042  1  -0.083081  0  -0.092244  -0.136484  0  4.013957  0
C  C250  1  0.18867090  0.29847016  0.40616450  1  0.504119  0  0.054415  0.103251  0  3.924659  0
C  C251  1  0.18815314  0.30663393  0.48380368  1  -0.067246  0  -0.087086  -0.18339  0  3.952393  0
C  C252  1  0.12498293  0.26770429  0.52662817  1  -0.05518  0  0.010968  0.111475  0  4.007841  0
C  C253  1  0.06341653  0.22281900  0.48819769  1  0.022812  0  -0.086112  -0.181155  0  3.947568  0
C  C254  1  0.06581165  0.21971856  0.41020462  1  0.414166  0  0.055328  0.105099  0  3.923769  0
C  C255  1  0.12387169  0.27345378  0.60923689  1  0.036265  0  -0.009875  0.060889  0  4.026977  0
C  C256  1  0.12103621  0.20929748  0.65321018  1  -0.112439  0  -0.082253  -0.172906  0  3.939335  0
C  C257  1  0.12228029  0.21374211  0.73248959  1  0.01308  0  -0.003113  0.085091  0  3.99657  0
C  C258  1  0.12478076  0.35134193  0.72148058  1  0.029389  0  -0.085031  -0.123365  0  3.994753  0
C  C259  1  0.12675964  0.34512844  0.64448176  1  -0.082241  0  -0.092287  -0.136687  0  4.013936  0
C  C260  1  0.18867651  0.40616298  0.20152915  1  0.503867  0  0.054433  0.103245  0  3.924477  0
C  C261  1  0.18815895  0.48380154  0.19336487  1  -0.067362  0  -0.087018  -0.183304  0  3.952374  0
C  C262  1  0.12499033  0.52662616  0.23229246  1  -0.055172  0  0.010873  0.111427  0  4.007757  0
C  C263  1  0.06341666  0.48819588  0.27717733  1  0.022617  0  -0.086159  -0.181255  0  3.947538  0
C  C264  1  0.06581157  0.41020571  0.28027996  1  0.414081  0  0.055323  0.105111  0  3.923777  0
C  C265  1  0.12387267  0.60923367  0.22654637  1  0.035893  0  -0.009821  0.060932  0  4.027031  0
C  C266  1  0.12103356  0.65320313  0.29070416  1  -0.112365  0  -0.082403  -0.17306  0  3.939485  0
C  C267  1  0.12227985  0.73248471  0.28625790  1  0.013375  0  -0.003046  0.085124  0  3.996378  0
C  C268  1  0.12477850  0.72147883  0.14865909  1  0.02948  0  -0.084961  -0.12332  0  3.994474  0
C  C269  1  0.12676116  0.64447896  0.15487083  1  -0.082169  0  -0.09226  -0.136611  0  4.013832  0
C  C270  1  0.18867288  0.09383519  0.29847282  1  0.503859  0  0.054422  0.103225  0  3.924617  0
C  C271  1  0.18815816  0.01619775  0.30663485  1  -0.067336  0  -0.087043  -0.183341  0  3.952397  0
C  C272  1  0.12498777  0.97337398  0.26770242  1  -0.055214  0  0.010917  0.111469  0  4.007711  0
C  C273  1  0.06341448  0.01180228  0.22282122  1  0.022624  0  -0.086156  -0.181277  0  3.947537  0
C  C274  1  0.06581253  0.08979471  0.21971804  1  0.414146  0  0.055291  0.105102  0  3.923898  0
C  C275  1  0.12387159  0.89076590  0.27345356  1  0.03589  0  -0.009845  0.060913  0  4.026965  0
C  C276  1  0.12103084  0.84679587  0.20929465  1  -0.112381  0  -0.082402  -0.173077  0  3.939466  0
C  C277  1  0.12227862  0.76751598  0.21373866  1  0.076219  0  -0.00306  0.085159  0  3.996325  0
C  C278  1  0.12477806  0.77851962  0.35133746  1  0.029455  0  -0.084957  -0.123246  0  3.994479  0
C  C279  1  0.12676319  0.85551895  0.34512573  1  -0.082226  0  -0.092261  -0.136621  0  4.013878  0
N  N280  1  0.87213801  0.75642335  0.87006886  1  -1.260519  0  -0.32042  -0.231249  0  3.536329  0
N  N281  1  0.87213792  0.74357816  0.62993264  1  -1.260194  0  -0.320434  -0.231211  0  3.53621  0
N  N282  1  0.87214223  0.62993023  0.75642158  1  -1.260372  0  -0.320441  -0.231221  0  3.536183  0
N  N283  1  0.87213901  0.87007127  0.74357374  1  -1.260375  0  -0.320375  -0.23121  0  3.536223  0
N  N284  1  0.37214237  0.75642297  0.62992915  1  -1.260343  0  -0.320448  -0.231227  0  3.536354  0
N  N285  1  0.37213972  0.74357571  0.87006939  1  -1.260453  0  -0.320404  -0.231143  0  3.536236  0
N  N286  1  0.37214000  0.62993027  0.74357667  1  -1.260361  0  -0.320435  -0.231261  0  3.53621  0
N  N287  1  0.37213744  0.87006897  0.75642468  1  -1.260538  0  -0.320378  -0.231133  0  3.536116  0
N  N288  1  0.62786016  0.24357953  0.37007032  1  -1.260423  0  -0.320473  -0.231333  0  3.536382  0
N  N289  1  0.62786015  0.25642343  0.12993009  1  -1.2604  0  -0.320411  -0.231218  0  3.536212  0
N  N290  1  0.62786319  0.37006887  0.25642225  1  -1.260438  0  -0.320428  -0.231244  0  3.536199  0
N  N291  1  0.62786508  0.12993129  0.24357704  1  -1.260516  0  -0.320416  -0.231283  0  3.536264  0
N  N292  1  0.12786120  0.24357579  0.12993230  1  -1.260482  0  -0.320449  -0.23128  0  3.536232  0
N  N293  1  0.12786129  0.25642435  0.37006852  1  -1.260487  0  -0.320462  -0.231258  0  3.53625  0
N  N294  1  0.12786030  0.37007115  0.24357284  1  -1.260362  0  -0.320413  -0.231289  0  3.536216  0
N  N295  1  0.12786286  0.12993124  0.25642237  1  -1.260396  0  -0.32037  -0.23117  0  3.536061  0
F  F296  1  0.62149740  0.69126522  0.82609705  1  -0.846955  0  -0.262679  -0.559734  0  1.060161  0
F  F297  1  0.62150438  0.80873010  0.67390325  1  -0.846891  0  -0.262699  -0.559762  0  1.060183  0
F  F298  1  0.62149931  0.67390235  0.69126867  1  -0.846911  0  -0.262714  -0.559777  0  1.060157  0
F  F299  1  0.62150247  0.82609409  0.80873331  1  -0.846906  0  -0.262689  -0.559772  0  1.060226  0
F  F300  1  0.12149646  0.69126849  0.67390186  1  -0.846962  0  -0.262688  -0.559732  0  1.060159  0
F  F301  1  0.12150616  0.80873354  0.82609436  1  -0.846918  0  -0.262724  -0.559793  0  1.06023  0
F  F302  1  0.12150042  0.67390478  0.80873147  1  -0.846874  0  -0.262701  -0.559788  0  1.060263  0
F  F303  1  0.12150220  0.82609670  0.69126643  1  -0.846907  0  -0.262717  -0.559768  0  1.060164  0
F  F304  1  0.73642761  0.74999511  0.75000185  1  -0.842276  0  -0.197042  -0.495015  0  1.409752  0
F  F305  1  0.50678261  0.75000077  0.74999957  1  -0.814276  0  -0.196953  -0.496267  0  1.415855  0
F  F306  1  0.23642870  0.74999791  0.74999560  1  -0.84226  0  -0.197045  -0.494968  0  1.409713  0
F  F307  1  0.00678237  0.75000525  0.75000174  1  -0.814265  0  -0.196975  -0.496252  0  1.415809  0
F  F308  1  0.87849943  0.30873120  0.32609874  1  -0.846935  0  -0.262737  -0.559808  0  1.060079  0
F  F309  1  0.87849969  0.19126953  0.17390399  1  -0.846896  0  -0.262704  -0.559792  0  1.060159  0
F  F310  1  0.87850078  0.32609717  0.19126913  1  -0.846944  0  -0.262701  -0.559781  0  1.060119  0
F  F311  1  0.87849833  0.17390244  0.30873136  1  -0.846933  0  -0.262726  -0.559799  0  1.060112  0
F  F312  1  0.37850314  0.30873504  0.17390186  1  -0.846964  0  -0.262694  -0.559763  0  1.060165  0
F  F313  1  0.37849483  0.19126792  0.32609454  1  -0.846886  0  -0.262699  -0.559764  0  1.060192  0
F  F314  1  0.37850389  0.32609735  0.30873081  1  -0.846937  0  -0.262705  -0.559769  0  1.060167  0
F  F315  1  0.37849408  0.17390617  0.19126392  1  -0.846907  0  -0.262713  -0.559787  0  1.060216  0
F  F316  1  0.76357516  0.25000010  0.25000163  1  -0.842202  0  -0.197074  -0.495165  0  1.409668  0
F  F317  1  0.99321750  0.24999894  0.24999942  1  -0.814278  0  -0.196956  -0.496305  0  1.415793  0
F  F318  1  0.26357227  0.25000571  0.24999762  1  -0.842278  0  -0.197104  -0.495083  0  1.409736  0
F  F319  1  0.49321859  0.24999668  0.24999878  1  -0.814273  0  -0.196955  -0.496262  0  1.415781  0
