# generated using pymatgen
data_PrH12C11O8
_symmetry_space_group_name_H-M   'P 1'
_cell_length_a   6.28546504
_cell_length_b   8.87478800
_cell_length_c   12.37965465
_cell_angle_alpha   78.24876378
_cell_angle_beta   79.17752627
_cell_angle_gamma   71.22241453
_symmetry_Int_Tables_number   1
_chemical_formula_structural   PrH12C11O8
_chemical_formula_sum   'Pr2 H24 C22 O16'
_cell_volume   634.51813823
_cell_formula_units_Z   2
loop_
 _symmetry_equiv_pos_site_id
 _symmetry_equiv_pos_as_xyz
  1  'x, y, z'
loop_
 _atom_site_type_symbol
 _atom_site_label
 _atom_site_symmetry_multiplicity
 _atom_site_fract_x
 _atom_site_fract_y
 _atom_site_fract_z
 _atom_site_occupancy
 _atom_site_hle17_bader_spin_density
 _atom_site_hle17_ddec_charge
 _atom_site_hle17_ddec_spin_density
 _atom_site_hle17_ddec_sum_bond_order
 _atom_site_hle17_magmom
 _atom_site_hse06_10hf_bader_spin_density
 _atom_site_hse06_10hf_ddec_charge
 _atom_site_hse06_10hf_ddec_spin_density
 _atom_site_hse06_10hf_ddec_sum_bond_order
 _atom_site_hse06_10hf_magmom
 _atom_site_hse06_bader_spin_density
 _atom_site_hse06_ddec_charge
 _atom_site_hse06_ddec_spin_density
 _atom_site_hse06_ddec_sum_bond_order
 _atom_site_hse06_magmom
 _atom_site_pbe_bader_spin_density
 _atom_site_pbe_cm5_charge
 _atom_site_pbe_ddec_charge
 _atom_site_pbe_ddec_spin_density
 _atom_site_pbe_ddec_sum_bond_order
 _atom_site_pbe_magmom
Pr  Pr0  1  0.92625834  0.53689184  0.22789046  1  0  2.31832  0  1.577305  0  0  2.15285  0  2.036988  0  0  2.239955  0  1.904299  0  0  1.477232  2.124309  0  2.069143  0
Pr  Pr1  1  0.70272970  0.00222250  0.03092351  1  0  2.32117  0  1.606325  0  0  2.160518  0  2.0631  0  0  2.243545  0  1.935804  0  0  1.503399  2.130252  0  2.096832  0
H  H2  1  0.96591159  0.50855785  0.81218822  1  0  0.100374  0  0.937493  0  0  0.112607  0  0.994412  0  0  0.115638  0  0.993169  0  0  0.109199  0.110155  0  0.995908  0
H  H3  1  0.80399787  0.55454787  0.63380571  1  0  0.094016  0  0.98063  0  0  0.103673  0  1.044207  0  0  0.1064  0  1.043259  0  0  0.103526  0.10144  0  1.045367  0
H  H4  1  0.39645368  0.69124958  0.62648437  1  0  0.086919  0  0.959778  0  0  0.100182  0  1.016992  0  0  0.102587  0  1.016703  0  0  0.101791  0.098101  0  1.017205  0
H  H5  1  0.13978836  0.76799759  0.80032203  1  0  0.111989  0  0.949624  0  0  0.121135  0  1.012643  0  0  0.124533  0  1.0111  0  0  0.112767  0.118324  0  1.014633  0
H  H6  1  0.29373302  0.11663399  0.46080155  1  0  0.093752  0  0.963272  0  0  0.105627  0  1.023425  0  0  0.108199  0  1.022778  0  0  0.104781  0.104064  0  1.023259  0
H  H7  1  0.11502625  0.99505107  0.64027035  1  0  0.093287  0  0.958826  0  0  0.102764  0  1.023634  0  0  0.105671  0  1.021828  0  0  0.107256  0.100632  0  1.02491  0
H  H8  1  0.85463420  0.83809774  0.64050225  1  0  0.09185  0  0.979595  0  0  0.099589  0  1.046574  0  0  0.102044  0  1.046591  0  0  0.100489  0.097923  0  1.046349  0
H  H9  1  0.75916604  0.80760420  0.45947494  1  0  0.107588  0  0.94147  0  0  0.117608  0  1.002397  0  0  0.120894  0  1.000997  0  0  0.112427  0.115408  0  1.002998  0
H  H10  1  0.18558477  0.53498535  0.57957059  1  0  0.100668  0  0.931083  0  0  0.117345  0  0.992437  0  0  0.118413  0  0.993094  0  0  0.103857  0.116812  0  0.991699  0
H  H11  1  0.11486680  0.35370547  0.60380274  1  0  0.100764  0  0.936286  0  0  0.119021  0  0.991017  0  0  0.120574  0  0.9907  0  0  0.103063  0.117921  0  0.99137  0
H  H12  1  0.57635942  0.40951872  0.50568173  1  0  0.09411  0  0.939277  0  0  0.112191  0  0.996062  0  0  0.114087  0  0.995544  0  0  0.100497  0.110629  0  0.99672  0
H  H13  1  0.52091283  0.23247727  0.49471425  1  0  0.057408  0  0.947393  0  0  0.076208  0  1.009485  0  0  0.076859  0  1.009932  0  0  0.085543  0.075448  0  1.009569  0
H  H14  1  0.71810771  0.21251034  0.65972018  1  0  0.073033  0  0.940783  0  0  0.090385  0  1.001836  0  0  0.091499  0  1.002138  0  0  0.092841  0.089283  0  1.002202  0
H  H15  1  0.47386215  0.35061074  0.71681389  1  0  0.061229  0  0.94448  0  0  0.082159  0  1.00083  0  0  0.082381  0  1.00245  0  0  0.088397  0.082668  0  0.998262  0
H  H16  1  0.24962003  0.15576159  0.73068276  1  0  0.097774  0  0.934355  0  0  0.115749  0  0.988447  0  0  0.118081  0  0.986855  0  0  0.100063  0.113906  0  0.989921  0
H  H17  1  0.49219494  0.02385738  0.66212774  1  0  0.092424  0  0.948643  0  0  0.106731  0  1.014978  0  0  0.10765  0  1.01639  0  0  0.096478  0.107432  0  1.011008  0
H  H18  1  0.41251843  0.62760065  0.32262090  1  0  0.434572  0  0.863281  0  0  0.406514  0  0.921664  0  0  0.416549  0  0.90732  0  0  0.301998  0.399365  0  0.931992  0
H  H19  1  0.46490178  0.79362045  0.26800827  1  0  0.428321  0  0.870819  0  0  0.396101  0  0.937134  0  0  0.406618  0  0.922039  0  0  0.300301  0.388426  0  0.948351  0
H  H20  1  0.52851375  0.38579026  0.29785283  1  0  0.445476  0  0.848898  0  0  0.416761  0  0.908146  0  0  0.427288  0  0.892864  0  0  0.307393  0.408955  0  0.919561  0
H  H21  1  0.73835357  0.25198631  0.23889740  1  0  0.44659  0  0.853578  0  0  0.414554  0  0.918081  0  0  0.425479  0  0.902386  0  0  0.302099  0.407377  0  0.928409  0
H  H22  1  0.35034504  0.28081536  0.10328623  1  0  0.419147  0  0.895877  0  0  0.386961  0  0.962768  0  0  0.398502  0  0.946101  0  0  0.299967  0.378266  0  0.975647  0
H  H23  1  0.47711000  0.39276127  0.02473150  1  0  0.436237  0  0.848035  0  0  0.40858  0  0.912345  0  0  0.417425  0  0.899572  0  0  0.310593  0.402618  0  0.920932  0
H  H24  1  0.10493868  0.13156816  0.93209483  1  0  0.447885  0  0.847037  0  0  0.417667  0  0.908403  0  0  0.429335  0  0.891441  0  0  0.298376  0.409313  0  0.920609  0
H  H25  1  0.91894721  0.28036376  0.97963346  1  0  0.436622  0  0.85725  0  0  0.40867  0  0.915564  0  0  0.419212  0  0.900264  0  0  0.29929  0.400655  0  0.927335  0
C  C26  1  0.74733308  0.58950805  0.00860229  1  0  0.687588  0  3.882617  0  0  0.635732  0  4.18144  0  0  0.669477  0  4.176111  0  0  0.222291  0.612324  0  4.18836  0
C  C27  1  0.64260536  0.60932271  0.90576977  1  0  -0.078522  0  3.724342  0  0  -0.060298  0  3.952394  0  0  -0.064938  0  3.971573  0  0  -0.005367  -0.057385  0  3.939319  0
C  C28  1  0.78476443  0.56394540  0.80871619  1  0  -0.062313  0  3.713687  0  0  -0.086664  0  3.96359  0  0  -0.086944  0  3.982145  0  0  -0.074741  -0.086245  0  3.95159  0
C  C29  1  0.69559800  0.59145639  0.70914548  1  0  -0.068275  0  3.760789  0  0  -0.081834  0  4.012997  0  0  -0.083434  0  4.033004  0  0  -0.085316  -0.081148  0  3.998069  0
C  C30  1  0.46442671  0.66684492  0.70518586  1  0  -0.064486  0  3.772582  0  0  -0.08079  0  4.027889  0  0  -0.0821  0  4.048719  0  0  -0.085424  -0.077753  0  4.008814  0
C  C31  1  0.32121884  0.71012975  0.80148519  1  0  -0.081273  0  3.712698  0  0  -0.103997  0  3.962598  0  0  -0.105704  0  3.982587  0  0  -0.079599  -0.103182  0  3.947534  0
C  C32  1  0.40823989  0.67882458  0.90272941  1  0  -0.055734  0  3.689712  0  0  -0.041158  0  3.91626  0  0  -0.044797  0  3.934643  0  0  0.001115  -0.038383  0  3.903503  0
C  C33  1  0.23833067  0.70894092  0.00483588  1  0  0.727585  0  3.855782  0  0  0.677039  0  4.153594  0  0  0.712327  0  4.143955  0  0  0.24291  0.652979  0  4.161665  0
C  C34  1  0.23725742  0.10238889  0.25223332  1  0  0.730281  0  3.813863  0  0  0.677597  0  4.109249  0  0  0.712432  0  4.100038  0  0  0.250985  0.654098  0  4.115914  0
C  C35  1  0.12048812  0.03561465  0.36008302  1  0  -0.058447  0  3.718729  0  0  -0.04485  0  3.949316  0  0  -0.047441  0  3.967298  0  0  0.001094  -0.04325  0  3.936471  0
C  C36  1  0.17422833  0.05074448  0.46101053  1  0  -0.07887  0  3.726641  0  0  -0.101028  0  3.974473  0  0  -0.102988  0  3.994689  0  0  -0.079681  -0.099771  0  3.959664  0
C  C37  1  0.07711361  0.98061495  0.56132402  1  0  -0.05008  0  3.745742  0  0  -0.065027  0  3.996924  0  0  -0.065266  0  4.016328  0  0  -0.07904  -0.064505  0  3.983895  0
C  C38  1  0.92977982  0.89168519  0.56155715  1  0  -0.071636  0  3.754406  0  0  -0.0855  0  4.007455  0  0  -0.087948  0  4.028344  0  0  -0.086509  -0.083995  0  3.993646  0
C  C39  1  0.87626475  0.87480418  0.46116627  1  0  -0.075144  0  3.718497  0  0  -0.098993  0  3.968431  0  0  -0.099421  0  3.988013  0  0  -0.079098  -0.098927  0  3.954522  0
C  C40  1  0.96900229  0.94832324  0.36051958  1  0  -0.080734  0  3.737503  0  0  -0.063918  0  3.965526  0  0  -0.069205  0  3.984509  0  0  -0.008513  -0.060128  0  3.951997  0
C  C41  1  0.88981539  0.94767936  0.25475159  1  0  0.703994  0  3.873934  0  0  0.652412  0  4.166112  0  0  0.686889  0  4.159112  0  0  0.231326  0.62898  0  4.173713  0
C  C42  1  0.12606614  0.46718159  0.43737812  1  0  0.696205  0  3.85935  0  0  0.645797  0  4.170486  0  0  0.677223  0  4.168451  0  0  0.206009  0.625471  0  4.170565  0
C  C43  1  0.22060325  0.42129835  0.54690420  1  0  -0.265086  0  3.682519  0  0  -0.302305  0  3.933885  0  0  -0.307434  0  3.94264  0  0  -0.1638  -0.298583  0  3.926607  0
C  C44  1  0.47253203  0.32978777  0.54551274  1  0  -0.091301  0  3.671312  0  0  -0.131822  0  3.93058  0  0  -0.132124  0  3.94307  0  0  -0.167303  -0.131354  0  3.922232  0
C  C45  1  0.53294479  0.25687579  0.66277919  1  0  -0.082785  0  3.668441  0  0  -0.120664  0  3.924496  0  0  -0.12137  0  3.938752  0  0  -0.161458  -0.120772  0  3.914706  0
C  C46  1  0.43580252  0.11667550  0.71679944  1  0  -0.260282  0  3.667333  0  0  -0.298552  0  3.91525  0  0  -0.303977  0  3.923825  0  0  -0.164056  -0.294795  0  3.907837  0
C  C47  1  0.52323940  0.04215831  0.82688863  1  0  0.696793  0  3.85894  0  0  0.656342  0  4.154117  0  0  0.687765  0  4.152734  0  0  0.198083  0.634515  0  4.157484  0
O  O48  1  0.53026443  0.68403119  0.30774895  1  0  -0.895516  0  1.843659  0  0  -0.844971  0  2.029004  0  0  -0.868587  0  1.99591  0  0  -0.639139  -0.831607  0  2.05004  0
O  O49  1  0.69677336  0.70904902  0.06218836  1  0  -0.807458  0  2.070277  0  0  -0.752415  0  2.333975  0  0  -0.785402  0  2.320191  0  0  -0.407477  -0.736513  0  2.343339  0
O  O50  1  0.69300280  0.35340783  0.27187503  1  0  -0.93943  0  1.846837  0  0  -0.889936  0  2.050194  0  0  -0.914603  0  2.014987  0  0  -0.664252  -0.877291  0  2.071705  0
O  O51  1  0.88848278  0.45575840  0.04069093  1  0  -0.668464  0  1.973623  0  0  -0.609621  0  2.197922  0  0  -0.636819  0  2.186946  0  0  -0.330646  -0.593328  0  2.205229  0
O  O52  1  0.46634993  0.28317815  0.03591194  1  0  -0.910774  0  1.870577  0  0  -0.861772  0  2.062497  0  0  -0.884351  0  2.028186  0  0  -0.656977  -0.849477  0  2.084584  0
O  O53  1  0.25300696  0.59606718  0.08815850  1  0  -0.722881  0  1.963759  0  0  -0.669173  0  2.208409  0  0  -0.698112  0  2.194076  0  0  -0.364661  -0.65254  0  2.216745  0
O  O54  1  0.93718961  0.18479072  0.94502160  1  0  -0.919487  0  1.807457  0  0  -0.870102  0  1.99207  0  0  -0.894021  0  1.956482  0  0  -0.653978  -0.856099  0  2.015537  0
O  O55  1  0.08212153  0.84075529  0.99730498  1  0  -0.731641  0  2.09404  0  0  -0.678462  0  2.355496  0  0  -0.709043  0  2.343082  0  0  -0.407022  -0.660913  0  2.362711  0
O  O56  1  0.19479290  0.25456545  0.22536486  1  0  -0.706695  0  2.033798  0  0  -0.644833  0  2.27702  0  0  -0.675819  0  2.263904  0  0  -0.355564  -0.627634  0  2.284698  0
O  O57  1  0.38062354  0.00065793  0.19513114  1  0  -0.696413  0  1.968076  0  0  -0.634357  0  2.198599  0  0  -0.663828  0  2.185614  0  0  -0.339634  -0.617081  0  2.206257  0
O  O58  1  0.83490814  0.08081366  0.18885598  1  0  -0.694048  0  2.047396  0  0  -0.632928  0  2.278145  0  0  -0.661094  0  2.266434  0  0  -0.346081  -0.617127  0  2.285219  0
O  O59  1  0.87011113  0.81970623  0.23234051  1  0  -0.779098  0  2.131778  0  0  -0.722133  0  2.400173  0  0  -0.755066  0  2.386494  0  0  -0.405369  -0.706346  0  2.408493  0
O  O60  1  0.25075869  0.49670189  0.34427851  1  0  -0.741382  0  2.044007  0  0  -0.672019  0  2.275325  0  0  -0.701146  0  2.264847  0  0  -0.35979  -0.654914  0  2.281525  0
O  O61  1  0.91997894  0.47884375  0.43702687  1  0  -0.681029  0  1.956921  0  0  -0.636631  0  2.20667  0  0  -0.66503  0  2.198223  0  0  -0.369408  -0.620162  0  2.208677  0
O  O62  1  0.73571883  0.97723347  0.82934513  1  0  -0.70407  0  1.913732  0  0  -0.657519  0  2.152883  0  0  -0.685883  0  2.145088  0  0  -0.386993  -0.640897  0  2.157615  0
O  O63  1  0.38607782  0.05278889  0.91811957  1  0  -0.710618  0  2.01174  0  0  -0.652797  0  2.24454  0  0  -0.681637  0  2.234334  0  0  -0.370539  -0.635947  0  2.251574  0
