# generated using pymatgen
data_AlH12C21(SO5)3
_symmetry_space_group_name_H-M   'P 1'
_cell_length_a   4.32009051
_cell_length_b   24.47691317
_cell_length_c   24.47696134
_cell_angle_alpha   120.00005071
_cell_angle_beta   89.99985633
_cell_angle_gamma   89.99996267
_symmetry_Int_Tables_number   1
_chemical_formula_structural   AlH12C21(SO5)3
_chemical_formula_sum   'Al2 H24 C42 S6 O30'
_cell_volume   2241.49308969
_cell_formula_units_Z   2
loop_
 _symmetry_equiv_pos_site_id
 _symmetry_equiv_pos_as_xyz
  1  'x, y, z'
loop_
 _atom_site_type_symbol
 _atom_site_label
 _atom_site_symmetry_multiplicity
 _atom_site_fract_x
 _atom_site_fract_y
 _atom_site_fract_z
 _atom_site_occupancy
 _atom_site_pbe_bader_charge
 _atom_site_pbe_bader_spin_density
 _atom_site_pbe_cm5_charge
 _atom_site_pbe_ddec_charge
 _atom_site_pbe_ddec_spin_density
 _atom_site_pbe_ddec_sum_bond_order
 _atom_site_pbe_magmom
Al  Al0  1  0.02334225  0.49999877  0.50000047  1  2.524914  0  0.463795  1.661951  0  2.465753  0
Al  Al1  1  0.02349328  0.16666576  0.83333461  1  2.524585  0  0.46363  1.662074  0  2.465564  0
H  H2  1  0.47288218  0.44368128  0.73665437  1  0.127782  0  0.114754  0.121739  0  1.012929  0
H  H3  1  0.47294146  0.22296764  0.59666640  1  0.127678  0  0.114758  0.121685  0  1.012969  0
H  H4  1  0.49808722  0.33130941  0.83029634  1  0.128134  0  0.117247  0.129726  0  0.973716  0
H  H5  1  0.45434070  0.39445100  0.77847096  1  0.022213  0  0.114499  0.116786  0  0.990448  0
H  H6  1  0.49797148  0.33535328  0.50302452  1  0.127867  0  0.117127  0.129632  0  0.973557  0
H  H7  1  0.45422678  0.27220308  0.55483894  1  0.021756  0  0.114431  0.11677  0  0.990585  0
H  H8  1  0.47287124  0.79297001  0.55631932  1  0.129724  0  0.114748  0.121733  0  1.012813  0
H  H9  1  0.47294128  0.87369563  0.77703333  1  0.129501  0  0.114739  0.121667  0  1.01301  0
H  H10  1  0.49808944  0.99898419  0.66869179  1  0.122962  0  0.11728  0.129776  0  0.973622  0
H  H11  1  0.45434102  0.88401705  0.60554984  1  0.059102  0  0.114466  0.116728  0  0.990381  0
H  H12  1  0.49797666  0.66766738  0.66464630  1  0.123413  0  0.11712  0.129606  0  0.973554  0
H  H13  1  0.45423386  0.78263279  0.72779739  1  0.058484  0  0.114418  0.116747  0  0.990564  0
H  H14  1  0.47288397  0.26334539  0.20702984  1  0.122948  0  0.114739  0.121756  0  1.012942  0
H  H15  1  0.47293058  0.40333465  0.12630502  1  0.122407  0  0.114754  0.121691  0  1.013024  0
H  H16  1  0.49809341  0.16970412  0.00101595  1  0.077948  0  0.117246  0.129752  0  0.973719  0
H  H17  1  0.45434804  0.22152889  0.11598251  1  0.063049  0  0.114482  0.116728  0  0.990424  0
H  H18  1  0.49797239  0.49697649  0.33233220  1  0.07827  0  0.117135  0.129662  0  0.973526  0
H  H19  1  0.45422654  0.44516041  0.21736681  1  0.063  0  0.114417  0.116718  0  0.990519  0
H  H20  1  0.00003116  0.55785335  0.68160962  1  0.676964  0  0.317085  0.39403  0  0.951748  0
H  H21  1  0.00025211  0.10879152  0.65169448  1  0.677687  0  0.31715  0.394309  0  0.951329  0
H  H22  1  0.00002579  0.62375375  0.44214712  1  0.672335  0  0.31708  0.394021  0  0.951776  0
H  H23  1  0.00024127  0.04290029  0.89120909  1  0.670951  0  0.317156  0.394285  0  0.951373  0
H  H24  1  0.00003840  0.31838932  0.37624621  1  0.67149  0  0.317026  0.394003  0  0.9518  0
H  H25  1  0.00024023  0.34830590  0.95710069  1  0.671172  0  0.317151  0.394268  0  0.951398  0
C  C26  1  0.52113352  0.44528728  0.40579268  1  1.648836  0  0.278396  0.675322  0  4.07728  0
C  C27  1  0.52112780  0.46050286  0.55471351  1  1.607984  0  0.278382  0.675337  0  4.0772  0
C  C28  1  0.52112998  0.59420674  0.53949706  1  1.598718  0  0.278386  0.675234  0  4.07732  0
C  C29  1  0.52123317  0.20615596  0.77861528  1  1.606328  0  0.278358  0.67557  0  4.077078  0
C  C30  1  0.52123099  0.07245624  0.79384391  1  1.597058  0  0.278384  0.675516  0  4.076963  0
C  C31  1  0.52123208  0.22138540  0.92754431  1  1.602274  0  0.278435  0.675589  0  4.077093  0
C  C32  1  0.49670453  0.42474787  0.58943801  1  0.091169  0  0.001811  -0.02565  0  3.938054  0
C  C33  1  0.49683339  0.24191005  0.74388516  1  0.091846  0  0.001725  -0.025862  0  3.937986  0
C  C34  1  0.48656533  0.45386175  0.65543327  1  -0.18927  0  -0.014941  -0.123233  0  3.970957  0
C  C35  1  0.46481101  0.41831205  0.68536204  1  -0.058397  0  -0.075499  -0.126687  0  3.951257  0
C  C36  1  0.48667441  0.21279214  0.67788823  1  -0.188984  0  -0.014989  -0.123379  0  3.970605  0
C  C37  1  0.46486251  0.24834103  0.64795866  1  -0.059098  0  -0.075579  -0.126648  0  3.951103  0
C  C38  1  0.48449300  0.30786005  0.77897083  1  -0.045725  0  -0.072402  -0.08001  0  3.940337  0
C  C39  1  0.45986172  0.34327290  0.74905145  1  0.044166  0  -0.073029  -0.106355  0  3.942276  0
C  C40  1  0.48439034  0.35879983  0.55434959  1  -0.048048  0  -0.072243  -0.079911  0  3.939911  0
C  C41  1  0.45977034  0.32338121  0.58426414  1  0.04687  0  -0.072963  -0.106353  0  3.942114  0
C  C42  1  0.45121907  0.35214579  0.65049837  1  0.024186  0  -0.001011  0.070877  0  3.98171  0
C  C43  1  0.45125594  0.31450456  0.68281771  1  -0.013715  0  -0.00091  0.071008  0  3.981756  0
C  C44  1  0.49670418  0.66468650  0.57525216  1  0.00427  0  0.001701  -0.025977  0  3.938337  0
C  C45  1  0.49683374  0.00197220  0.75809067  1  0.005563  0  0.001793  -0.025566  0  3.937686  0
C  C46  1  0.48655870  0.70156839  0.54613854  1  -0.14099  0  -0.014891  -0.12314  0  3.97105  0
C  C47  1  0.46480878  0.76704674  0.58168851  1  -0.032697  0  -0.075515  -0.126728  0  3.951205  0
C  C48  1  0.48666992  0.96509328  0.78720825  1  -0.142327  0  -0.015036  -0.123537  0  3.970555  0
C  C49  1  0.46486057  0.89961465  0.75165942  1  -0.032996  0  -0.075503  -0.126585  0  3.95114  0
C  C50  1  0.48449239  0.97110789  0.69214098  1  0.117333  0  -0.072446  -0.080149  0  3.940254  0
C  C51  1  0.45985902  0.90577557  0.65672854  1  -0.092361  0  -0.072987  -0.106309  0  3.942158  0
C  C52  1  0.48438910  0.69554696  0.64120039  1  0.116876  0  -0.072228  -0.079796  0  3.940014  0
C  C53  1  0.45976887  0.76087949  0.67661918  1  -0.091965  0  -0.073007  -0.106358  0  3.942238  0
C  C54  1  0.45122289  0.79834958  0.64785457  1  -0.088706  0  -0.000965  0.070914  0  3.981923  0
C  C55  1  0.45125953  0.86830987  0.68549612  1  -0.021872  0  -0.000919  0.07106  0  3.982023  0
C  C56  1  0.49670867  0.41056236  0.33531245  1  0.077375  0  0.001715  -0.025879  0  3.938111  0
C  C57  1  0.49683156  0.25611472  0.99802752  1  0.124285  0  0.001737  -0.02585  0  3.937949  0
C  C58  1  0.48657038  0.34456636  0.29843107  1  -0.26486  0  -0.01496  -0.123252  0  3.971056  0
C  C59  1  0.46481673  0.31463773  0.23295234  1  -0.033955  0  -0.075511  -0.126766  0  3.951367  0
C  C60  1  0.48666951  0.32211149  0.03490679  1  -0.265099  0  -0.01502  -0.123517  0  3.970652  0
C  C61  1  0.46485464  0.35204195  0.10038452  1  -0.033802  0  -0.075527  -0.126562  0  3.9512  0
C  C62  1  0.48449155  0.22102922  0.02889124  1  0.031679  0  -0.072418  -0.080067  0  3.940262  0
C  C63  1  0.45985729  0.25094911  0.09422348  1  -0.060434  0  -0.072998  -0.106231  0  3.94225  0
C  C64  1  0.48438732  0.44565066  0.30445194  1  0.031741  0  -0.072237  -0.079858  0  3.939931  0
C  C65  1  0.45976799  0.41573599  0.23912022  1  -0.060958  0  -0.072997  -0.106378  0  3.942005  0
C  C66  1  0.45121995  0.34950139  0.20164972  1  0.100688  0  -0.000918  0.071041  0  3.981604  0
C  C67  1  0.45124597  0.31718227  0.13168971  1  0.023077  0  -0.000922  0.070941  0  3.982045  0
S  S68  1  0.55694760  0.53633802  0.70605874  1  3.129713  0  0.557989  1.186573  0  5.979941  0
S  S69  1  0.55717576  0.13032455  0.62725727  1  3.132606  0  0.558024  1.186599  0  5.9799  0
S  S70  1  0.55693981  0.66971663  0.46366143  1  3.147269  0  0.557951  1.186523  0  5.979816  0
S  S71  1  0.55716780  0.99693098  0.86967647  1  3.146793  0  0.558047  1.186604  0  5.979894  0
S  S72  1  0.55696924  0.29393837  0.33027871  1  3.140322  0  0.557913  1.186584  0  5.980187  0
S  S73  1  0.55716122  0.37274098  0.00306818  1  3.140771  0  0.558196  1.186835  0  5.979768  0
O  O74  1  0.76188185  0.57121508  0.55008173  1  -1.243386  0  -0.227687  -0.590284  0  2.371738  0
O  O75  1  0.76188288  0.47886467  0.42878439  1  -1.245883  0  -0.227669  -0.590352  0  2.371811  0
O  O76  1  0.76187996  0.44991786  0.52113681  1  -1.250596  0  -0.227752  -0.590505  0  2.371818  0
O  O77  1  0.29319293  0.56455780  0.50375883  1  -1.257576  0  -0.239057  -0.607434  0  2.358543  0
O  O78  1  0.29319034  0.49624112  0.56080178  1  -1.256045  0  -0.239062  -0.607506  0  2.358531  0
O  O79  1  0.29318902  0.43919907  0.43544192  1  -1.255563  0  -0.239041  -0.607469  0  2.358544  0
O  O80  1  0.76197726  0.18780692  0.90455097  1  -1.246006  0  -0.22757  -0.590272  0  2.371549  0
O  O81  1  0.76197323  0.21674178  0.81219415  1  -1.248254  0  -0.227504  -0.590304  0  2.371595  0
O  O82  1  0.76197598  0.09544939  0.78325830  1  -1.242547  0  -0.227595  -0.590376  0  2.371533  0
O  O83  1  0.29329261  0.22747126  0.89789277  1  -1.254716  0  -0.239197  -0.607846  0  2.358602  0
O  O84  1  0.29328870  0.10210823  0.82958098  1  -1.25621  0  -0.239147  -0.607785  0  2.358658  0
O  O85  1  0.29328898  0.17041873  0.77252950  1  -1.257481  0  -0.239177  -0.60788  0  2.358711  0
O  O86  1  0.27899264  0.57385038  0.71547979  1  -1.311501  0  -0.311537  -0.544207  0  2.295743  0
O  O87  1  0.70490705  0.54403279  0.76194369  1  -1.281907  0  -0.302941  -0.511799  0  2.110734  0
O  O88  1  0.77143874  0.55208714  0.66503601  1  -1.281126  0  -0.338253  -0.533154  0  2.306556  0
O  O89  1  0.27922801  0.09279972  0.61782286  1  -1.313125  0  -0.311567  -0.544282  0  2.295503  0
O  O90  1  0.70518696  0.12264068  0.57138413  1  -1.282825  0  -0.302802  -0.511532  0  2.11078  0
O  O91  1  0.77167795  0.11458896  0.66828829  1  -1.282426  0  -0.338343  -0.533474  0  2.306352  0
O  O92  1  0.27898299  0.64162583  0.42614937  1  -1.313325  0  -0.311488  -0.544112  0  2.29587  0
O  O93  1  0.70489501  0.71790726  0.45596612  1  -1.280837  0  -0.302925  -0.511754  0  2.110591  0
O  O94  1  0.77143091  0.61294558  0.44791334  1  -1.27654  0  -0.338267  -0.533214  0  2.306513  0
O  O95  1  0.27922145  0.02502126  0.90720122  1  -1.311979  0  -0.311563  -0.544301  0  2.295587  0
O  O96  1  0.70517631  0.94874216  0.87736082  1  -1.281071  0  -0.302824  -0.511551  0  2.110703  0
O  O97  1  0.77166957  0.05369736  0.88541225  1  -1.275837  0  -0.33837  -0.533433  0  2.306352  0
O  O98  1  0.27900265  0.28451881  0.35837228  1  -1.310827  0  -0.311473  -0.544222  0  2.295789  0
O  O99  1  0.70492954  0.23805684  0.28209149  1  -1.288908  0  -0.302877  -0.511736  0  2.111157  0
O  O100  1  0.77144806  0.33496359  0.38705323  1  -1.276769  0  -0.338233  -0.533147  0  2.306416  0
O  O101  1  0.27921568  0.38217696  0.97498030  1  -1.310637  0  -0.311605  -0.544285  0  2.295573  0
O  O102  1  0.70517620  0.42861562  0.05125886  1  -1.289061  0  -0.302898  -0.511676  0  2.11066  0
O  O103  1  0.77166862  0.33171158  0.94630223  1  -1.276904  0  -0.338384  -0.533486  0  2.306371  0
