# generated using pymatgen
data_CsAgH12C4S4(NO4)2
_symmetry_space_group_name_H-M   'P 1'
_cell_length_a   5.41763357
_cell_length_b   10.16098377
_cell_length_c   14.84406166
_cell_angle_alpha   78.46998783
_cell_angle_beta   79.46512833
_cell_angle_gamma   74.53194434
_symmetry_Int_Tables_number   1
_chemical_formula_structural   CsAgH12C4S4(NO4)2
_chemical_formula_sum   'Cs2 Ag2 H24 C8 S8 N4 O16'
_cell_volume   764.35999000
_cell_formula_units_Z   2
loop_
 _symmetry_equiv_pos_site_id
 _symmetry_equiv_pos_as_xyz
  1  'x, y, z'
loop_
 _atom_site_type_symbol
 _atom_site_label
 _atom_site_symmetry_multiplicity
 _atom_site_fract_x
 _atom_site_fract_y
 _atom_site_fract_z
 _atom_site_occupancy
 _atom_site_hle17_bader_spin_density
 _atom_site_hle17_ddec_charge
 _atom_site_hle17_ddec_spin_density
 _atom_site_hle17_ddec_sum_bond_order
 _atom_site_hle17_magmom
 _atom_site_hse06_10hf_bader_spin_density
 _atom_site_hse06_10hf_ddec_charge
 _atom_site_hse06_10hf_ddec_spin_density
 _atom_site_hse06_10hf_ddec_sum_bond_order
 _atom_site_hse06_10hf_magmom
 _atom_site_hse06_bader_spin_density
 _atom_site_hse06_ddec_charge
 _atom_site_hse06_ddec_spin_density
 _atom_site_hse06_ddec_sum_bond_order
 _atom_site_hse06_magmom
 _atom_site_pbe_bader_spin_density
 _atom_site_pbe_cm5_charge
 _atom_site_pbe_ddec_charge
 _atom_site_pbe_ddec_spin_density
 _atom_site_pbe_ddec_sum_bond_order
 _atom_site_pbe_magmom
Cs  Cs0  1  0.16131671  0.75022343  0.25011364  1  0  0.969574  0  0.556408  0  0  0.928759  0  0.782476  0  0  0.942635  0  0.758879  0  0  0.872335  0.918518  0  0.799388  0
Cs  Cs1  1  0.83867513  0.24977646  0.74988212  1  0  0.969508  0  0.556541  0  0  0.928694  0  0.782656  0  0  0.942563  0  0.759046  0  0  0.872348  0.918439  0  0.799573  0
Ag  Ag2  1  0.99997734  0.49999296  0.49999996  1  0  0.624655  0  1.381856  0  0  0.476627  0  1.807219  0  0  0.507364  0  1.762978  0  0  0.510148  0.453274  0  1.838834  0
Ag  Ag3  1  0.99997782  0.99999990  0.99999476  1  0  0.623951  0  1.384223  0  0  0.476106  0  1.810156  0  0  0.507078  0  1.765702  0  0  0.510193  0.453753  0  1.841708  0
H  H4  1  0.35763876  0.93861319  0.47074068  1  0  0.170365  0  0.942407  0  0  0.186423  0  1.000368  0  0  0.189531  0  0.998935  0  0  0.113423  0.184076  0  1.001667  0
H  H5  1  0.76691757  0.56107724  0.02917730  1  0  0.170509  0  0.94339  0  0  0.186531  0  1.001381  0  0  0.189612  0  0.999979  0  0  0.113352  0.184205  0  1.002553  0
H  H6  1  0.64241014  0.06137423  0.52926873  1  0  0.170473  0  0.942231  0  0  0.186504  0  1.000228  0  0  0.18961  0  0.998804  0  0  0.113461  0.184159  0  1.001522  0
H  H7  1  0.23305636  0.43893916  0.97082536  1  0  0.170477  0  0.943215  0  0  0.18656  0  1.001162  0  0  0.189622  0  0.999785  0  0  0.113358  0.184227  0  1.002341  0
H  H8  1  0.51475764  0.76541592  0.44644545  1  0  0.173199  0  0.93819  0  0  0.189061  0  0.997621  0  0  0.192649  0  0.995315  0  0  0.114546  0.186476  0  0.999332  0
H  H9  1  0.72749262  0.73403718  0.05363265  1  0  0.174951  0  0.937722  0  0  0.190802  0  0.996791  0  0  0.194381  0  0.99451  0  0  0.115079  0.188083  0  0.998828  0
H  H10  1  0.48529262  0.23458081  0.55356121  1  0  0.173243  0  0.938093  0  0  0.18911  0  0.997537  0  0  0.192692  0  0.995255  0  0  0.114605  0.186526  0  0.99924  0
H  H11  1  0.27247236  0.26596581  0.94636385  1  0  0.174906  0  0.937741  0  0  0.190789  0  0.9968  0  0  0.194367  0  0.994515  0  0  0.115077  0.188069  0  0.998837  0
H  H12  1  0.49730348  0.80500854  0.56030202  1  0  0.17157  0  0.9439  0  0  0.184624  0  1.007037  0  0  0.187773  0  1.00561  0  0  0.108818  0.182282  0  1.008125  0
H  H13  1  0.86298749  0.69465026  0.93967159  1  0  0.172563  0  0.944867  0  0  0.185747  0  1.00755  0  0  0.188893  0  1.006135  0  0  0.109158  0.183395  0  1.008827  0
H  H14  1  0.50271048  0.19497684  0.43970216  1  0  0.171469  0  0.943844  0  0  0.184538  0  1.006982  0  0  0.187687  0  1.005556  0  0  0.108789  0.182204  0  1.008061  0
H  H15  1  0.13697857  0.30535995  0.06032735  1  0  0.172609  0  0.944842  0  0  0.185823  0  1.007495  0  0  0.188971  0  1.006073  0  0  0.109169  0.183479  0  1.008746  0
H  H16  1  0.10057018  0.54798866  0.82104414  1  0  0.169509  0  0.927413  0  0  0.190284  0  0.97828  0  0  0.19296  0  0.977302  0  0  0.117443  0.188298  0  0.979122  0
H  H17  1  0.47104645  0.95178670  0.67912703  1  0  0.170233  0  0.927545  0  0  0.190915  0  0.97818  0  0  0.193599  0  0.977201  0  0  0.118022  0.188909  0  0.979064  0
H  H18  1  0.89942588  0.45201323  0.17896693  1  0  0.169534  0  0.927428  0  0  0.190307  0  0.978265  0  0  0.192981  0  0.977291  0  0  0.117446  0.188326  0  0.979105  0
H  H19  1  0.52896078  0.04822246  0.32087637  1  0  0.170287  0  0.927465  0  0  0.190975  0  0.978101  0  0  0.193665  0  0.977107  0  0  0.118044  0.188965  0  0.978997  0
H  H20  1  0.84878283  0.57716150  0.74853135  1  0  0.171263  0  0.949346  0  0  0.185099  0  1.012658  0  0  0.188499  0  1.010967  0  0  0.111529  0.182649  0  1.013889  0
H  H21  1  0.17557006  0.92271475  0.75157099  1  0  0.170696  0  0.951209  0  0  0.184496  0  1.014361  0  0  0.187892  0  1.012667  0  0  0.11087  0.182095  0  1.015511  0
H  H22  1  0.15121596  0.42284452  0.25148033  1  0  0.171219  0  0.949451  0  0  0.185028  0  1.012797  0  0  0.18843  0  1.011103  0  0  0.111502  0.182578  0  1.01403  0
H  H23  1  0.82443891  0.07729657  0.24841072  1  0  0.170634  0  0.951201  0  0  0.184462  0  1.014362  0  0  0.187856  0  1.01267  0  0  0.110883  0.182062  0  1.015512  0
H  H24  1  0.99532262  0.71443303  0.75220749  1  0  0.184362  0  0.941764  0  0  0.198389  0  1.000254  0  0  0.201678  0  0.999153  0  0  0.113005  0.196026  0  1.001102  0
H  H25  1  0.46311400  0.78550003  0.74810426  1  0  0.18481  0  0.942886  0  0  0.197897  0  1.002349  0  0  0.201168  0  1.001274  0  0  0.111954  0.195522  0  1.003227  0
H  H26  1  0.00471887  0.28556371  0.24779854  1  0  0.184429  0  0.941717  0  0  0.198483  0  1.000153  0  0  0.201777  0  0.999044  0  0  0.112998  0.196118  0  1.001002  0
H  H27  1  0.53691614  0.21450404  0.25188093  1  0  0.184828  0  0.942804  0  0  0.197938  0  1.002274  0  0  0.201218  0  1.001182  0  0  0.111961  0.195562  0  1.003153  0
C  C28  1  0.39998751  0.82780891  0.49865424  1  0  -0.496799  0  3.548485  0  0  -0.571999  0  3.791297  0  0  -0.578186  0  3.790966  0  0  -0.231871  -0.56739  0  3.791709  0
C  C29  1  0.72686570  0.67187686  0.00135734  1  0  -0.498978  0  3.549059  0  0  -0.574117  0  3.791138  0  0  -0.580269  0  3.790766  0  0  -0.23193  -0.569657  0  3.791877  0
C  C30  1  0.60004316  0.17217439  0.50135128  1  0  -0.49679  0  3.548127  0  0  -0.571988  0  3.791017  0  0  -0.578191  0  3.790696  0  0  -0.231902  -0.567385  0  3.791429  0
C  C31  1  0.27312653  0.32812817  0.99864457  1  0  -0.49906  0  3.548955  0  0  -0.574293  0  3.791089  0  0  -0.58043  0  3.790724  0  0  -0.231975  -0.569829  0  3.791845  0
C  C32  1  0.02737045  0.60253010  0.75620352  1  0  -0.496673  0  3.529789  0  0  -0.571622  0  3.768731  0  0  -0.578143  0  3.769156  0  0  -0.233159  -0.566971  0  3.768486  0
C  C33  1  0.38721237  0.89736217  0.74397272  1  0  -0.497451  0  3.532255  0  0  -0.571079  0  3.770362  0  0  -0.577625  0  3.770862  0  0  -0.232352  -0.566423  0  3.770066  0
C  C34  1  0.97263929  0.39747285  0.24380268  1  0  -0.496872  0  3.530052  0  0  -0.571765  0  3.768896  0  0  -0.5783  0  3.769335  0  0  -0.233107  -0.567112  0  3.76865  0
C  C35  1  0.61278860  0.10263359  0.25602183  1  0  -0.497492  0  3.532097  0  0  -0.571201  0  3.770254  0  0  -0.577743  0  3.770742  0  0  -0.232391  -0.566546  0  3.769961  0
S  S36  1  0.09668996  0.78576144  0.53050957  1  0  1.340472  0  5.37469  0  0  1.26134  0  5.873374  0  0  1.304543  0  5.860001  0  0  0.53762  1.231237  0  5.88197  0
S  S37  1  0.41304416  0.71435620  0.96964732  1  0  1.341746  0  5.373233  0  0  1.263001  0  5.872129  0  0  1.306194  0  5.858724  0  0  0.537746  1.233044  0  5.880477  0
S  S38  1  0.90332076  0.21423841  0.46949549  1  0  1.340502  0  5.374959  0  0  1.261377  0  5.873683  0  0  1.304591  0  5.86031  0  0  0.537563  1.231264  0  5.882278  0
S  S39  1  0.58695794  0.28562922  0.03034807  1  0  1.341869  0  5.373134  0  0  1.263111  0  5.872036  0  0  1.306326  0  5.858617  0  0  0.537665  1.233153  0  5.880379  0
S  S40  1  0.26886256  0.54736782  0.66451608  1  0  1.3255  0  5.422458  0  0  1.248088  0  5.92443  0  0  1.29155  0  5.909794  0  0  0.522105  1.217949  0  5.933577  0
S  S41  1  0.48132809  0.95276752  0.83565395  1  0  1.324312  0  5.424617  0  0  1.247542  0  5.926144  0  0  1.291013  0  5.911561  0  0  0.521913  1.217469  0  5.935338  0
S  S42  1  0.73115133  0.45265690  0.33547583  1  0  1.326372  0  5.422355  0  0  1.248957  0  5.924342  0  0  1.29242  0  5.909685  0  0  0.522326  1.218818  0  5.933504  0
S  S43  1  0.51866255  0.04722511  0.16434514  1  0  1.324294  0  5.425182  0  0  1.247546  0  5.92669  0  0  1.291019  0  5.912106  0  0  0.521979  1.217479  0  5.935879  0
N  N44  1  0.15576370  0.61801727  0.56720947  1  0  -0.831198  0  3.09173  0  0  -0.733227  0  3.420235  0  0  -0.762142  0  3.414208  0  0  -0.469816  -0.712557  0  3.423582  0
N  N45  1  0.34158885  0.88214703  0.93300628  1  0  -0.831473  0  3.094098  0  0  -0.734047  0  3.422979  0  0  -0.763083  0  3.417008  0  0  -0.470143  -0.713717  0  3.426458  0
N  N46  1  0.84421433  0.38198154  0.43279693  1  0  -0.83144  0  3.091696  0  0  -0.733548  0  3.420332  0  0  -0.76247  0  3.414303  0  0  -0.469934  -0.71286  0  3.423665  0
N  N47  1  0.65836686  0.11786010  0.06698782  1  0  -0.831292  0  3.094075  0  0  -0.733815  0  3.422837  0  0  -0.762853  0  3.416868  0  0  -0.470051  -0.713487  0  3.426307  0
O  O48  1  0.98134016  0.80452576  0.44614850  1  0  -0.679254  0  1.95937  0  0  -0.629504  0  2.219352  0  0  -0.651263  0  2.207614  0  0  -0.412801  -0.614122  0  2.227353  0
O  O49  1  0.23213735  0.69579503  0.05407697  1  0  -0.679296  0  1.961527  0  0  -0.629605  0  2.221427  0  0  -0.651411  0  2.209711  0  0  -0.412335  -0.614156  0  2.2289  0
O  O50  1  0.01869598  0.19546789  0.55385521  1  0  -0.679263  0  1.959472  0  0  -0.62952  0  2.219479  0  0  -0.65124  0  2.207662  0  0  -0.412855  -0.614156  0  2.227528  0
O  O51  1  0.76782221  0.30420803  0.94590615  1  0  -0.679268  0  1.961448  0  0  -0.629605  0  2.221384  0  0  -0.651412  0  2.209665  0  0  -0.412281  -0.614155  0  2.22885  0
O  O52  1  0.94897452  0.86382192  0.60302630  1  0  -0.631772  0  1.907098  0  0  -0.571191  0  2.135579  0  0  -0.593201  0  2.126841  0  0  -0.318291  -0.555535  0  2.141402  0
O  O53  1  0.41558759  0.63642309  0.89713368  1  0  -0.632771  0  1.906527  0  0  -0.572144  0  2.135108  0  0  -0.594054  0  2.126223  0  0  -0.319064  -0.556535  0  2.140797  0
O  O54  1  0.05104492  0.13618103  0.39697770  1  0  -0.631879  0  1.907035  0  0  -0.571262  0  2.135485  0  0  -0.593286  0  2.126753  0  0  -0.318334  -0.555603  0  2.141314  0
O  O55  1  0.58441472  0.36358713  0.10286279  1  0  -0.632931  0  1.906006  0  0  -0.572278  0  2.134567  0  0  -0.594215  0  2.125689  0  0  -0.319134  -0.55667  0  2.14026  0
O  O56  1  0.29800886  0.39866056  0.67022269  1  0  -0.708134  0  1.969463  0  0  -0.661168  0  2.229277  0  0  -0.682344  0  2.216664  0  0  -0.425149  -0.646151  0  2.237517  0
O  O57  1  0.36679657  0.10139208  0.82988412  1  0  -0.707879  0  1.970201  0  0  -0.660918  0  2.229762  0  0  -0.682084  0  2.217128  0  0  -0.425453  -0.646068  0  2.238132  0
O  O58  1  0.70196241  0.60131449  0.32977919  1  0  -0.70829  0  1.970435  0  0  -0.661322  0  2.230263  0  0  -0.682484  0  2.217626  0  0  -0.425193  -0.646314  0  2.238522  0
O  O59  1  0.63317718  0.89862022  0.17011161  1  0  -0.707792  0  1.970772  0  0  -0.660831  0  2.230338  0  0  -0.682002  0  2.217718  0  0  -0.425431  -0.645985  0  2.23871  0
O  O60  1  0.50117300  0.58997860  0.67068103  1  0  -0.659586  0  1.947759  0  0  -0.60733  0  2.202745  0  0  -0.628932  0  2.19091  0  0  -0.33806  -0.592169  0  2.210459  0
O  O61  1  0.76242416  0.91039151  0.82954052  1  0  -0.658684  0  1.948216  0  0  -0.60742  0  2.203837  0  0  -0.629059  0  2.192044  0  0  -0.338635  -0.59229  0  2.211604  0
O  O62  1  0.49884980  0.41000783  0.32931936  1  0  -0.65989  0  1.947347  0  0  -0.607605  0  2.202297  0  0  -0.629215  0  2.19047  0  0  -0.338075  -0.592445  0  2.210012  0
O  O63  1  0.23756146  0.08962075  0.17046399  1  0  -0.658686  0  1.94806  0  0  -0.607527  0  2.203798  0  0  -0.629169  0  2.192006  0  0  -0.338702  -0.592402  0  2.211565  0
