# generated using pymatgen
data_Co2H20C32N3O10
_symmetry_space_group_name_H-M   'P 1'
_cell_length_a   10.94213902
_cell_length_b   15.06316695
_cell_length_c   16.69574582
_cell_angle_alpha   90.00005012
_cell_angle_beta   95.85314430
_cell_angle_gamma   90.00004426
_symmetry_Int_Tables_number   1
_chemical_formula_structural   Co2H20C32N3O10
_chemical_formula_sum   'Co8 H80 C128 N12 O40'
_cell_volume   2737.50074125
_cell_formula_units_Z   4
loop_
 _symmetry_equiv_pos_site_id
 _symmetry_equiv_pos_as_xyz
  1  'x, y, z'
loop_
 _atom_site_type_symbol
 _atom_site_label
 _atom_site_symmetry_multiplicity
 _atom_site_fract_x
 _atom_site_fract_y
 _atom_site_fract_z
 _atom_site_occupancy
 _atom_site_pbe_bader_charge
 _atom_site_pbe_bader_spin_density
 _atom_site_pbe_cm5_charge
 _atom_site_pbe_ddec_charge
 _atom_site_pbe_ddec_spin_density
 _atom_site_pbe_ddec_sum_bond_order
 _atom_site_pbe_magmom
Co  Co0  1  0.21781298  0.38218287  0.46878482  1  1.247052  2.578983  0.689409  0.922372  2.770233  2.416702  2.518
Co  Co1  1  0.28218425  0.88218311  0.03121272  1  1.247015  2.578974  0.689438  0.922417  2.770217  2.416746  2.518
Co  Co2  1  0.78218794  0.61781810  0.53121488  1  1.247068  2.578978  0.68945  0.922432  2.770222  2.416643  2.518
Co  Co3  1  0.71781207  0.11781654  0.96878487  1  1.247035  2.578989  0.689385  0.922319  2.770235  2.41679  2.518
Co  Co4  1  0.37876081  0.63732111  0.36059794  1  1.291726  2.614375  0.668085  0.955069  2.850146  2.390048  2.588
Co  Co5  1  0.12123888  0.13731784  0.13939897  1  1.291701  2.614375  0.668074  0.955037  2.850152  2.390007  2.588
Co  Co6  1  0.62123643  0.36268053  0.63939911  1  1.291698  2.614383  0.668071  0.954972  2.850158  2.390135  2.588
Co  Co7  1  0.87876019  0.86268114  0.86059881  1  1.291723  2.614382  0.668154  0.955158  2.850157  2.389952  2.588
H  H8  1  0.24470198  0.63510234  0.21584525  1  0.637895  0.000387  0.281244  0.335671  0.000334  1.028698  0.001
H  H9  1  0.25529864  0.13510327  0.28415412  1  0.637784  0.000388  0.281222  0.335613  0.000334  1.02877  0.001
H  H10  1  0.75529618  0.36489465  0.78415187  1  0.637809  0.000388  0.281222  0.335589  0.000334  1.028782  0.001
H  H11  1  0.74470136  0.86489703  0.71584671  1  0.637911  0.000387  0.281246  0.335643  0.000334  1.028732  0.001
H  H12  1  0.26216604  0.72985800  0.25141880  1  0.673168  0.000316  0.299666  0.397731  0.000294  0.937882  0.001
H  H13  1  0.23783653  0.22985889  0.24858016  1  0.673226  0.000316  0.299632  0.397668  0.000295  0.937986  0.001
H  H14  1  0.73783212  0.27013832  0.74857891  1  0.673117  0.000316  0.299582  0.397586  0.000295  0.938088  0.001
H  H15  1  0.76216714  0.77014075  0.75141911  1  0.673142  0.000316  0.299639  0.39768  0.000295  0.937959  0.001
H  H16  1  0.15287489  0.75599479  0.69328576  1  0.107825  0.000177  0.109186  0.116866  4.6e-05  0.999759  0.0
H  H17  1  0.34712491  0.25599646  0.80671338  1  0.107976  0.000177  0.109182  0.116861  4.6e-05  0.9998  0.0
H  H18  1  0.84712787  0.24400685  0.30671645  1  0.108012  0.000177  0.109216  0.116894  4.6e-05  0.999745  0.0
H  H19  1  0.65287417  0.74400518  0.19328500  1  0.10799  0.000177  0.109188  0.116844  4.6e-05  0.999787  0.0
H  H20  1  0.12238549  0.62555470  0.60075146  1  0.123342  0.000388  0.103964  0.113342  -6.1e-05  1.035902  0.0
H  H21  1  0.37761599  0.12555581  0.89924708  1  0.123341  0.000388  0.103952  0.113326  -6.1e-05  1.03591  0.0
H  H22  1  0.87761727  0.37444627  0.39925015  1  0.123305  0.000388  0.103953  0.113297  -6.1e-05  1.035916  0.0
H  H23  1  0.62238492  0.87444582  0.10075082  1  0.12333  0.000388  0.103956  0.113319  -6.1e-05  1.03592  0.0
H  H24  1  0.51985673  0.78714701  0.62541824  1  0.076808  0.000716  0.108683  0.117851  0.000264  1.002453  0.0
H  H25  1  0.98014532  0.28714882  0.87458417  1  0.076824  0.000716  0.108687  0.117834  0.000264  1.002478  0.0
H  H26  1  0.48014880  0.21285064  0.37458775  1  0.076761  0.000716  0.108685  0.117818  0.000264  1.002551  0.0
H  H27  1  0.01985284  0.71285083  0.12541594  1  0.076827  0.000716  0.108679  0.117813  0.000264  1.002472  0.0
H  H28  1  0.37789098  0.93000202  0.56668403  1  0.076536  4.6e-05  0.102542  0.099643  -2e-05  1.034601  0.0
H  H29  1  0.12211362  0.43000170  0.93331376  1  0.076603  4.6e-05  0.102533  0.099583  -2e-05  1.034535  0.0
H  H30  1  0.62211085  0.06999762  0.43331393  1  0.076596  4.6e-05  0.102524  0.099557  -2e-05  1.034586  0.0
H  H31  1  0.87788913  0.56999861  0.06668426  1  0.076558  4.6e-05  0.102508  0.099518  -2e-05  1.034542  0.0
H  H32  1  0.46241278  0.07900237  0.53947969  1  0.074402  0.000196  0.104605  0.1079  4.8e-05  1.002515  0.0
H  H33  1  0.03758591  0.57900090  0.96052103  1  0.074398  0.000196  0.104611  0.10791  4.8e-05  1.002522  0.0
H  H34  1  0.53758814  0.92099661  0.46051880  1  0.074439  0.000196  0.10462  0.107955  4.8e-05  1.002477  0.0
H  H35  1  0.96241042  0.42099742  0.03947897  1  0.07437  0.000196  0.104596  0.107886  4.8e-05  1.002535  0.0
H  H36  1  0.47424269  0.96980523  0.82088981  1  0.132096  0.000283  0.116523  0.128681  -6.8e-05  0.993348  0.0
H  H37  1  0.02576287  0.46981323  0.67910807  1  0.131682  0.000283  0.116528  0.128652  -6.8e-05  0.993411  0.0
H  H38  1  0.52575730  0.03019309  0.17910743  1  0.132223  0.000283  0.116505  0.128687  -6.8e-05  0.993271  0.0
H  H39  1  0.97424539  0.53019305  0.32088911  1  0.132113  0.000283  0.116483  0.128578  -6.8e-05  0.993383  0.0
H  H40  1  0.98284265  0.34758482  0.53523431  1  0.092962  0.002658  0.123452  0.093757  0.001027  0.98856  0.002
H  H41  1  0.51715580  0.84758533  0.96476611  1  0.093029  0.002659  0.123491  0.09381  0.001027  0.988616  0.002
H  H42  1  0.01715736  0.65241616  0.46476652  1  0.093018  0.002658  0.123473  0.093757  0.001027  0.988689  0.002
H  H43  1  0.48284145  0.15241896  0.03523334  1  0.092967  0.002657  0.12348  0.093786  0.001027  0.988715  0.002
H  H44  1  0.90280051  0.24313868  0.63003891  1  0.108124  0.00083  0.114502  0.133598  0.000228  1.010439  0.0
H  H45  1  0.59719965  0.74314047  0.86996155  1  0.108277  0.000829  0.11452  0.133639  0.000228  1.010484  0.0
H  H46  1  0.09720042  0.75686097  0.36996138  1  0.108261  0.000829  0.114521  0.133637  0.000228  1.010495  0.0
H  H47  1  0.40279943  0.25686316  0.13003803  1  0.108111  0.00083  0.114511  0.133599  0.000228  1.010453  0.0
H  H48  1  0.26292460  0.11937038  0.65543375  1  0.08064  0.000908  0.102763  0.104635  0.000395  1.050352  0.0
H  H49  1  0.23707872  0.61937090  0.84456491  1  0.080603  0.000908  0.102751  0.104618  0.000395  1.050439  0.0
H  H50  1  0.73707816  0.88062860  0.34456607  1  0.080609  0.000908  0.102731  0.104596  0.000395  1.050495  0.0
H  H51  1  0.76292587  0.38062676  0.15543442  1  0.08066  0.000908  0.102728  0.104606  0.000395  1.050446  0.0
H  H52  1  0.32729785  0.23023814  0.56020238  1  0.107691  0.002526  0.119122  0.088567  0.000815  1.011353  0.002
H  H53  1  0.17270376  0.73023805  0.93979446  1  0.107701  0.002526  0.119116  0.088571  0.000815  1.011425  0.002
H  H54  1  0.67270491  0.76976084  0.43979624  1  0.107711  0.002526  0.119122  0.088569  0.000816  1.011403  0.002
H  H55  1  0.82729716  0.26976027  0.06020344  1  0.107703  0.002526  0.119116  0.08857  0.000816  1.011363  0.002
H  H56  1  0.77606616  0.02574419  0.78378422  1  0.112582  0.002219  0.118762  0.085112  0.000748  1.017207  0.002
H  H57  1  0.72393098  0.52574126  0.71621647  1  0.112547  0.002219  0.118776  0.085148  0.000747  1.017249  0.002
H  H58  1  0.22393201  0.97425744  0.21621649  1  0.112513  0.002219  0.118764  0.085129  0.000748  1.017243  0.002
H  H59  1  0.27606718  0.47425839  0.28378305  1  0.112537  0.002219  0.118774  0.085136  0.000748  1.017216  0.002
H  H60  1  0.84108647  0.14519382  0.69730579  1  0.102456  0.000931  0.109385  0.120943  0.000349  1.03219  0.0
H  H61  1  0.65891726  0.64519093  0.80269842  1  0.102217  0.000931  0.109369  0.120891  0.000349  1.032228  0.0
H  H62  1  0.15891722  0.85480915  0.30269828  1  0.102178  0.000931  0.10936  0.120896  0.000349  1.03225  0.0
H  H63  1  0.34108643  0.35480871  0.19730445  1  0.102226  0.000931  0.10939  0.120963  0.000349  1.032221  0.0
H  H64  1  0.21143711  0.03990106  0.74161472  1  0.063256  0.000851  0.103212  0.108326  0.0004  1.038374  0.0
H  H65  1  0.28856152  0.53990750  0.75838297  1  0.063162  0.000851  0.103213  0.108327  0.0004  1.038494  0.0
H  H66  1  0.78856105  0.96009327  0.25838480  1  0.063183  0.000851  0.103218  0.108321  0.0004  1.038458  0.0
H  H67  1  0.71143757  0.46009812  0.24161600  1  0.063245  0.000851  0.103246  0.108359  0.0004  1.03836  0.0
H  H68  1  0.12896495  0.92508877  0.82528134  1  0.170397  0.001932  0.124887  0.112684  0.000475  1.0082  0.002
H  H69  1  0.37102863  0.42509165  0.67471811  1  0.170371  0.001932  0.124923  0.112721  0.000475  1.008159  0.002
H  H70  1  0.87102954  0.07490755  0.17471733  1  0.170162  0.001932  0.124913  0.112697  0.000475  1.008176  0.002
H  H71  1  0.62896679  0.57490998  0.32528362  1  0.17031  0.001932  0.124905  0.112717  0.000475  1.008238  0.002
H  H72  1  0.82491342  0.50876421  0.90837904  1  0.099967  0.000201  0.104694  0.070621  0.0001  1.054878  0.0
H  H73  1  0.67508646  0.00877154  0.59162181  1  0.099937  0.000201  0.104709  0.070641  0.0001  1.054801  0.0
H  H74  1  0.17508474  0.49123079  0.09162047  1  0.099932  0.000201  0.104687  0.070599  0.0001  1.054824  0.0
H  H75  1  0.32491447  0.99123208  0.40838028  1  0.099981  0.000201  0.104677  0.070572  0.0001  1.054796  0.0
H  H76  1  0.68685847  0.58007192  0.99568412  1  0.089941  8.5e-05  0.107695  0.115398  4.7e-05  1.016238  0.0
H  H77  1  0.81314517  0.08007461  0.50431464  1  0.0904  8.5e-05  0.107689  0.115391  4.7e-05  1.016175  0.0
H  H78  1  0.31314061  0.41992573  0.00431306  1  0.089844  8.5e-05  0.107652  0.115381  4.7e-05  1.016262  0.0
H  H79  1  0.18685944  0.91992637  0.49568889  1  0.089653  8.5e-05  0.107657  0.115403  4.7e-05  1.016282  0.0
H  H80  1  0.42966979  0.36550008  0.93526396  1  0.078717  -3.8e-05  0.103675  0.104963  -6.8e-05  1.035702  0.0
H  H81  1  0.07032556  0.86550023  0.56473796  1  0.078778  -3.8e-05  0.103702  0.105051  -6.8e-05  1.035661  0.0
H  H82  1  0.57032745  0.63449691  0.06473549  1  0.078795  -3.8e-05  0.103682  0.104999  -6.8e-05  1.035717  0.0
H  H83  1  0.92967262  0.13449676  0.43526755  1  0.078782  -3.8e-05  0.103698  0.105006  -6.8e-05  1.035727  0.0
H  H84  1  0.58004809  0.30462908  0.84906235  1  0.135624  0.000101  0.117053  0.090235  1.5e-05  1.021326  0.0
H  H85  1  0.91994387  0.80462818  0.65093822  1  0.135619  0.000101  0.117029  0.090257  1.5e-05  1.021215  0.0
H  H86  1  0.41994915  0.69536924  0.15093770  1  0.135706  0.000101  0.117025  0.090248  1.5e-05  1.021315  0.0
H  H87  1  0.08004879  0.19536947  0.34906453  1  0.135743  0.000101  0.117012  0.090238  1.5e-05  1.021384  0.0
C  C88  1  0.22424021  0.73564316  0.65591671  1  -0.025847  0.001332  -0.077521  -0.088478  0.000656  3.953826  0.001
C  C89  1  0.27576049  0.23564682  0.84408187  1  -0.026095  0.001332  -0.077559  -0.088521  0.000657  3.953756  0.001
C  C90  1  0.77576072  0.26435515  0.34408359  1  -0.026026  0.001332  -0.077514  -0.088467  0.000657  3.953662  0.001
C  C91  1  0.72423675  0.76435548  0.15591699  1  -0.026451  0.001332  -0.07754  -0.088491  0.000656  3.953628  0.001
C  C92  1  0.20808364  0.66304618  0.60485398  1  -0.022044  0.001641  -0.084005  -0.106688  0.000822  3.966744  0.001
C  C93  1  0.29191789  0.16304790  0.89514459  1  -0.022287  0.001641  -0.084005  -0.106686  0.000822  3.966418  0.001
C  C94  1  0.79191912  0.33695346  0.39514643  1  -0.021976  0.00164  -0.084031  -0.106726  0.000822  3.966548  0.001
C  C95  1  0.70808210  0.83695307  0.10485325  1  -0.022018  0.001641  -0.084033  -0.1067  0.000822  3.966622  0.001
C  C96  1  0.30153428  0.63623044  0.55819212  1  -0.05019  0.007362  0.005285  -0.026344  0.003535  3.899103  0.006
C  C97  1  0.19846630  0.13623017  0.94180757  1  -0.050184  0.00736  0.005243  -0.026383  0.003534  3.899082  0.006
C  C98  1  0.69846664  0.36377318  0.44180997  1  -0.050204  0.007361  0.005329  -0.026185  0.003534  3.89897  0.006
C  C99  1  0.80153278  0.86377014  0.05819080  1  -0.050213  0.007362  0.005282  -0.02635  0.003534  3.899174  0.006
C  C100  1  0.41575895  0.68042105  0.56670905  1  -0.022622  0.005377  -0.004501  -0.040694  0.002308  3.921015  0.004
C  C101  1  0.08424444  0.18042071  0.93329026  1  -0.022653  0.005376  -0.004411  -0.040663  0.002307  3.920922  0.004
C  C102  1  0.58424381  0.31958058  0.43329197  1  -0.022713  0.005376  -0.004503  -0.040718  0.002307  3.920831  0.004
C  C103  1  0.91575648  0.81957827  0.06670764  1  -0.022514  0.005377  -0.004437  -0.040748  0.002308  3.920809  0.004
C  C104  1  0.43051392  0.75438494  0.61776997  1  -0.029764  0.000614  -0.07241  -0.110452  6.7e-05  3.918098  0.0
C  C105  1  0.06948773  0.25438587  0.88223108  1  -0.029514  0.000614  -0.072352  -0.110337  6.7e-05  3.91804  0.0
C  C106  1  0.56948886  0.24561470  0.38223404  1  -0.02954  0.000614  -0.072393  -0.110449  6.7e-05  3.918052  0.0
C  C107  1  0.93051227  0.74561311  0.11776855  1  -0.029914  0.000614  -0.07237  -0.110291  6.7e-05  3.917886  0.0
C  C108  1  0.33493943  0.78357734  0.66083639  1  -0.041623  0.000427  -0.019699  -0.017262  0.000138  4.011624  0.0
C  C109  1  0.16505949  0.28358026  0.83916271  1  -0.041451  0.000427  -0.019649  -0.017124  0.000138  4.011582  0.0
C  C110  1  0.66506058  0.21642164  0.33916444  1  -0.041729  0.000426  -0.019676  -0.017131  0.000138  4.011522  0.0
C  C111  1  0.83494051  0.71642071  0.16083693  1  -0.041239  0.000427  -0.019657  -0.017183  0.000138  4.011442  0.0
C  C112  1  0.34888644  0.86047753  0.71684038  1  0.939793  0.000822  0.159999  0.341753  0.000308  3.994102  0.0
C  C113  1  0.15111623  0.36047907  0.78315603  1  0.939978  0.000822  0.160011  0.341667  0.000308  3.994186  0.0
C  C114  1  0.65111265  0.13952410  0.28316159  1  0.939656  0.000822  0.159964  0.341574  0.000308  3.994227  0.0
C  C115  1  0.84888469  0.63952190  0.21684307  1  0.939876  0.000823  0.160022  0.341728  0.000308  3.994148  0.0
C  C116  1  0.41811541  0.94094336  0.69590301  1  -0.009995  0.005711  -0.017822  -0.01443  0.002875  3.995669  0.003
C  C117  1  0.08189105  0.44094952  0.80409731  1  -0.009551  0.005712  -0.01775  -0.014286  0.002875  3.99549  0.003
C  C118  1  0.58188459  0.05905429  0.30409663  1  -0.009721  0.005713  -0.017833  -0.01431  0.002876  3.995599  0.003
C  C119  1  0.91811354  0.55905743  0.19590203  1  -0.00995  0.005713  -0.017807  -0.014473  0.002876  3.995463  0.003
C  C120  1  0.41866076  0.97075710  0.61633796  1  -0.059265  -0.001357  -0.079926  -0.106197  -0.001628  3.980937  -0.001
C  C121  1  0.08134204  0.47076002  0.88365794  1  -0.05951  -0.001357  -0.079905  -0.106126  -0.001628  3.981191  -0.001
C  C122  1  0.58134015  0.02924055  0.38365993  1  -0.059504  -0.001357  -0.079865  -0.106058  -0.001629  3.981018  -0.001
C  C123  1  0.91866163  0.52924028  0.11633954  1  -0.059369  -0.001356  -0.079898  -0.106068  -0.001628  3.981026  -0.001
C  C124  1  0.46708098  0.05401961  0.60106475  1  -0.08224  0.005483  -0.089932  -0.123778  0.002697  3.99793  0.003
C  C125  1  0.03291952  0.55401940  0.89893606  1  -0.082216  0.005485  -0.089942  -0.123778  0.002698  3.997993  0.003
C  C126  1  0.53292086  0.94598003  0.39893440  1  -0.082262  0.005484  -0.089972  -0.123894  0.002698  3.99796  0.003
C  C127  1  0.96707773  0.44598091  0.10106219  1  -0.082161  0.005484  -0.089903  -0.123693  0.002698  3.997925  0.003
C  C128  1  0.52088768  0.10677151  0.66419294  1  -0.015605  0.000801  0.004821  -0.00797  -0.000735  3.904106  0.0
C  C129  1  0.97911323  0.60677415  0.83580686  1  -0.015823  0.000801  0.004847  -0.007999  -0.000736  3.903982  0.0
C  C130  1  0.47911140  0.89322747  0.33580543  1  -0.015594  0.0008  0.004824  -0.007962  -0.000737  3.904056  0.0
C  C131  1  0.02088769  0.39322616  0.16419224  1  -0.015779  0.000801  0.004829  -0.008047  -0.000736  3.904059  0.0
C  C132  1  0.52719958  0.07446692  0.74399193  1  -0.03326  0.008881  -0.01083  -0.060662  0.004439  3.93575  0.006
C  C133  1  0.97280681  0.57447280  0.75600880  1  -0.033346  0.00888  -0.010916  -0.060784  0.004439  3.935706  0.006
C  C134  1  0.47280133  0.92553338  0.25600597  1  -0.033252  0.008881  -0.010801  -0.060658  0.00444  3.935656  0.006
C  C135  1  0.02720054  0.42553216  0.24399011  1  -0.032959  0.008881  -0.010887  -0.060799  0.00444  3.935906  0.006
C  C136  1  0.47279853  0.99329826  0.75908611  1  -0.026321  -0.000802  -0.06375  -0.084882  -0.001271  3.894594  -0.001
C  C137  1  0.02720614  0.49330566  0.74091113  1  -0.026144  -0.000802  -0.063776  -0.084851  -0.001271  3.894446  -0.001
C  C138  1  0.52720054  0.00670072  0.24091047  1  -0.026581  -0.000802  -0.063752  -0.084916  -0.001271  3.894457  -0.001
C  C139  1  0.97280213  0.50669929  0.25908784  1  -0.026639  -0.000801  -0.063682  -0.084614  -0.001271  3.89433  -0.001
C  C140  1  0.27026157  0.55927049  0.50287908  1  1.581375  -0.000775  0.226219  0.594053  -0.000848  4.145424  0.0
C  C141  1  0.22973799  0.05926963  0.99711628  1  1.58138  -0.000777  0.22617  0.593948  -0.00085  4.145484  0.0
C  C142  1  0.72973934  0.44073446  0.49711761  1  1.581384  -0.000779  0.226115  0.59376  -0.000851  4.145647  0.0
C  C143  1  0.77025924  0.94072736  0.00287838  1  1.581418  -0.000776  0.226213  0.59403  -0.000849  4.145466  0.0
C  C144  1  0.52565226  0.64951322  0.52706096  1  1.57359  0.001766  0.218837  0.585611  0.001689  4.158858  0.002
C  C145  1  0.97435054  0.14951114  0.97293840  1  1.573442  0.001767  0.218854  0.585575  0.001689  4.158962  0.002
C  C146  1  0.47435050  0.35048841  0.47294005  1  1.573657  0.001767  0.218822  0.585597  0.001689  4.158853  0.002
C  C147  1  0.02565222  0.85048784  0.02705962  1  1.573633  0.001767  0.218816  0.585593  0.00169  4.158787  0.002
C  C148  1  0.56717384  0.19758376  0.64592596  1  1.577649  0.000272  0.193839  0.550165  -0.000574  4.262092  -0.002
C  C149  1  0.93282352  0.69758307  0.85407727  1  1.577839  0.000273  0.193874  0.550211  -0.000573  4.26187  -0.002
C  C150  1  0.43282157  0.80241788  0.35407397  1  1.577642  0.000273  0.193841  0.550263  -0.000573  4.261798  -0.002
C  C151  1  0.06717832  0.30241657  0.14592248  1  1.577847  0.000273  0.193873  0.550281  -0.000572  4.262033  -0.002
C  C152  1  0.60039384  0.12264742  0.81150836  1  1.558823  0.000824  0.210999  0.565022  0.001069  4.219486  0.0
C  C153  1  0.89960802  0.62265318  0.68849271  1  1.558545  0.000823  0.211111  0.565195  0.001068  4.21911  0.0
C  C154  1  0.39960524  0.87734957  0.18849001  1  1.558047  0.000825  0.211096  0.565094  0.001068  4.219183  0.0
C  C155  1  0.10039841  0.37735111  0.31150555  1  1.558985  0.000822  0.210974  0.564995  0.001069  4.219472  0.0
C  C156  1  0.04151252  0.29515933  0.56286274  1  0.483546  -0.003049  0.050189  0.100752  -0.003538  3.946429  -0.001
C  C157  1  0.45848458  0.79516405  0.93713805  1  0.48305  -0.003047  0.050218  0.100835  -0.003539  3.946345  -0.001
C  C158  1  0.95848748  0.70483633  0.43713869  1  0.483005  -0.003046  0.050229  0.100881  -0.003538  3.946334  -0.001
C  C159  1  0.54150899  0.20484091  0.06286117  1  0.483449  -0.003049  0.050161  0.100724  -0.003539  3.946515  -0.001
C  C160  1  0.99750452  0.23575512  0.61641359  1  0.035763  0.003102  -0.075197  -0.1577  0.000988  3.891793  0.003
C  C161  1  0.50249929  0.73575422  0.88358351  1  0.035703  0.003106  -0.075192  -0.15778  0.000991  3.891636  0.003
C  C162  1  0.00249915  0.76424585  0.38358389  1  0.035715  0.003106  -0.075212  -0.157843  0.00099  3.891649  0.003
C  C163  1  0.49750621  0.26424675  0.11641349  1  0.035792  0.003103  -0.075179  -0.157657  0.000989  3.891876  0.003
C  C164  1  0.07563096  0.16929608  0.65224293  1  -0.077115  -0.008964  0.013115  0.104241  -0.009835  3.954987  -0.005
C  C165  1  0.42436967  0.66929936  0.84775738  1  -0.077196  -0.008959  0.013077  0.10435  -0.009829  3.955129  -0.005
C  C166  1  0.92437180  0.83070157  0.34775688  1  -0.077196  -0.008959  0.013045  0.104333  -0.009829  3.955003  -0.005
C  C167  1  0.57562850  0.33070427  0.15224213  1  -0.07713  -0.008963  0.01305  0.104194  -0.009834  3.955049  -0.005
C  C168  1  0.19615229  0.16791193  0.63045827  1  0.046495  0.00236  -0.078433  -0.156548  0.000729  3.928849  0.003
C  C169  1  0.30385107  0.66791052  0.86953803  1  0.046562  0.002364  -0.078372  -0.156583  0.000732  3.928894  0.003
C  C170  1  0.80385046  0.83208970  0.36953915  1  0.046499  0.002363  -0.078286  -0.156454  0.000732  3.928777  0.003
C  C171  1  0.69615351  0.33208713  0.13045771  1  0.046412  0.002361  -0.078344  -0.156465  0.00073  3.92886  0.003
C  C172  1  0.23348984  0.22942952  0.57639711  1  0.461996  -0.004294  0.05202  0.110708  -0.004671  3.942333  -0.002
C  C173  1  0.26650810  0.72943213  0.92360248  1  0.4621  -0.004295  0.051969  0.110643  -0.004671  3.942196  -0.002
C  C174  1  0.76650925  0.77056680  0.42360367  1  0.462202  -0.004294  0.051909  0.110526  -0.00467  3.942347  -0.002
C  C175  1  0.73348822  0.27056884  0.07639691  1  0.46198  -0.004292  0.051942  0.110611  -0.004669  3.942539  -0.002
C  C176  1  0.87180681  0.03182062  0.77248475  1  0.473954  -0.007097  0.046164  0.10496  -0.007654  3.956584  -0.004
C  C177  1  0.62819310  0.53181831  0.72751672  1  0.47404  -0.007095  0.046189  0.104944  -0.007653  3.956741  -0.004
C  C178  1  0.12819503  0.96818101  0.22751560  1  0.47403  -0.007096  0.04623  0.104988  -0.007654  3.956534  -0.004
C  C179  1  0.37180690  0.46818266  0.27248351  1  0.47407  -0.007095  0.046149  0.104931  -0.007653  3.956576  -0.004
C  C180  1  0.90982909  0.09901963  0.72421894  1  -0.021492  0.003917  -0.079199  -0.154293  0.001583  3.9131  0.004
C  C181  1  0.59016998  0.59901734  0.77578253  1  -0.021268  0.003918  -0.079217  -0.154231  0.001583  3.913192  0.004
C  C182  1  0.09017092  0.90098068  0.27578369  1  -0.021225  0.003918  -0.079192  -0.154249  0.001584  3.913062  0.004
C  C183  1  0.40982910  0.40098164  0.22421645  1  -0.021219  0.003917  -0.079248  -0.154387  0.001583  3.913121  0.004
C  C184  1  0.03347325  0.10337304  0.70873574  1  -0.012338  -0.011654  0.007081  0.089912  -0.012703  3.969906  -0.007
C  C185  1  0.46653005  0.60337363  0.79126410  1  -0.012296  -0.011649  0.007028  0.089812  -0.012698  3.96998  -0.007
C  C186  1  0.96652859  0.89662660  0.29126462  1  -0.012339  -0.011649  0.007058  0.089894  -0.012698  3.970023  -0.007
C  C187  1  0.53347454  0.39662866  0.20873523  1  -0.012376  -0.011651  0.007092  0.089944  -0.0127  3.970064  -0.007
C  C188  1  0.11344429  0.04016592  0.74777642  1  -0.013723  0.004207  -0.082947  -0.165526  0.001877  3.931393  0.004
C  C189  1  0.38655159  0.54016842  0.75222348  1  -0.013661  0.004208  -0.082922  -0.165558  0.001877  3.931346  0.004
C  C190  1  0.88655296  0.95983107  0.25222363  1  -0.013658  0.004208  -0.082959  -0.165579  0.001878  3.93143  0.004
C  C191  1  0.61344382  0.45983321  0.24777585  1  -0.013711  0.004207  -0.082988  -0.165614  0.001877  3.931478  0.004
C  C192  1  0.06837902  0.97494811  0.79557312  1  0.482998  -0.007103  0.048803  0.102858  -0.007787  3.916183  -0.004
C  C193  1  0.43161830  0.47494906  0.70442722  1  0.483075  -0.007099  0.048859  0.102994  -0.007784  3.916125  -0.004
C  C194  1  0.93161823  0.02505021  0.20442573  1  0.483298  -0.007101  0.048838  0.102961  -0.007785  3.916034  -0.004
C  C195  1  0.56837988  0.52505257  0.29557469  1  0.483065  -0.007102  0.048775  0.10283  -0.007787  3.916166  -0.004
C  C196  1  0.73718989  0.47789418  0.91690007  1  0.48495  -1.5e-05  0.04146  0.091761  -8e-05  3.993875  0.0
C  C197  1  0.76281330  0.97789911  0.58309958  1  0.484886  -1.5e-05  0.041383  0.091743  -8e-05  3.994014  0.0
C  C198  1  0.26281194  0.52210015  0.08309729  1  0.484913  -1.5e-05  0.041426  0.091845  -8e-05  3.993705  0.0
C  C199  1  0.23718580  0.02210253  0.41690359  1  0.484963  -1.5e-05  0.041441  0.09192  -8e-05  3.993853  0.0
C  C200  1  0.65866349  0.51773109  0.96648079  1  -0.07116  0.000153  -0.083485  -0.174495  7.1e-05  3.944905  0.0
C  C201  1  0.84133549  0.01773183  0.53352061  1  -0.071733  0.000153  -0.08348  -0.174494  7.1e-05  3.94502  0.0
C  C202  1  0.34133375  0.48226789  0.03351746  1  -0.071325  0.000153  -0.083414  -0.17446  7.1e-05  3.945284  0.0
C  C203  1  0.15866729  0.98226848  0.46648520  1  -0.071113  0.000153  -0.083478  -0.174617  7.1e-05  3.945159  0.0
C  C204  1  0.54393987  0.47927833  0.97487692  1  0.001948  -0.000125  0.010736  0.101271  -0.000174  3.973894  0.0
C  C205  1  0.95605965  0.97928065  0.52512368  1  0.047483  -0.000123  0.01072  0.101237  -0.000173  3.973865  0.0
C  C206  1  0.45605553  0.52071800  0.02512002  1  0.047043  -0.000123  0.010694  0.1012  -0.000174  3.973942  0.0
C  C207  1  0.04394405  0.02071966  0.47488278  1  0.001521  -0.000125  0.010756  0.101336  -0.000174  3.973875  0.0
C  C208  1  0.51632298  0.40018338  0.93230794  1  -0.010678  -0.000195  -0.082404  -0.168995  -0.00031  3.938415  0.0
C  C209  1  0.98367371  0.90018111  0.56769601  1  -0.01066  -0.000196  -0.082477  -0.169195  -0.00031  3.938469  0.0
C  C210  1  0.48367612  0.59981759  0.06769403  1  -0.009737  -0.000196  -0.082453  -0.169069  -0.00031  3.938406  0.0
C  C211  1  0.01632356  0.09981721  0.43231063  1  -0.010228  -0.000195  -0.082503  -0.169107  -0.00031  3.938326  0.0
C  C212  1  0.60023537  0.36514294  0.88381191  1  0.433457  0.000276  0.048018  0.096992  6.2e-05  3.952865  0.0
C  C213  1  0.89975941  0.86514731  0.61618650  1  0.433299  0.000276  0.048111  0.097096  6.2e-05  3.952876  0.0
C  C214  1  0.39976278  0.63485073  0.11618521  1  0.432808  0.000276  0.048079  0.097031  6.2e-05  3.953261  0.0
C  C215  1  0.10023784  0.13485433  0.38381595  1  0.433463  0.000276  0.048077  0.096986  6.2e-05  3.953101  0.0
N  N216  1  0.15780738  0.29255101  0.54226557  1  -1.243061  0.069775  -0.342778  -0.275725  0.03575  3.665472  0.049
N  N217  1  0.34219063  0.79255236  0.95773227  1  -1.242801  0.069779  -0.342797  -0.275784  0.035754  3.665636  0.049
N  N218  1  0.84219170  0.70744930  0.45773280  1  -1.242792  0.06978  -0.34276  -0.275703  0.035754  3.665747  0.049
N  N219  1  0.65780845  0.20744928  0.04226490  1  -1.242905  0.069775  -0.342708  -0.275679  0.03575  3.66555  0.049
N  N220  1  0.94815949  0.96922513  0.80636282  1  -1.241543  0.066811  -0.337245  -0.261681  0.035143  3.611752  0.057
N  N221  1  0.55183635  0.46922586  0.69363813  1  -1.241567  0.06681  -0.337262  -0.261705  0.035141  3.611898  0.057
N  N222  1  0.05183684  0.03077319  0.19363717  1  -1.241539  0.066814  -0.337291  -0.261739  0.035144  3.611814  0.057
N  N223  1  0.44816090  0.53077578  0.30636252  1  -1.241556  0.066809  -0.337172  -0.261562  0.035142  3.611755  0.057
N  N224  1  0.70939065  0.40314161  0.87526432  1  -1.227532  0.000563  -0.311324  -0.251907  -2.4e-05  3.387908  0.001
N  N225  1  0.79060603  0.90314460  0.62473664  1  -1.227376  0.000562  -0.311311  -0.251932  -2.4e-05  3.387897  0.001
N  N226  1  0.29060844  0.59685670  0.12473586  1  -1.227268  0.000562  -0.311339  -0.252008  -2.4e-05  3.387712  0.001
N  N227  1  0.20939031  0.09685637  0.37526635  1  -1.227477  0.000562  -0.311247  -0.251916  -2.4e-05  3.387896  0.001
O  O228  1  0.23132315  0.48920821  0.53566486  1  -1.114088  0.096644  -0.301464  -0.5181  0.048429  2.322427  0.074
O  O229  1  0.26867508  0.98920554  0.96433016  1  -1.114219  0.096646  -0.301471  -0.518129  0.048428  2.322374  0.074
O  O230  1  0.76868051  0.51079409  0.46433202  1  -1.114319  0.096635  -0.301456  -0.518027  0.048423  2.322397  0.074
O  O231  1  0.73131847  0.01079078  0.03566426  1  -1.114115  0.096651  -0.301481  -0.518118  0.048433  2.322393  0.074
O  O232  1  0.24140116  0.66884693  0.26790635  1  -1.281201  0.065964  -0.57636  -0.756616  0.035111  2.162368  0.052
O  O233  1  0.25860041  0.16884715  0.23209131  1  -1.281074  0.065958  -0.57634  -0.756543  0.035108  2.162361  0.052
O  O234  1  0.75859608  0.33115072  0.73209011  1  -1.281047  0.065959  -0.576286  -0.756416  0.035109  2.162472  0.052
O  O235  1  0.74140142  0.83115316  0.76790785  1  -1.281206  0.065965  -0.576358  -0.756571  0.035111  2.162379  0.052
O  O236  1  0.27449537  0.56636591  0.42758019  1  -1.152798  0.085196  -0.29822  -0.547586  0.044657  2.407664  0.067
O  O237  1  0.22550240  0.06636197  0.07241713  1  -1.152729  0.085205  -0.298203  -0.547488  0.04466  2.407688  0.067
O  O238  1  0.72549912  0.43364369  0.57241908  1  -1.152717  0.085203  -0.298197  -0.547481  0.044661  2.407646  0.067
O  O239  1  0.77449575  0.93363435  0.92757998  1  -1.152827  0.085202  -0.298249  -0.547584  0.044661  2.407755  0.067
O  O240  1  0.51661037  0.61757501  0.45689375  1  -1.150323  0.062932  -0.295689  -0.55219  0.03207  2.380222  0.054
O  O241  1  0.98339243  0.11757186  0.04310346  1  -1.150313  0.06293  -0.295715  -0.552151  0.032069  2.380398  0.054
O  O242  1  0.48339055  0.38242529  0.54310594  1  -1.150356  0.062934  -0.295669  -0.552084  0.03207  2.380229  0.054
O  O243  1  0.01660941  0.88242513  0.95689450  1  -1.15035  0.062928  -0.295665  -0.552111  0.032068  2.380201  0.054
O  O244  1  0.62956054  0.65848947  0.57007105  1  -1.125115  0.103016  -0.313131  -0.541531  0.052567  2.373976  0.078
O  O245  1  0.87044135  0.15848862  0.92992825  1  -1.125055  0.103018  -0.313146  -0.54153  0.052566  2.373982  0.078
O  O246  1  0.37044130  0.34151084  0.42992870  1  -1.125054  0.103023  -0.313134  -0.541589  0.05257  2.374034  0.078
O  O247  1  0.12956049  0.84150970  0.07007090  1  -1.125062  0.103022  -0.313163  -0.541585  0.052568  2.37406  0.078
O  O248  1  0.65570804  0.20716143  0.60361989  1  -1.154043  0.04069  -0.319093  -0.560503  0.020605  2.124562  0.033
O  O249  1  0.84429117  0.70715808  0.89638287  1  -1.154164  0.040687  -0.31912  -0.560498  0.020603  2.124412  0.033
O  O250  1  0.34429012  0.79284087  0.39637842  1  -1.1541  0.040685  -0.319118  -0.560547  0.020602  2.124541  0.033
O  O251  1  0.15570608  0.29284024  0.10361898  1  -1.154136  0.040679  -0.319107  -0.56052  0.020599  2.124755  0.033
O  O252  1  0.50899625  0.26364954  0.67255973  1  -1.126395  0.080039  -0.316386  -0.545407  0.041497  2.279032  0.064
O  O253  1  0.99099934  0.76365085  0.82744164  1  -1.126286  0.080048  -0.316423  -0.54545  0.041503  2.278959  0.064
O  O254  1  0.49100191  0.73634944  0.32743978  1  -1.126328  0.080051  -0.316389  -0.545461  0.041504  2.278811  0.064
O  O255  1  0.00899883  0.23634879  0.17255907  1  -1.126299  0.080049  -0.316429  -0.545487  0.041503  2.27887  0.064
O  O256  1  0.67447578  0.18215484  0.79642146  1  -1.178802  0.006469  -0.294287  -0.539915  0.002338  2.283596  0.005
O  O257  1  0.82552157  0.68215659  0.70358176  1  -1.178395  0.006468  -0.294304  -0.539973  0.002338  2.283509  0.005
O  O258  1  0.32552331  0.81784348  0.20357871  1  -1.178307  0.006468  -0.294343  -0.539996  0.002338  2.283501  0.005
O  O259  1  0.17448302  0.31784637  0.29641518  1  -1.178498  0.006469  -0.294263  -0.539932  0.002339  2.283522  0.005
O  O260  1  0.58659104  0.09480138  0.88350123  1  -1.13975  0.100736  -0.324886  -0.564179  0.05111  2.369467  0.077
O  O261  1  0.91341077  0.59480775  0.61649802  1  -1.139817  0.100738  -0.324962  -0.5643  0.051114  2.369329  0.077
O  O262  1  0.41340711  0.90519495  0.11649529  1  -1.139428  0.100735  -0.324962  -0.564246  0.051113  2.369369  0.077
O  O263  1  0.08659565  0.40519455  0.38349904  1  -1.140291  0.10074  -0.324866  -0.564132  0.051112  2.36951  0.077
O  O264  1  0.29872083  0.85987542  0.77988627  1  -1.082345  0.002168  -0.237757  -0.383261  0.000878  2.182935  0.002
O  O265  1  0.20127725  0.35987294  0.72011103  1  -1.082506  0.002167  -0.23779  -0.383313  0.000877  2.183083  0.002
O  O266  1  0.70127824  0.14012821  0.22011091  1  -1.082217  0.002168  -0.237739  -0.383231  0.000878  2.182845  0.002
O  O267  1  0.79872366  0.64012471  0.27988507  1  -1.082413  0.002168  -0.237801  -0.383285  0.000878  2.183064  0.002
