# generated using pymatgen
data_CeH6(C3O4)3
_symmetry_space_group_name_H-M   'P 1'
_cell_length_a   9.81892008
_cell_length_b   9.97730507
_cell_length_c   9.97774436
_cell_angle_alpha   119.94525882
_cell_angle_beta   90.00749934
_cell_angle_gamma   89.95956684
_symmetry_Int_Tables_number   1
_chemical_formula_structural   CeH6(C3O4)3
_chemical_formula_sum   'Ce2 H12 C18 O24'
_cell_volume   846.99170087
_cell_formula_units_Z   2
loop_
 _symmetry_equiv_pos_site_id
 _symmetry_equiv_pos_as_xyz
  1  'x, y, z'
loop_
 _atom_site_type_symbol
 _atom_site_label
 _atom_site_symmetry_multiplicity
 _atom_site_fract_x
 _atom_site_fract_y
 _atom_site_fract_z
 _atom_site_occupancy
 _atom_site_pbe_bader_charge
 _atom_site_pbe_bader_spin_density
 _atom_site_pbe_cm5_charge
 _atom_site_pbe_ddec_charge
 _atom_site_pbe_ddec_spin_density
 _atom_site_pbe_ddec_sum_bond_order
 _atom_site_pbe_magmom
Ce  Ce0  1  0.92536292  0.33300213  0.66684308  1  2.400614  -0.03857  1.503915  2.061457  -0.071767  2.670036  -0.04
Ce  Ce1  1  0.07466151  0.66696995  0.33315693  1  2.400693  -0.03861  1.504308  2.061638  -0.071925  2.670674  -0.04
H  H2  1  0.60868270  0.88804155  0.30846400  1  0.153295  0.030322  0.131312  0.085796  0.024861  0.966739  0.021
H  H3  1  0.71713725  0.92473851  0.53876663  1  0.117429  0.006313  0.131025  0.108599  0.005119  0.951036  0.004
H  H4  1  0.60846844  0.42100905  0.11259185  1  0.144902  0.030762  0.131493  0.08634  0.025153  0.966724  0.021
H  H5  1  0.71644763  0.61405832  0.07493850  1  0.120809  0.006426  0.13089  0.108125  0.005159  0.951868  0.004
H  H6  1  0.60859847  0.69119626  0.57823036  1  0.145386  0.030894  0.131457  0.086714  0.025242  0.967112  0.021
H  H7  1  0.71713443  0.46107541  0.38550662  1  0.114647  0.006263  0.130413  0.107865  0.005065  0.952209  0.004
H  H8  1  0.39131218  0.11192756  0.69130266  1  0.154046  0.030355  0.131312  0.085765  0.024893  0.966601  0.021
H  H9  1  0.28276292  0.07521938  0.46108140  1  0.117774  0.00627  0.130996  0.108491  0.005086  0.951322  0.004
H  H10  1  0.39146941  0.57900799  0.88747739  1  0.144992  0.030761  0.131415  0.086119  0.025156  0.967043  0.021
H  H11  1  0.28357272  0.38592318  0.92517626  1  0.121321  0.006408  0.130933  0.108406  0.005146  0.951483  0.004
H  H12  1  0.39133833  0.30889823  0.42180751  1  0.145708  0.030915  0.131581  0.086797  0.025265  0.96729  0.021
H  H13  1  0.28290420  0.53905344  0.61455292  1  0.114248  0.006244  0.130406  0.107785  0.005049  0.952233  0.004
C  C14  1  0.86747429  0.96942763  0.40247226  1  1.666395  0.024881  0.245555  0.589276  0.027455  4.185366  0.015
C  C15  1  0.62167140  0.00883839  0.40535268  1  0.935101  0.042297  0.135507  0.274911  0.04472  3.831176  0.025
C  C16  1  0.73872697  0.02082268  0.51571408  1  0.607697  0.063239  0.019385  0.025608  0.075119  4.03996  0.042
C  C17  1  0.86713817  0.43342934  0.03091677  1  1.675017  0.025191  0.246588  0.59076  0.02792  4.185623  0.015
C  C18  1  0.62151564  0.39663180  0.99158977  1  0.952508  0.043268  0.135554  0.274447  0.045702  3.830592  0.026
C  C19  1  0.73826032  0.49503582  0.97908503  1  0.590298  0.064381  0.019745  0.02613  0.076519  4.04172  0.042
C  C20  1  0.86729590  0.59746662  0.56679029  1  1.660429  0.026229  0.246474  0.590056  0.02902  4.186548  0.016
C  C21  1  0.62164413  0.59471852  0.60289392  1  0.943003  0.043602  0.13559  0.273983  0.046521  3.832235  0.026
C  C22  1  0.73851704  0.48380150  0.50451888  1  0.596531  0.066373  0.020457  0.026283  0.078338  4.041811  0.043
C  C23  1  0.13249819  0.03056821  0.59757811  1  1.667323  0.024998  0.245729  0.589367  0.027572  4.185396  0.015
C  C24  1  0.37834794  0.99110498  0.59450979  1  0.935411  0.042364  0.135206  0.274731  0.044789  3.831712  0.025
C  C25  1  0.26128523  0.97914315  0.48417201  1  0.607813  0.063423  0.019396  0.025504  0.075297  4.039217  0.042
C  C26  1  0.13278442  0.56652950  0.96906649  1  1.675777  0.02516  0.246357  0.59023  0.027877  4.186762  0.015
C  C27  1  0.37848636  0.60341397  0.00848276  1  0.952383  0.043222  0.135438  0.274384  0.045641  3.831402  0.026
C  C28  1  0.26176715  0.50498771  0.02097568  1  0.59003  0.064232  0.019613  0.02573  0.076349  4.041003  0.042
C  C29  1  0.13270612  0.40250081  0.43324441  1  1.661818  0.026278  0.246388  0.589596  0.029056  4.186386  0.016
C  C30  1  0.37836397  0.40534236  0.39710342  1  0.94299  0.043645  0.135217  0.273539  0.046582  3.832116  0.026
C  C31  1  0.26154706  0.51628499  0.49552492  1  0.596414  0.066389  0.020701  0.026771  0.078336  4.04075  0.043
O  O32  1  0.54963994  0.11437018  0.42143471  1  -1.031158  0.134986  -0.191631  -0.25778  0.136232  2.175764  0.112
O  O33  1  0.94239314  0.07997099  0.42289231  1  -1.12585  0.022898  -0.311812  -0.533931  0.022193  2.261604  0.018
O  O34  1  0.88131010  0.82682050  0.31337842  1  -1.120293  0.098199  -0.297804  -0.525216  0.098091  2.248291  0.082
O  O35  1  0.76415558  0.15577781  0.64184962  1  -1.007252  0.246394  -0.367564  -0.458454  0.246628  2.236411  0.206
O  O36  1  0.54979806  0.30674831  0.88621700  1  -1.03895  0.136379  -0.190826  -0.256683  0.137693  2.17463  0.113
O  O37  1  0.94218484  0.34325705  0.92054613  1  -1.129861  0.023057  -0.312206  -0.534365  0.022329  2.262127  0.018
O  O38  1  0.88075386  0.48736727  0.17361357  1  -1.118442  0.100281  -0.296647  -0.525006  0.100268  2.247892  0.084
O  O39  1  0.76374310  0.48584367  0.84396849  1  -0.996499  0.249353  -0.36596  -0.457235  0.249374  2.236196  0.208
O  O40  1  0.54988266  0.57925231  0.69283412  1  -1.024459  0.137234  -0.190536  -0.256004  0.138473  2.176874  0.114
O  O41  1  0.94210347  0.57691217  0.65693049  1  -1.119104  0.024075  -0.311228  -0.533335  0.023326  2.262408  0.019
O  O42  1  0.88074896  0.68649036  0.51310425  1  -1.114491  0.102558  -0.295175  -0.523138  0.102523  2.247915  0.086
O  O43  1  0.76397870  0.35783395  0.51352307  1  -0.9974  0.252692  -0.363995  -0.455172  0.252814  2.236056  0.211
O  O44  1  0.45034476  0.88561552  0.57857774  1  -1.032118  0.135077  -0.191456  -0.257608  0.136327  2.176035  0.112
O  O45  1  0.05762213  0.91998584  0.57705886  1  -1.126242  0.02303  -0.311766  -0.533893  0.022323  2.262296  0.018
O  O46  1  0.11868175  0.17312809  0.68680530  1  -1.120645  0.098258  -0.297609  -0.524945  0.098152  2.248716  0.082
O  O47  1  0.23586173  0.84414331  0.35810520  1  -1.007799  0.246533  -0.367595  -0.458215  0.246756  2.236825  0.206
O  O48  1  0.45023650  0.69334553  0.11377742  1  -1.0396  0.136231  -0.190951  -0.25671  0.137552  2.174874  0.113
O  O49  1  0.05772863  0.65658268  0.07945809  1  -1.130661  0.023045  -0.311959  -0.534056  0.022314  2.263623  0.018
O  O50  1  0.11914015  0.51276335  0.82642223  1  -1.1188  0.09986  -0.296744  -0.524844  0.099844  2.248938  0.084
O  O51  1  0.23635665  0.51425245  0.15614978  1  -0.996414  0.249188  -0.366034  -0.457251  0.249186  2.23684  0.208
O  O52  1  0.45016114  0.42064973  0.30705766  1  -1.024861  0.137376  -0.190583  -0.256041  0.138623  2.175919  0.114
O  O53  1  0.05789343  0.42315708  0.34318866  1  -1.119864  0.024153  -0.310947  -0.533064  0.023402  2.263045  0.019
O  O54  1  0.11927144  0.31335022  0.48676889  1  -1.11524  0.102367  -0.295192  -0.523074  0.102331  2.247996  0.086
O  O55  1  0.23613328  0.64221307  0.48645002  1  -0.996798  0.252856  -0.364134  -0.455182  0.252933  2.236193  0.211
