# generated using pymatgen
data_HgH7C10N5O
_symmetry_space_group_name_H-M   'P 1'
_cell_length_a   6.32473041
_cell_length_b   8.25802061
_cell_length_c   22.16017756
_cell_angle_alpha   90.00058725
_cell_angle_beta   89.99940676
_cell_angle_gamma   104.08997459
_symmetry_Int_Tables_number   1
_chemical_formula_structural   HgH7C10N5O
_chemical_formula_sum   'Hg4 H28 C40 N20 O4'
_cell_volume   1122.59919220
_cell_formula_units_Z   4
loop_
 _symmetry_equiv_pos_site_id
 _symmetry_equiv_pos_as_xyz
  1  'x, y, z'
loop_
 _atom_site_type_symbol
 _atom_site_label
 _atom_site_symmetry_multiplicity
 _atom_site_fract_x
 _atom_site_fract_y
 _atom_site_fract_z
 _atom_site_occupancy
 _atom_site_hle17_bader_spin_density
 _atom_site_hle17_ddec_charge
 _atom_site_hle17_ddec_spin_density
 _atom_site_hle17_ddec_sum_bond_order
 _atom_site_hle17_magmom
 _atom_site_hse06_10hf_bader_spin_density
 _atom_site_hse06_10hf_ddec_charge
 _atom_site_hse06_10hf_ddec_spin_density
 _atom_site_hse06_10hf_ddec_sum_bond_order
 _atom_site_hse06_10hf_magmom
 _atom_site_hse06_bader_spin_density
 _atom_site_hse06_ddec_charge
 _atom_site_hse06_ddec_spin_density
 _atom_site_hse06_ddec_sum_bond_order
 _atom_site_hse06_magmom
 _atom_site_pbe_bader_spin_density
 _atom_site_pbe_cm5_charge
 _atom_site_pbe_ddec_charge
 _atom_site_pbe_ddec_spin_density
 _atom_site_pbe_ddec_sum_bond_order
 _atom_site_pbe_magmom
Hg  Hg0  1  0.76388081  0.07436055  0.78793829  1  0  0.647581  0  2.337954  0  0  0.491362  0  2.822061  0  0  0.527142  0  2.793807  0  0  0.571955  0.466968  0  2.841127  0
Hg  Hg1  1  0.23610475  0.42562338  0.28794148  1  0  0.647517  0  2.337783  0  0  0.491311  0  2.821863  0  0  0.527088  0  2.793615  0  0  0.571923  0.466922  0  2.840931  0
Hg  Hg2  1  0.23610145  0.92563090  0.21206094  1  0  0.647487  0  2.337648  0  0  0.491265  0  2.821719  0  0  0.527044  0  2.793471  0  0  0.571899  0.466874  0  2.840791  0
Hg  Hg3  1  0.76388222  0.57436306  0.71205729  1  0  0.647636  0  2.337727  0  0  0.491436  0  2.821813  0  0  0.527212  0  2.793569  0  0  0.571982  0.467047  0  2.840882  0
H  H4  1  0.08951993  0.12480860  0.95047117  1  0  0.141841  0  0.955656  0  0  0.148989  0  1.018712  0  0  0.153569  0  1.015735  0  0  0.110283  0.145735  0  1.020857  0
H  H5  1  0.91047209  0.37519453  0.45047052  1  0  0.141908  0  0.955535  0  0  0.149011  0  1.018637  0  0  0.153594  0  1.01566  0  0  0.11033  0.14576  0  1.020778  0
H  H6  1  0.91045634  0.87517411  0.04952941  1  0  0.141845  0  0.955686  0  0  0.148961  0  1.018759  0  0  0.153546  0  1.015782  0  0  0.110272  0.145708  0  1.020899  0
H  H7  1  0.08954505  0.62481680  0.54952509  1  0  0.141892  0  0.955545  0  0  0.149  0  1.018641  0  0  0.153586  0  1.01566  0  0  0.110305  0.145747  0  1.020789  0
H  H8  1  0.58519161  0.36172292  0.00507297  1  0  0.11162  0  0.957873  0  0  0.120928  0  1.021199  0  0  0.124287  0  1.019713  0  0  0.102087  0.118578  0  1.022296  0
H  H9  1  0.41483327  0.13829599  0.50505817  1  0  0.111411  0  0.958042  0  0  0.12092  0  1.021157  0  0  0.12428  0  1.019675  0  0  0.102083  0.11857  0  1.022242  0
H  H10  1  0.41483024  0.63828339  0.99494250  1  0  0.111426  0  0.95809  0  0  0.120922  0  1.021213  0  0  0.124287  0  1.019723  0  0  0.102071  0.118564  0  1.0223  0
H  H11  1  0.58521516  0.86172899  0.49492661  1  0  0.111528  0  0.958125  0  0  0.120929  0  1.021328  0  0  0.124289  0  1.019841  0  0  0.102093  0.118582  0  1.022427  0
H  H12  1  0.71680405  0.58839884  0.92941448  1  0  0.091673  0  0.954035  0  0  0.101561  0  1.014995  0  0  0.104141  0  1.013446  0  0  0.098618  0.09972  0  1.0161  0
H  H13  1  0.28320319  0.91161320  0.42940018  1  0  0.091761  0  0.953994  0  0  0.101602  0  1.014994  0  0  0.104172  0  1.013448  0  0  0.098687  0.099761  0  1.016104  0
H  H14  1  0.28320913  0.41161000  0.07060325  1  0  0.091653  0  0.954144  0  0  0.101634  0  1.014975  0  0  0.104188  0  1.013453  0  0  0.098656  0.099789  0  1.016082  0
H  H15  1  0.71683055  0.08840058  0.57058686  1  0  0.091767  0  0.954038  0  0  0.10166  0  1.014981  0  0  0.104235  0  1.013424  0  0  0.098671  0.099818  0  1.016086  0
H  H16  1  0.02345615  0.57958232  0.86191484  1  0  0.104627  0  0.995315  0  0  0.114383  0  1.060099  0  0  0.116949  0  1.059804  0  0  0.096747  0.112524  0  1.060491  0
H  H17  1  0.97653422  0.92042676  0.36190902  1  0  0.104577  0  0.995397  0  0  0.114349  0  1.060151  0  0  0.11691  0  1.059859  0  0  0.096742  0.112471  0  1.060558  0
H  H18  1  0.97653885  0.42042408  0.13809567  1  0  0.104593  0  0.995399  0  0  0.11435  0  1.060184  0  0  0.116921  0  1.059891  0  0  0.096752  0.112488  0  1.060578  0
H  H19  1  0.02347980  0.07958957  0.63808434  1  0  0.104587  0  0.995249  0  0  0.11432  0  1.060074  0  0  0.116899  0  1.059758  0  0  0.09674  0.112438  0  1.060484  0
H  H20  1  0.36169174  0.60243698  0.83138839  1  0  0.116731  0  0.941401  0  0  0.123657  0  1.00613  0  0  0.12591  0  1.003959  0  0  0.14257  0.122013  0  1.007675  0
H  H21  1  0.63829389  0.89755758  0.33139084  1  0  0.116674  0  0.941414  0  0  0.12359  0  1.006164  0  0  0.125836  0  1.004  0  0  0.142528  0.121942  0  1.007715  0
H  H22  1  0.63828736  0.39755448  0.16861400  1  0  0.116756  0  0.941396  0  0  0.123685  0  1.006138  0  0  0.125926  0  1.003979  0  0  0.142544  0.122038  0  1.007686  0
H  H23  1  0.36171337  0.10245253  0.66860884  1  0  0.116734  0  0.941426  0  0  0.123679  0  1.006122  0  0  0.125941  0  1.003942  0  0  0.14253  0.122033  0  1.007669  0
H  H24  1  0.25493900  0.08206335  0.86196858  1  0  0.120524  0  0.941754  0  0  0.127098  0  1.007885  0  0  0.130228  0  1.003946  0  0  0.142858  0.124795  0  1.010766  0
H  H25  1  0.74503946  0.41793253  0.36196821  1  0  0.120474  0  0.94186  0  0  0.127116  0  1.007881  0  0  0.130247  0  1.00394  0  0  0.142857  0.1248  0  1.010772  0
H  H26  1  0.74505710  0.91793180  0.13803696  1  0  0.120389  0  0.941925  0  0  0.127063  0  1.00792  0  0  0.130194  0  1.003981  0  0  0.142826  0.124753  0  1.010807  0
H  H27  1  0.25495039  0.58207264  0.63802785  1  0  0.120507  0  0.941846  0  0  0.12711  0  1.007894  0  0  0.130239  0  1.003958  0  0  0.14286  0.124801  0  1.010779  0
H  H28  1  0.64691199  0.13006066  0.04807916  1  0  0.372765  0  0.916448  0  0  0.346192  0  0.994727  0  0  0.356191  0  0.983611  0  0  0.300119  0.3392  0  1.002404  0
H  H29  1  0.35310377  0.36994940  0.54806844  1  0  0.372608  0  0.916608  0  0  0.346183  0  0.994743  0  0  0.356161  0  0.98364  0  0  0.300053  0.339185  0  1.002435  0
H  H30  1  0.35308804  0.86993197  0.95192999  1  0  0.372687  0  0.916511  0  0  0.346225  0  0.994674  0  0  0.356222  0  0.983559  0  0  0.300094  0.339225  0  1.002371  0
H  H31  1  0.64691337  0.63006193  0.45192447  1  0  0.372803  0  0.916404  0  0  0.346254  0  0.994663  0  0  0.356252  0  0.983547  0  0  0.300142  0.339259  0  1.00235  0
C  C32  1  0.07296936  0.35085382  0.90123835  1  0  0.179613  0  3.83225  0  0  0.17237  0  4.087149  0  0  0.179647  0  4.109946  0  0  0.079556  0.167579  0  4.071638  0
C  C33  1  0.92702297  0.14915053  0.40123573  1  0  0.179483  0  3.832195  0  0  0.172205  0  4.087149  0  0  0.17948  0  4.109951  0  0  0.079478  0.167404  0  4.071642  0
C  C34  1  0.92701763  0.64913761  0.09876720  1  0  0.179534  0  3.832333  0  0  0.172227  0  4.087312  0  0  0.179507  0  4.110117  0  0  0.079451  0.167425  0  4.071811  0
C  C35  1  0.07298785  0.85086082  0.59876034  1  0  0.179273  0  3.832634  0  0  0.172112  0  4.087412  0  0  0.179387  0  4.110217  0  0  0.079378  0.167316  0  4.071903  0
C  C36  1  0.00632683  0.22478100  0.94409985  1  0  -0.286048  0  3.687334  0  0  -0.311151  0  3.93779  0  0  -0.320231  0  3.956583  0  0  -0.111234  -0.305024  0  3.925095  0
C  C37  1  0.99367424  0.27522569  0.44409646  1  0  -0.285854  0  3.687177  0  0  -0.310972  0  3.937692  0  0  -0.320042  0  3.956454  0  0  -0.111181  -0.304856  0  3.925028  0
C  C38  1  0.99366450  0.77520917  0.05590254  1  0  -0.285895  0  3.6872  0  0  -0.310951  0  3.937685  0  0  -0.320019  0  3.956437  0  0  -0.111111  -0.30483  0  3.925012  0
C  C39  1  0.00634052  0.72478314  0.55589915  1  0  -0.285878  0  3.687257  0  0  -0.311004  0  3.937717  0  0  -0.320078  0  3.956485  0  0  -0.111172  -0.304878  0  3.925027  0
C  C40  1  0.82863429  0.22946523  0.98134707  1  0  0.361398  0  3.830409  0  0  0.357913  0  4.084515  0  0  0.370711  0  4.100779  0  0  0.085918  0.349139  0  4.07333  0
C  C41  1  0.17138136  0.27054239  0.48133826  1  0  0.360959  0  3.830725  0  0  0.357548  0  4.084789  0  0  0.370344  0  4.101064  0  0  0.085711  0.348778  0  4.073594  0
C  C42  1  0.17137129  0.77052989  0.01866118  1  0  0.361064  0  3.830694  0  0  0.357548  0  4.084883  0  0  0.370346  0  4.101158  0  0  0.085748  0.348775  0  4.073689  0
C  C43  1  0.82863615  0.72946519  0.51865465  1  0  0.361264  0  3.830533  0  0  0.357804  0  4.084614  0  0  0.3706  0  4.10089  0  0  0.085907  0.349037  0  4.073424  0
C  C44  1  0.72216106  0.35965381  0.97553138  1  0  -0.220129  0  3.739512  0  0  -0.241699  0  3.991073  0  0  -0.249549  0  4.012373  0  0  -0.111361  -0.236423  0  3.976632  0
C  C45  1  0.27785695  0.14036114  0.47551912  1  0  -0.219686  0  3.739336  0  0  -0.241451  0  3.990843  0  0  -0.249293  0  4.012118  0  0  -0.111304  -0.236172  0  3.976399  0
C  C46  1  0.27785484  0.64034878  0.02448138  1  0  -0.21966  0  3.739259  0  0  -0.241395  0  3.990824  0  0  -0.249234  0  4.01209  0  0  -0.111251  -0.236105  0  3.976365  0
C  C47  1  0.72216930  0.85965391  0.52447199  1  0  -0.219967  0  3.739698  0  0  -0.241611  0  3.991246  0  0  -0.249461  0  4.012544  0  0  -0.111336  -0.236342  0  3.976811  0
C  C48  1  0.79571453  0.48523198  0.93328267  1  0  -0.012331  0  3.792665  0  0  -0.025658  0  4.047694  0  0  -0.023403  0  4.068572  0  0  -0.090949  -0.026922  0  4.033387  0
C  C49  1  0.20429395  0.01477815  0.43327212  1  0  -0.012537  0  3.792585  0  0  -0.025841  0  4.047704  0  0  -0.023572  0  4.068566  0  0  -0.091041  -0.027106  0  4.033398  0
C  C50  1  0.20429861  0.51477186  0.06672919  1  0  -0.012556  0  3.792608  0  0  -0.025938  0  4.047713  0  0  -0.023664  0  4.0686  0  0  -0.091067  -0.027199  0  4.033402  0
C  C51  1  0.79572716  0.98523567  0.56671854  1  0  -0.012563  0  3.792867  0  0  -0.025896  0  4.047935  0  0  -0.023633  0  4.068804  0  0  -0.091093  -0.027156  0  4.033623  0
C  C52  1  0.97047271  0.48189830  0.89529192  1  0  -0.187897  0  3.758934  0  0  -0.215845  0  4.019885  0  0  -0.222352  0  4.041625  0  0  -0.115797  -0.211633  0  4.005374  0
C  C53  1  0.02952669  0.01810837  0.39528785  1  0  -0.187689  0  3.759009  0  0  -0.21564  0  4.019982  0  0  -0.222142  0  4.041712  0  0  -0.115713  -0.211407  0  4.005484  0
C  C54  1  0.02952464  0.51810559  0.10471543  1  0  -0.187718  0  3.759211  0  0  -0.215688  0  4.020231  0  0  -0.222202  0  4.041969  0  0  -0.115741  -0.211468  0  4.005726  0
C  C55  1  0.97049086  0.98190421  0.60470506  1  0  -0.187588  0  3.759212  0  0  -0.215581  0  4.02019  0  0  -0.222095  0  4.041907  0  0  -0.115648  -0.211346  0  4.005691  0
C  C56  1  0.37612431  0.47454041  0.82924684  1  0  0.174321  0  3.610299  0  0  0.112449  0  3.881287  0  0  0.125654  0  3.893042  0  0  0.162513  0.103827  0  3.873088  0
C  C57  1  0.62386331  0.02545458  0.32924869  1  0  0.174537  0  3.610112  0  0  0.112696  0  3.881065  0  0  0.12591  0  3.892819  0  0  0.162578  0.104087  0  3.872861  0
C  C58  1  0.62386151  0.52545227  0.17075599  1  0  0.174438  0  3.610257  0  0  0.112547  0  3.88125  0  0  0.125765  0  3.893007  0  0  0.162544  0.103933  0  3.873045  0
C  C59  1  0.37613720  0.97454931  0.67075009  1  0  0.174408  0  3.610289  0  0  0.11254  0  3.881232  0  0  0.125738  0  3.892983  0  0  0.162565  0.103923  0  3.873024  0
C  C60  1  0.32391071  0.20814653  0.84613799  1  0  0.151745  0  3.63867  0  0  0.090771  0  3.911639  0  0  0.103403  0  3.923522  0  0  0.155042  0.082562  0  3.903468  0
C  C61  1  0.67606642  0.29185019  0.34614021  1  0  0.151991  0  3.63867  0  0  0.090985  0  3.911672  0  0  0.103617  0  3.923558  0  0  0.155178  0.08279  0  3.903485  0
C  C62  1  0.67608183  0.79184738  0.15386575  1  0  0.15188  0  3.638714  0  0  0.090857  0  3.911681  0  0  0.103487  0  3.923572  0  0  0.155089  0.082658  0  3.903502  0
C  C63  1  0.32392266  0.70815748  0.65385811  1  0  0.151767  0  3.638833  0  0  0.090819  0  3.911828  0  0  0.10345  0  3.923716  0  0  0.155078  0.082616  0  3.903658  0
C  C64  1  0.98005065  0.23807572  0.73398851  1  0  -0.044533  0  3.490656  0  0  -0.015975  0  3.833277  0  0  -0.018396  0  3.845482  0  0  0.008367  -0.014419  0  3.824968  0
C  C65  1  0.01992613  0.26191557  0.23398734  1  0  -0.044553  0  3.491343  0  0  -0.016004  0  3.833983  0  0  -0.018428  0  3.84619  0  0  0.008375  -0.014448  0  3.825672  0
C  C66  1  0.01991147  0.76191704  0.26601207  1  0  -0.044477  0  3.491373  0  0  -0.01591  0  3.833993  0  0  -0.018336  0  3.846205  0  0  0.008537  -0.014351  0  3.825675  0
C  C67  1  0.98006950  0.73806833  0.76601188  1  0  -0.044638  0  3.491364  0  0  -0.016093  0  3.833991  0  0  -0.018516  0  3.846199  0  0  0.008403  -0.014538  0  3.825683  0
C  C68  1  0.63280581  0.92072829  0.85875310  1  0  0.011282  0  3.428095  0  0  0.035503  0  3.756734  0  0  0.03325  0  3.770799  0  0  0.039027  0.036937  0  3.747285  0
C  C69  1  0.36716739  0.57925703  0.35875628  1  0  0.011363  0  3.428385  0  0  0.035567  0  3.757008  0  0  0.033314  0  3.771075  0  0  0.039107  0.037007  0  3.747562  0
C  C70  1  0.36718512  0.07926063  0.14124341  1  0  0.011175  0  3.428649  0  0  0.03538  0  3.757275  0  0  0.033124  0  3.771342  0  0  0.039049  0.036819  0  3.747827  0
C  C71  1  0.63281806  0.42073941  0.64123979  1  0  0.011233  0  3.428278  0  0  0.03545  0  3.756927  0  0  0.033194  0  3.770995  0  0  0.039029  0.036885  0  3.747481  0
N  N72  1  0.48420379  0.25130544  0.80674487  1  0  -0.241413  0  3.107687  0  0  -0.193049  0  3.398406  0  0  -0.20694  0  3.416271  0  0  -0.228568  -0.183592  0  3.386069  0
N  N73  1  0.51577372  0.24868774  0.30674967  1  0  -0.241474  0  3.107876  0  0  -0.193141  0  3.398649  0  0  -0.207034  0  3.416515  0  0  -0.228668  -0.183685  0  3.386314  0
N  N74  1  0.51578798  0.74869097  0.19325842  1  0  -0.241295  0  3.107573  0  0  -0.192961  0  3.398339  0  0  -0.206849  0  3.416198  0  0  -0.22862  -0.183504  0  3.385998  0
N  N75  1  0.48421845  0.75130992  0.69325226  1  0  -0.241401  0  3.107725  0  0  -0.193082  0  3.398478  0  0  -0.206973  0  3.416343  0  0  -0.228624  -0.183624  0  3.386137  0
N  N76  1  0.51772468  0.41958457  0.79631831  1  0  -0.236736  0  3.120015  0  0  -0.185482  0  3.411907  0  0  -0.199873  0  3.429217  0  0  -0.225063  -0.175607  0  3.399909  0
N  N77  1  0.48225786  0.08040958  0.29632215  1  0  -0.236894  0  3.120072  0  0  -0.185638  0  3.411953  0  0  -0.200031  0  3.429262  0  0  -0.225097  -0.175774  0  3.399966  0
N  N78  1  0.48226235  0.58041186  0.20368452  1  0  -0.237011  0  3.12007  0  0  -0.185742  0  3.411963  0  0  -0.200133  0  3.429272  0  0  -0.225104  -0.175872  0  3.399966  0
N  N79  1  0.51773589  0.91958807  0.70367798  1  0  -0.23684  0  3.120249  0  0  -0.185576  0  3.412135  0  0  -0.199968  0  3.429452  0  0  -0.225067  -0.175703  0  3.400132  0
N  N80  1  0.25055636  0.34540137  0.86181257  1  0  -0.120294  0  3.572877  0  0  -0.026963  0  3.783364  0  0  -0.044004  0  3.806665  0  0  -0.212785  -0.015705  0  3.767354  0
N  N81  1  0.74942687  0.15459948  0.36181285  1  0  -0.120419  0  3.572953  0  0  -0.027075  0  3.783452  0  0  -0.044123  0  3.806756  0  0  -0.212751  -0.015814  0  3.767432  0
N  N82  1  0.74942751  0.65459507  0.13819207  1  0  -0.120268  0  3.573047  0  0  -0.026914  0  3.78355  0  0  -0.043959  0  3.806856  0  0  -0.212647  -0.015656  0  3.767537  0
N  N83  1  0.25057048  0.84540441  0.63818366  1  0  -0.120239  0  3.573106  0  0  -0.026918  0  3.783498  0  0  -0.043962  0  3.806805  0  0  -0.212712  -0.01566  0  3.767487  0
N  N84  1  0.10088081  0.33242570  0.70316986  1  0  -0.353103  0  2.770642  0  0  -0.329286  0  3.01274  0  0  -0.338817  0  3.030748  0  0  -0.329347  -0.322809  0  3.000601  0
N  N85  1  0.89911546  0.16757222  0.20317471  1  0  -0.353031  0  2.77153  0  0  -0.329213  0  3.013625  0  0  -0.338742  0  3.03163  0  0  -0.329369  -0.32274  0  3.001489  0
N  N86  1  0.89909523  0.66758076  0.29682485  1  0  -0.353092  0  2.77154  0  0  -0.329285  0  3.01364  0  0  -0.338812  0  3.031645  0  0  -0.329492  -0.322809  0  3.001494  0
N  N87  1  0.10088333  0.83241167  0.79682271  1  0  -0.353043  0  2.771568  0  0  -0.329211  0  3.01365  0  0  -0.33874  0  3.031653  0  0  -0.329427  -0.322736  0  3.001516  0
N  N88  1  0.55047556  0.84090202  0.89972578  1  0  -0.370954  0  2.841074  0  0  -0.335708  0  3.075766  0  0  -0.34639  0  3.091973  0  0  -0.317899  -0.328623  0  3.064994  0
N  N89  1  0.44950289  0.65909934  0.39972429  1  0  -0.371014  0  2.841353  0  0  -0.335712  0  3.075989  0  0  -0.346394  0  3.092198  0  0  -0.317936  -0.328627  0  3.06522  0
N  N90  1  0.44952176  0.15909687  0.10027931  1  0  -0.370829  0  2.84176  0  0  -0.335519  0  3.076398  0  0  -0.346198  0  3.092604  0  0  -0.317892  -0.328437  0  3.065626  0
N  N91  1  0.55048774  0.34090333  0.60027178  1  0  -0.37089  0  2.841216  0  0  -0.335666  0  3.075916  0  0  -0.346345  0  3.092118  0  0  -0.317909  -0.328581  0  3.06515  0
O  O92  1  0.76686264  0.10665813  0.02295621  1  0  -0.512282  0  2.099832  0  0  -0.4624  0  2.302217  0  0  -0.481176  0  2.293185  0  0  -0.35265  -0.448858  0  2.307879  0
O  O93  1  0.23315209  0.39335378  0.52294856  1  0  -0.512108  0  2.100096  0  0  -0.462357  0  2.302239  0  0  -0.481115  0  2.293246  0  0  -0.352561  -0.448813  0  2.307901  0
O  O94  1  0.23313342  0.89333202  0.97704934  1  0  -0.512158  0  2.100068  0  0  -0.462363  0  2.302329  0  0  -0.481139  0  2.293294  0  0  -0.352599  -0.448818  0  2.307993  0
O  O95  1  0.76686821  0.60665754  0.47704209  1  0  -0.512327  0  2.099766  0  0  -0.462477  0  2.302095  0  0  -0.481255  0  2.293063  0  0  -0.352715  -0.448934  0  2.307756  0
