# generated using pymatgen
data_KNaH10C4O9
_symmetry_space_group_name_H-M   'P 1'
_cell_length_a   9.20834036
_cell_length_b   9.45441976
_cell_length_c   11.83821624
_cell_angle_alpha   90.00009130
_cell_angle_beta   90.00000658
_cell_angle_gamma   111.23035936
_symmetry_Int_Tables_number   1
_chemical_formula_structural   KNaH10C4O9
_chemical_formula_sum   'K4 Na4 H40 C16 O36'
_cell_volume   960.68266878
_cell_formula_units_Z   4
loop_
 _symmetry_equiv_pos_site_id
 _symmetry_equiv_pos_as_xyz
  1  'x, y, z'
loop_
 _atom_site_type_symbol
 _atom_site_label
 _atom_site_symmetry_multiplicity
 _atom_site_fract_x
 _atom_site_fract_y
 _atom_site_fract_z
 _atom_site_occupancy
 _atom_site_hle17_bader_spin_density
 _atom_site_hle17_ddec_charge
 _atom_site_hle17_ddec_spin_density
 _atom_site_hle17_ddec_sum_bond_order
 _atom_site_hle17_magmom
 _atom_site_hse06_10hf_bader_spin_density
 _atom_site_hse06_10hf_ddec_charge
 _atom_site_hse06_10hf_ddec_spin_density
 _atom_site_hse06_10hf_ddec_sum_bond_order
 _atom_site_hse06_10hf_magmom
 _atom_site_hse06_bader_spin_density
 _atom_site_hse06_ddec_charge
 _atom_site_hse06_ddec_spin_density
 _atom_site_hse06_ddec_sum_bond_order
 _atom_site_hse06_magmom
 _atom_site_pbe_bader_spin_density
 _atom_site_pbe_cm5_charge
 _atom_site_pbe_ddec_charge
 _atom_site_pbe_ddec_spin_density
 _atom_site_pbe_ddec_sum_bond_order
 _atom_site_pbe_magmom
K  K0  1  0.67032501  0.88790310  0.82300634  1  0  0.928384  0  0.43263  0  0  0.873875  0  0.61549  0  0  0.88831  0  0.592765  0  0  0.737581  0.86294  0  0.632062  0
K  K1  1  0.82967926  0.61209376  0.32300263  1  0  0.92839  0  0.43263  0  0  0.873878  0  0.61551  0  0  0.888326  0  0.592771  0  0  0.737584  0.862939  0  0.632076  0
K  K2  1  0.32967398  0.11209510  0.17699212  1  0  0.928381  0  0.432633  0  0  0.873868  0  0.6155  0  0  0.888307  0  0.59276  0  0  0.737588  0.862932  0  0.632072  0
K  K3  1  0.17032016  0.38790557  0.67699667  1  0  0.928388  0  0.432634  0  0  0.873885  0  0.615508  0  0  0.888325  0  0.592777  0  0  0.737583  0.862941  0  0.632077  0
Na  Na4  1  0.02454278  0.19295336  0.98529552  1  0  0.88687  0  0.409104  0  0  0.840168  0  0.565569  0  0  0.850593  0  0.543846  0  0  0.697727  0.832853  0  0.58067  0
Na  Na5  1  0.47545648  0.30704348  0.48529377  1  0  0.88689  0  0.409091  0  0  0.840173  0  0.565592  0  0  0.85061  0  0.543845  0  0  0.697727  0.832856  0  0.580691  0
Na  Na6  1  0.97545815  0.80704711  0.01470463  1  0  0.886874  0  0.409094  0  0  0.84017  0  0.565561  0  0  0.850595  0  0.54383  0  0  0.697732  0.832857  0  0.580658  0
Na  Na7  1  0.52454444  0.69295699  0.51470554  1  0  0.886888  0  0.409092  0  0  0.840165  0  0.565606  0  0  0.850599  0  0.543855  0  0  0.697725  0.832847  0  0.580703  0
H  H8  1  0.67086993  0.63999533  0.05597846  1  0  0.381814  0  0.921366  0  0  0.35876  0  0.989897  0  0  0.369734  0  0.974353  0  0  0.294388  0.351093  0  0.998243  0
H  H9  1  0.82912949  0.86000319  0.55597793  1  0  0.381819  0  0.921276  0  0  0.358682  0  0.98993  0  0  0.369652  0  0.974447  0  0  0.294368  0.351015  0  0.998277  0
H  H10  1  0.32912949  0.36000400  0.94402169  1  0  0.381799  0  0.921283  0  0  0.358662  0  0.989942  0  0  0.369632  0  0.974473  0  0  0.294353  0.350996  0  0.998288  0
H  H11  1  0.17087120  0.13999955  0.44402307  1  0  0.381793  0  0.921309  0  0  0.358687  0  0.98991  0  0  0.369656  0  0.974437  0  0  0.294385  0.351021  0  0.998256  0
H  H12  1  0.96133500  0.04033074  0.65050854  1  0  0.405716  0  0.911333  0  0  0.371342  0  0.982717  0  0  0.382946  0  0.965727  0  0  0.286376  0.363099  0  0.994717  0
H  H13  1  0.53866559  0.45966863  0.15050948  1  0  0.405717  0  0.911331  0  0  0.371348  0  0.98271  0  0  0.382952  0  0.965719  0  0  0.286377  0.363105  0  0.994709  0
H  H14  1  0.03866592  0.95966972  0.34949161  1  0  0.405723  0  0.91132  0  0  0.371347  0  0.982708  0  0  0.382949  0  0.96572  0  0  0.286383  0.363103  0  0.994708  0
H  H15  1  0.46133382  0.54033070  0.84949068  1  0  0.405725  0  0.911319  0  0  0.371356  0  0.982694  0  0  0.382959  0  0.965705  0  0  0.286387  0.363113  0  0.994693  0
H  H16  1  0.43408534  0.91338106  0.62876847  1  0  0.418337  0  0.8832  0  0  0.393308  0  0.938008  0  0  0.403523  0  0.922888  0  0  0.288268  0.385789  0  0.949206  0
H  H17  1  0.06591418  0.58661885  0.12876809  1  0  0.418333  0  0.883208  0  0  0.393305  0  0.938013  0  0  0.403519  0  0.922895  0  0  0.288268  0.385788  0  0.949209  0
H  H18  1  0.56591450  0.08661941  0.37123084  1  0  0.41834  0  0.883196  0  0  0.393313  0  0.937998  0  0  0.403528  0  0.922879  0  0  0.288278  0.385795  0  0.949195  0
H  H19  1  0.93408566  0.41338162  0.87123122  1  0  0.418339  0  0.883198  0  0  0.39331  0  0.938004  0  0  0.403526  0  0.922884  0  0  0.288273  0.385793  0  0.949201  0
H  H20  1  0.62429494  0.75438118  0.20149961  1  0  0.051811  0  0.962443  0  0  0.058193  0  1.032686  0  0  0.060266  0  1.031502  0  0  0.115979  0.056297  0  1.034275  0
H  H21  1  0.87570204  0.74561656  0.70149893  1  0  0.051713  0  0.962467  0  0  0.05809  0  1.032732  0  0  0.060161  0  1.031547  0  0  0.115933  0.056194  0  1.034321  0
H  H22  1  0.37570490  0.24561929  0.79849969  1  0  0.051793  0  0.96245  0  0  0.05817  0  1.032697  0  0  0.060243  0  1.031512  0  0  0.115967  0.056274  0  1.034285  0
H  H23  1  0.12429780  0.25438391  0.29850122  1  0  0.051721  0  0.962483  0  0  0.058096  0  1.032748  0  0  0.060165  0  1.031566  0  0  0.115939  0.0562  0  1.034338  0
H  H24  1  0.86252039  0.10448682  0.57083779  1  0  0.42723  0  0.869496  0  0  0.398805  0  0.927947  0  0  0.408639  0  0.913684  0  0  0.298882  0.391675  0  0.938446  0
H  H25  1  0.63747795  0.39551238  0.07083950  1  0  0.427234  0  0.869498  0  0  0.398804  0  0.927951  0  0  0.408639  0  0.913688  0  0  0.298888  0.391676  0  0.938447  0
H  H26  1  0.13747836  0.89551366  0.42916151  1  0  0.427243  0  0.869481  0  0  0.398823  0  0.927923  0  0  0.408657  0  0.913661  0  0  0.298893  0.391693  0  0.938422  0
H  H27  1  0.36252081  0.60448810  0.92916150  1  0  0.427201  0  0.869545  0  0  0.398766  0  0.928005  0  0  0.4086  0  0.913743  0  0  0.298872  0.391636  0  0.938503  0
H  H28  1  0.70289524  0.12732676  0.02498529  1  0  0.373312  0  0.937515  0  0  0.345142  0  1.014156  0  0  0.35654  0  0.997574  0  0  0.296437  0.337286  0  1.025652  0
H  H29  1  0.79710414  0.37267232  0.52498477  1  0  0.37332  0  0.937488  0  0  0.345154  0  1.014133  0  0  0.356551  0  0.997553  0  0  0.296445  0.337298  0  1.025628  0
H  H30  1  0.29710418  0.87267257  0.97501401  1  0  0.373331  0  0.937459  0  0  0.345172  0  1.014102  0  0  0.356568  0  0.997524  0  0  0.296455  0.337314  0  1.025599  0
H  H31  1  0.20289678  0.62732815  0.47501538  1  0  0.373298  0  0.937506  0  0  0.345124  0  1.014169  0  0  0.35652  0  0.997592  0  0  0.296446  0.33727  0  1.025664  0
H  H32  1  0.31965631  0.75552773  0.66936739  1  0  0.417422  0  0.885842  0  0  0.387301  0  0.949174  0  0  0.398227  0  0.932996  0  0  0.28883  0.379992  0  0.95999  0
H  H33  1  0.18034476  0.74447340  0.16936721  1  0  0.417405  0  0.885858  0  0  0.38728  0  0.949199  0  0  0.398206  0  0.933021  0  0  0.288823  0.379974  0  0.960011  0
H  H34  1  0.68034462  0.24447273  0.33063277  1  0  0.417407  0  0.885855  0  0  0.387281  0  0.949197  0  0  0.398208  0  0.933019  0  0  0.288822  0.379973  0  0.960012  0
H  H35  1  0.81965508  0.25552707  0.83063294  1  0  0.41742  0  0.885847  0  0  0.387298  0  0.949181  0  0  0.398225  0  0.933002  0  0  0.288826  0.379991  0  0.959994  0
H  H36  1  0.67364450  0.03570228  0.19395917  1  0  0.060655  0  0.949222  0  0  0.068143  0  1.015314  0  0  0.070367  0  1.013397  0  0  0.119739  0.06628  0  1.017412  0
H  H37  1  0.82634878  0.46429495  0.69395961  1  0  0.060678  0  0.949292  0  0  0.068171  0  1.01531  0  0  0.070397  0  1.013391  0  0  0.119754  0.066305  0  1.01741  0
H  H38  1  0.32635643  0.96429819  0.80604014  1  0  0.060678  0  0.949279  0  0  0.068169  0  1.015348  0  0  0.070394  0  1.01343  0  0  0.119751  0.066305  0  1.017446  0
H  H39  1  0.17365106  0.53570552  0.30604054  1  0  0.06062  0  0.949245  0  0  0.068091  0  1.015282  0  0  0.070316  0  1.013362  0  0  0.119749  0.066225  0  1.017384  0
H  H40  1  0.17784243  0.41239911  0.14416642  1  0  0.408117  0  0.899793  0  0  0.375942  0  0.968447  0  0  0.386594  0  0.952922  0  0  0.289005  0.368247  0  0.97964  0
H  H41  1  0.32215884  0.08760033  0.64416468  1  0  0.408136  0  0.899801  0  0  0.375956  0  0.968438  0  0  0.386608  0  0.952913  0  0  0.28901  0.368261  0  0.97963  0
H  H42  1  0.82215699  0.58760023  0.85583374  1  0  0.408125  0  0.89978  0  0  0.375948  0  0.96844  0  0  0.386601  0  0.952913  0  0  0.289003  0.368252  0  0.979634  0
H  H43  1  0.67784100  0.91240014  0.35583547  1  0  0.408144  0  0.899784  0  0  0.375963  0  0.968424  0  0  0.386614  0  0.952901  0  0  0.289009  0.368267  0  0.979618  0
H  H44  1  0.00178930  0.36295096  0.18209523  1  0  0.409986  0  0.884381  0  0  0.38037  0  0.954807  0  0  0.390688  0  0.939661  0  0  0.293871  0.372819  0  0.966082  0
H  H45  1  0.49821135  0.13704970  0.68209527  1  0  0.409951  0  0.884398  0  0  0.380326  0  0.954853  0  0  0.390644  0  0.939707  0  0  0.293864  0.372772  0  0.966133  0
H  H46  1  0.99820946  0.63704951  0.81790492  1  0  0.41  0  0.884403  0  0  0.380385  0  0.954797  0  0  0.390703  0  0.939651  0  0  0.293885  0.372834  0  0.966072  0
H  H47  1  0.50178849  0.86295077  0.31790488  1  0  0.409996  0  0.884347  0  0  0.380379  0  0.954789  0  0  0.390696  0  0.939643  0  0  0.293874  0.372828  0  0.966064  0
C  C48  1  0.88260163  0.98625481  0.19669246  1  0  0.639612  0  3.89216  0  0  0.589294  0  4.199742  0  0  0.621233  0  4.192194  0  0  0.201812  0.56756  0  4.204439  0
C  C49  1  0.61740006  0.51374972  0.69669231  1  0  0.640087  0  3.891559  0  0  0.589551  0  4.199417  0  0  0.621493  0  4.191863  0  0  0.201903  0.567813  0  4.20412  0
C  C50  1  0.11739778  0.01374453  0.80330854  1  0  0.639586  0  3.892236  0  0  0.589332  0  4.199723  0  0  0.62127  0  4.192175  0  0  0.2018  0.567597  0  4.204421  0
C  C51  1  0.38259978  0.48625075  0.30330785  1  0  0.640104  0  3.891565  0  0  0.589567  0  4.199383  0  0  0.621508  0  4.191832  0  0  0.201921  0.567829  0  4.204092  0
C  C52  1  0.73328039  0.98246119  0.13686756  1  0  0.06361  0  3.664016  0  0  0.04157  0  3.9107  0  0  0.042921  0  3.917835  0  0  -0.00724  0.040729  0  3.90587  0
C  C53  1  0.76671586  0.51753754  0.63686658  1  0  0.063261  0  3.664261  0  0  0.041432  0  3.910721  0  0  0.042783  0  3.917853  0  0  -0.007291  0.040591  0  3.905897  0
C  C54  1  0.26672054  0.01753928  0.86313175  1  0  0.063588  0  3.664125  0  0  0.041547  0  3.910772  0  0  0.042895  0  3.91791  0  0  -0.007228  0.040703  0  3.905941  0
C  C55  1  0.23328398  0.48246293  0.36313357  1  0  0.063321  0  3.66422  0  0  0.041558  0  3.910557  0  0  0.042912  0  3.917683  0  0  -0.007307  0.040715  0  3.905741  0
C  C56  1  0.46258640  0.80489886  0.09676764  1  0  0.650886  0  3.835316  0  0  0.593702  0  4.148953  0  0  0.626446  0  4.141414  0  0  0.212226  0.571457  0  4.153368  0
C  C57  1  0.03741092  0.69510098  0.59676687  1  0  0.650842  0  3.835146  0  0  0.593626  0  4.148836  0  0  0.626367  0  4.141298  0  0  0.212183  0.571377  0  4.15326  0
C  C58  1  0.53741537  0.19510388  0.90323166  1  0  0.650922  0  3.835183  0  0  0.593674  0  4.1489  0  0  0.626417  0  4.141364  0  0  0.212207  0.571428  0  4.153313  0
C  C59  1  0.96258892  0.30489949  0.40323328  1  0  0.650866  0  3.835124  0  0  0.593647  0  4.148813  0  0  0.62639  0  4.141274  0  0  0.21219  0.571398  0  4.153238  0
C  C60  1  0.62896226  0.81326814  0.12055840  1  0  0.047094  0  3.684591  0  0  0.023634  0  3.937329  0  0  0.024429  0  3.944639  0  0  -0.014418  0.02289  0  3.932485  0
C  C61  1  0.87103681  0.68672940  0.62055680  1  0  0.047277  0  3.684521  0  0  0.023784  0  3.93722  0  0  0.024585  0  3.944526  0  0  -0.014374  0.02304  0  3.932372  0
C  C62  1  0.37103975  0.18673233  0.87944259  1  0  0.047102  0  3.684691  0  0  0.023665  0  3.937413  0  0  0.024461  0  3.944722  0  0  -0.014394  0.022927  0  3.932553  0
C  C63  1  0.12896303  0.31327107  0.37944335  1  0  0.047244  0  3.684552  0  0  0.023743  0  3.937233  0  0  0.024542  0  3.944538  0  0  -0.014373  0.022997  0  3.932393  0
O  O64  1  0.41066497  0.78220605  0.99594532  1  0  -0.643941  0  2.0147  0  0  -0.580281  0  2.235272  0  0  -0.60453  0  2.22311  0  0  -0.330904  -0.563889  0  2.244098  0
O  O65  1  0.08933559  0.71779358  0.49594342  1  0  -0.643915  0  2.014646  0  0  -0.580221  0  2.235201  0  0  -0.604479  0  2.223061  0  0  -0.33086  -0.563826  0  2.244001  0
O  O66  1  0.58933704  0.21779441  0.00405652  1  0  -0.643906  0  2.014594  0  0  -0.580206  0  2.235174  0  0  -0.604458  0  2.223018  0  0  -0.330846  -0.563807  0  2.243977  0
O  O67  1  0.91066382  0.28220576  0.50405673  1  0  -0.643928  0  2.01465  0  0  -0.58024  0  2.235216  0  0  -0.604494  0  2.223064  0  0  -0.330864  -0.563843  0  2.244016  0
O  O68  1  0.07142087  0.39836266  0.11563170  1  0  -0.847474  0  1.805331  0  0  -0.792838  0  1.963889  0  0  -0.811094  0  1.932209  0  0  -0.62488  -0.779668  0  1.987353  0
O  O69  1  0.42857928  0.10163671  0.61562999  1  0  -0.847462  0  1.805364  0  0  -0.7928  0  1.963971  0  0  -0.811059  0  1.93229  0  0  -0.624884  -0.779634  0  1.987436  0
O  O70  1  0.92857963  0.60163667  0.88436846  1  0  -0.8475  0  1.805355  0  0  -0.792855  0  1.963875  0  0  -0.811113  0  1.93219  0  0  -0.624887  -0.779687  0  1.987339  0
O  O71  1  0.57142056  0.89836376  0.38436931  1  0  -0.847509  0  1.80531  0  0  -0.792874  0  1.963897  0  0  -0.811131  0  1.932214  0  0  -0.624889  -0.779708  0  1.987364  0
O  O72  1  0.76526928  0.05898841  0.03181652  1  0  -0.630376  0  2.159389  0  0  -0.585738  0  2.39897  0  0  -0.6006  0  2.382718  0  0  -0.499264  -0.575207  0  2.409705  0
O  O73  1  0.73472751  0.44100956  0.53181608  1  0  -0.63034  0  2.159534  0  0  -0.585748  0  2.399073  0  0  -0.600613  0  2.382823  0  0  -0.499262  -0.575185  0  2.409731  0
O  O74  1  0.23473098  0.94101320  0.96818279  1  0  -0.630356  0  2.159397  0  0  -0.585713  0  2.398958  0  0  -0.60057  0  2.382704  0  0  -0.499267  -0.575181  0  2.409694  0
O  O75  1  0.26527342  0.55899090  0.46818408  1  0  -0.630287  0  2.159539  0  0  -0.585711  0  2.399091  0  0  -0.600575  0  2.382843  0  0  -0.499235  -0.575138  0  2.40973  0
O  O76  1  0.01057232  0.03328810  0.14455220  1  0  -0.718449  0  1.976806  0  0  -0.675975  0  2.230881  0  0  -0.697039  0  2.218202  0  0  -0.453667  -0.661047  0  2.239777  0
O  O77  1  0.48941532  0.46670684  0.64454844  1  0  -0.718667  0  1.976208  0  0  -0.676146  0  2.230452  0  0  -0.697216  0  2.217767  0  0  -0.453721  -0.661221  0  2.239353  0
O  O78  1  0.98942861  0.96671236  0.85544710  1  0  -0.71843  0  1.976839  0  0  -0.67598  0  2.230883  0  0  -0.697044  0  2.218205  0  0  -0.453648  -0.661052  0  2.239779  0
O  O79  1  0.51058452  0.53329363  0.35545087  1  0  -0.718679  0  1.976232  0  0  -0.67616  0  2.230473  0  0  -0.697231  0  2.217789  0  0  -0.453724  -0.661237  0  2.239377  0
O  O80  1  0.43239416  0.81427407  0.65817909  1  0  -0.914704  0  1.755134  0  0  -0.871189  0  1.918057  0  0  -0.88772  0  1.885021  0  0  -0.702356  -0.859527  0  1.941157  0
O  O81  1  0.06760539  0.68572591  0.15817799  1  0  -0.914669  0  1.755133  0  0  -0.871162  0  1.918056  0  0  -0.887692  0  1.885019  0  0  -0.702347  -0.859499  0  1.941152  0
O  O82  1  0.56760526  0.18572527  0.34182107  1  0  -0.914685  0  1.755122  0  0  -0.871168  0  1.918048  0  0  -0.887702  0  1.885013  0  0  -0.702353  -0.859509  0  1.941151  0
O  O83  1  0.93239402  0.31427343  0.84182217  1  0  -0.9147  0  1.755121  0  0  -0.8712  0  1.918044  0  0  -0.887731  0  1.88501  0  0  -0.702361  -0.859537  0  1.941145  0
O  O84  1  0.38965355  0.83009473  0.18131671  1  0  -0.670141  0  1.958372  0  0  -0.608447  0  2.180584  0  0  -0.634782  0  2.17106  0  0  -0.347333  -0.590597  0  2.18729  0
O  O85  1  0.11034669  0.66990416  0.68132014  1  0  -0.670094  0  1.958128  0  0  -0.608405  0  2.180373  0  0  -0.634738  0  2.170845  0  0  -0.347319  -0.590558  0  2.187081  0
O  O86  1  0.61034912  0.16990459  0.81868175  1  0  -0.670176  0  1.958256  0  0  -0.608479  0  2.18051  0  0  -0.634812  0  2.170983  0  0  -0.347357  -0.590629  0  2.187216  0
O  O87  1  0.88965315  0.33009631  0.31868002  1  0  -0.670106  0  1.958133  0  0  -0.608409  0  2.180371  0  0  -0.634744  0  2.170843  0  0  -0.347322  -0.590562  0  2.187081  0
O  O88  1  0.86298317  0.93409815  0.29793656  1  0  -0.672218  0  2.000195  0  0  -0.609659  0  2.222213  0  0  -0.636667  0  2.213027  0  0  -0.344374  -0.589918  0  2.228155  0
O  O89  1  0.63701258  0.56590209  0.79793057  1  0  -0.672305  0  2.000259  0  0  -0.609724  0  2.222405  0  0  -0.636734  0  2.213214  0  0  -0.344415  -0.589989  0  2.228356  0
O  O90  1  0.13701558  0.06590232  0.70206359  1  0  -0.672233  0  2.000261  0  0  -0.609721  0  2.222267  0  0  -0.636731  0  2.213081  0  0  -0.344405  -0.589981  0  2.22821  0
O  O91  1  0.36298726  0.43409838  0.20206874  1  0  -0.672317  0  2.00024  0  0  -0.609743  0  2.222388  0  0  -0.636751  0  2.213197  0  0  -0.344422  -0.590005  0  2.22834  0
O  O92  1  0.85362412  0.01590233  0.61864730  1  0  -0.850354  0  1.829617  0  0  -0.795592  0  1.985496  0  0  -0.815114  0  1.954321  0  0  -0.610617  -0.781306  0  2.006995  0
O  O93  1  0.64637687  0.48409810  0.11864743  1  0  -0.850349  0  1.829644  0  0  -0.795616  0  1.985511  0  0  -0.815141  0  1.954323  0  0  -0.610608  -0.781324  0  2.007001  0
O  O94  1  0.14637572  0.98409814  0.38135285  1  0  -0.850359  0  1.829606  0  0  -0.795617  0  1.985483  0  0  -0.815136  0  1.95431  0  0  -0.610627  -0.78133  0  2.006984  0
O  O95  1  0.35362363  0.51590123  0.88135272  1  0  -0.850332  0  1.82965  0  0  -0.795554  0  1.985542  0  0  -0.815076  0  1.954369  0  0  -0.610608  -0.781265  0  2.007042  0
O  O96  1  0.69632861  0.75085085  0.03539266  1  0  -0.623232  0  2.10527  0  0  -0.579821  0  2.338656  0  0  -0.593898  0  2.322787  0  0  -0.486093  -0.569844  0  2.347202  0
O  O97  1  0.80366971  0.74914762  0.53539029  1  0  -0.62324  0  2.105151  0  0  -0.579762  0  2.338647  0  0  -0.593841  0  2.322817  0  0  -0.48606  -0.569787  0  2.347191  0
O  O98  1  0.30367081  0.24914848  0.96460749  1  0  -0.623225  0  2.105235  0  0  -0.57976  0  2.338721  0  0  -0.593836  0  2.322904  0  0  -0.48607  -0.569782  0  2.347264  0
O  O99  1  0.19633056  0.25085398  0.46460986  1  0  -0.623206  0  2.105204  0  0  -0.579758  0  2.338688  0  0  -0.593838  0  2.32287  0  0  -0.48607  -0.569783  0  2.347234  0
