# generated using pymatgen
data_GdH8C9NO8
_symmetry_space_group_name_H-M   'P 1'
_cell_length_a   8.34832463
_cell_length_b   9.80550016
_cell_length_c   14.82110000
_cell_angle_alpha   90.00000000
_cell_angle_beta   90.00000000
_cell_angle_gamma   96.35412768
_symmetry_Int_Tables_number   1
_chemical_formula_structural   GdH8C9NO8
_chemical_formula_sum   'Gd4 H32 C36 N4 O32'
_cell_volume   1205.79464423
_cell_formula_units_Z   4
loop_
 _symmetry_equiv_pos_site_id
 _symmetry_equiv_pos_as_xyz
  1  'x, y, z'
loop_
 _atom_site_type_symbol
 _atom_site_label
 _atom_site_symmetry_multiplicity
 _atom_site_fract_x
 _atom_site_fract_y
 _atom_site_fract_z
 _atom_site_occupancy
 _atom_site_hle17_bader_spin_density
 _atom_site_hle17_ddec_charge
 _atom_site_hle17_ddec_spin_density
 _atom_site_hle17_ddec_sum_bond_order
 _atom_site_hle17_magmom
 _atom_site_hse06_10hf_bader_spin_density
 _atom_site_hse06_10hf_ddec_charge
 _atom_site_hse06_10hf_ddec_spin_density
 _atom_site_hse06_10hf_ddec_sum_bond_order
 _atom_site_hse06_10hf_magmom
 _atom_site_hse06_bader_spin_density
 _atom_site_hse06_ddec_charge
 _atom_site_hse06_ddec_spin_density
 _atom_site_hse06_ddec_sum_bond_order
 _atom_site_hse06_magmom
 _atom_site_pbe_bader_charge
 _atom_site_pbe_bader_spin_density
 _atom_site_pbe_cm5_charge
 _atom_site_pbe_ddec_charge
 _atom_site_pbe_ddec_spin_density
 _atom_site_pbe_ddec_sum_bond_order
 _atom_site_pbe_magmom
Gd  Gd0  1  0.00494565  0.11256648  0.38732078  1  0  2.199379  0  1.786119  0  0  2.109831  0  2.134873  0  0  2.162039  0  2.084329  0  2.19751  0  1.471475  2.06655  0  2.178919  0
Gd  Gd1  1  0.49505616  0.88743419  0.88732078  1  0  2.199387  0  1.786143  0  0  2.109825  0  2.134916  0  0  2.162063  0  2.084323  0  2.197498  0  1.471484  2.066541  0  2.178961  0
Gd  Gd2  1  0.99505588  0.88743419  0.61267990  1  0  2.199399  0  1.786121  0  0  2.109847  0  2.134874  0  0  2.162075  0  2.084298  0  2.197503  0  1.471483  2.066567  0  2.178916  0
Gd  Gd3  1  0.50494418  0.11256648  0.11267922  1  0  2.199393  0  1.786142  0  0  2.10985  0  2.134873  0  0  2.162065  0  2.084321  0  2.1975  0  1.471497  2.066567  0  2.178918  0
H  H4  1  0.34035388  0.53720149  0.17740721  1  0  0.12422  0  0.93144  0  0  0.1327  0  0.98889  0  0  0.136563  0  0.987191  0  0.127709  0  0.11682  0.129999  0  0.990247  0
H  H5  1  0.15964567  0.46280021  0.67740586  1  0  0.124221  0  0.931395  0  0  0.132698  0  0.988854  0  0  0.13656  0  0.987156  0  0.127692  0  0.116837  0.129996  0  0.990211  0
H  H6  1  0.65964752  0.46279816  0.82259346  1  0  0.12423  0  0.931429  0  0  0.132722  0  0.988864  0  0  0.136586  0  0.987165  0  0.127706  0  0.116837  0.13002  0  0.990221  0
H  H7  1  0.84035586  0.53720046  0.32259279  1  0  0.124227  0  0.931443  0  0  0.1327  0  0.9889  0  0  0.136563  0  0.987202  0  0.127706  0  0.116815  0.129996  0  0.990256  0
H  H8  1  0.28874787  0.76995558  0.23957061  1  0  0.132766  0  0.931447  0  0  0.141432  0  0.990291  0  0  0.145868  0  0.986491  0  0.154421  0  0.120202  0.13803  0  0.993049  0
H  H9  1  0.21125154  0.23004509  0.73956926  1  0  0.132781  0  0.931433  0  0  0.14147  0  0.990251  0  0  0.145904  0  0.986449  0  0.153938  0  0.120209  0.138046  0  0.993035  0
H  H10  1  0.71125353  0.23004406  0.76042939  1  0  0.132762  0  0.931473  0  0  0.141429  0  0.990322  0  0  0.145864  0  0.986522  0  0.154427  0  0.120191  0.138026  0  0.993081  0
H  H11  1  0.78874879  0.76995558  0.26042939  1  0  0.132766  0  0.93146  0  0  0.141432  0  0.990309  0  0  0.145867  0  0.986509  0  0.154427  0  0.120193  0.13803  0  0.993067  0
H  H12  1  0.12689891  0.55932505  0.48400254  1  0  0.132707  0  0.926905  0  0  0.137728  0  0.992464  0  0  0.142991  0  0.986484  0  0.181053  0  0.140655  0.133956  0  0.996995  0
H  H13  1  0.37309904  0.44067357  0.98400186  1  0  0.132657  0  0.926973  0  0  0.137742  0  0.992465  0  0  0.143005  0  0.986484  0  0.181096  0  0.140651  0.13397  0  0.996996  0
H  H14  1  0.87310023  0.44067562  0.51599814  1  0  0.132714  0  0.926898  0  0  0.13777  0  0.992424  0  0  0.143033  0  0.986442  0  0.181083  0  0.140676  0.133999  0  0.996954  0
H  H15  1  0.62689637  0.55932608  0.01599814  1  0  0.132762  0  0.926935  0  0  0.137821  0  0.992448  0  0  0.143084  0  0.986468  0  0.18103  0  0.140702  0.134049  0  0.996979  0
H  H16  1  0.53518448  0.86282531  0.52971844  1  0  0.159019  0  0.91241  0  0  0.18025  0  0.965463  0  0  0.183334  0  0.964096  0  0.086817  0  0.113772  0.177975  0  0.966591  0
H  H17  1  0.96481571  0.13717638  0.02971979  1  0  0.159006  0  0.91241  0  0  0.180239  0  0.965461  0  0  0.183323  0  0.964094  0  0.08681  0  0.113769  0.177963  0  0.96659  0
H  H18  1  0.46481718  0.13717638  0.47028156  1  0  0.159045  0  0.912378  0  0  0.180278  0  0.965427  0  0  0.183362  0  0.964062  0  0.086826  0  0.113784  0.178005  0  0.966553  0
H  H19  1  0.03518449  0.86282326  0.97028156  1  0  0.159037  0  0.912397  0  0  0.18027  0  0.965446  0  0  0.183353  0  0.96408  0  0.086842  0  0.113783  0.177994  0  0.966575  0
H  H20  1  0.62191458  0.72246585  0.48247161  1  0  0.149632  0  0.943903  0  0  0.16609  0  1.003232  0  0  0.16936  0  1.001871  0  0.082973  0  0.101521  0.16375  0  1.004264  0
H  H21  1  0.87808428  0.27753483  0.98247161  1  0  0.14962  0  0.943915  0  0  0.166083  0  1.003239  0  0  0.169352  0  1.001879  0  0.08296  0  0.101519  0.163743  0  1.00427  0
H  H22  1  0.37808576  0.27753483  0.51752974  1  0  0.149611  0  0.943916  0  0  0.166085  0  1.003228  0  0  0.169354  0  1.001868  0  0.082976  0  0.101521  0.163745  0  1.004261  0
H  H23  1  0.12191472  0.72246482  0.01753041  1  0  0.14964  0  0.94389  0  0  0.166094  0  1.003223  0  0  0.169363  0  1.001862  0  0.082967  0  0.101518  0.163753  0  1.004256  0
H  H24  1  0.48599641  0.81365681  0.41648933  1  0  0.129708  0  0.975419  0  0  0.148487  0  1.036021  0  0  0.14952  0  1.037295  0  0.069712  0  0.094819  0.14763  0  1.035293  0
H  H25  1  0.01400420  0.18634386  0.91649000  1  0  0.129718  0  0.975411  0  0  0.148476  0  1.036039  0  0  0.149511  0  1.037309  0  0.069714  0  0.094795  0.147618  0  1.035314  0
H  H26  1  0.51400499  0.18634283  0.58351135  1  0  0.129679  0  0.975431  0  0  0.148458  0  1.036037  0  0  0.14949  0  1.037312  0  0.069688  0  0.094803  0.1476  0  1.035311  0
H  H27  1  0.98599614  0.81365681  0.08351135  1  0  0.129679  0  0.975422  0  0  0.148456  0  1.03603  0  0  0.149489  0  1.037303  0  0.069701  0  0.094803  0.147599  0  1.035303  0
H  H28  1  0.85932626  0.02693001  0.21364136  1  0  0.44345  0  0.84799  0  0  0.413142  0  0.911185  0  0  0.423441  0  0.89598  0  0.643028  0  0.307831  0.405478  0  0.922578  0
H  H29  1  0.64067472  0.97306861  0.71364069  1  0  0.443408  0  0.84805  0  0  0.413101  0  0.911244  0  0  0.423401  0  0.896039  0  0.64332  0  0.307818  0.405437  0  0.922638  0
H  H30  1  0.14067380  0.97306861  0.78635931  1  0  0.443429  0  0.848017  0  0  0.413124  0  0.91121  0  0  0.423422  0  0.896006  0  0.643033  0  0.307836  0.40546  0  0.922602  0
H  H31  1  0.35932548  0.02693103  0.28635931  1  0  0.443405  0  0.848049  0  0  0.4131  0  0.911243  0  0  0.423398  0  0.896038  0  0.643002  0  0.307823  0.405437  0  0.922634  0
H  H32  1  0.04537892  0.00191478  0.19992578  1  0  0.443942  0  0.849884  0  0  0.414327  0  0.910818  0  0  0.425366  0  0.894774  0  0.64848  0  0.299756  0.406396  0  0.92231  0
H  H33  1  0.45462156  0.99808487  0.69992511  1  0  0.443925  0  0.849911  0  0  0.414304  0  0.910852  0  0  0.425344  0  0.894808  0  0.648481  0  0.299748  0.406373  0  0.922346  0
H  H34  1  0.95462128  0.99808487  0.80007557  1  0  0.443944  0  0.849904  0  0  0.41433  0  0.910832  0  0  0.425369  0  0.894789  0  0.648837  0  0.299755  0.406399  0  0.922326  0
H  H35  1  0.54537864  0.00191478  0.30007489  1  0  0.443931  0  0.849899  0  0  0.414317  0  0.910831  0  0  0.425356  0  0.894787  0  0.648477  0  0.299749  0.406386  0  0.922324  0
C  C36  1  0.29536621  0.29064786  0.25874800  1  0  0.69461  0  3.877137  0  0  0.648352  0  4.174327  0  0  0.683302  0  4.161392  0  1.641938  0  0.240183  0.624264  0  4.182065  0
C  C37  1  0.20463427  0.70935178  0.75874800  1  0  0.694645  0  3.877156  0  0  0.64839  0  4.174349  0  0  0.68334  0  4.161416  0  1.641943  0  0.240195  0.624302  0  4.182088  0
C  C38  1  0.70463386  0.70935076  0.74125267  1  0  0.694589  0  3.877197  0  0  0.648335  0  4.174379  0  0  0.683285  0  4.161446  0  1.641944  0  0.240167  0.624246  0  4.182117  0
C  C39  1  0.79536607  0.29064889  0.24125200  1  0  0.694531  0  3.877336  0  0  0.648293  0  4.174538  0  0  0.683245  0  4.161602  0  1.641932  0  0.240143  0.624204  0  4.182278  0
C  C40  1  0.25684220  0.42732144  0.29458610  1  0  -0.009094  0  3.574792  0  0  -0.014919  0  3.821645  0  0  -0.012867  0  3.835322  0  0.350329  0  0.111249  -0.014863  0  3.811578  0
C  C41  1  0.24315828  0.57267821  0.79458610  1  0  -0.009156  0  3.574775  0  0  -0.014992  0  3.821637  0  0  -0.012939  0  3.835313  0  0.35026  0  0.111242  -0.014934  0  3.811571  0
C  C42  1  0.74315787  0.57267718  0.70541390  1  0  -0.009119  0  3.574845  0  0  -0.014949  0  3.821699  0  0  -0.012897  0  3.835375  0  0.349937  0  0.111261  -0.014891  0  3.811632  0
C  C43  1  0.75684552  0.42732144  0.20541255  1  0  -0.009009  0  3.574869  0  0  -0.014939  0  3.82184  0  0  -0.012889  0  3.835518  0  0.349806  0  0.11124  -0.01488  0  3.811771  0
C  C44  1  0.28998758  0.54796979  0.24448455  1  0  -0.088636  0  3.722351  0  0  -0.110604  0  3.981267  0  0  -0.114564  0  3.999744  0  0.012291  0  -0.068951  -0.108248  0  3.967721  0
C  C45  1  0.21000810  0.45202985  0.74448523  1  0  -0.088547  0  3.722303  0  0  -0.110516  0  3.981238  0  0  -0.114478  0  3.999718  0  0.012346  0  -0.06895  -0.10816  0  3.967686  0
C  C46  1  0.71000889  0.45202883  0.75551477  1  0  -0.088599  0  3.722363  0  0  -0.110572  0  3.981278  0  0  -0.114533  0  3.999758  0  0.012566  0  -0.068961  -0.108215  0  3.967731  0
C  C47  1  0.78999223  0.54797082  0.25551410  1  0  -0.088633  0  3.722419  0  0  -0.110556  0  3.981351  0  0  -0.114516  0  3.999833  0  0.012266  0  -0.06892  -0.108197  0  3.967801  0
C  C48  1  0.26177031  0.67564413  0.27825060  1  0  -0.034103  0  3.665204  0  0  -0.068824  0  3.924115  0  0  -0.063991  0  3.937811  0  -0.074095  0  -0.065645  -0.069937  0  3.913427  0
C  C49  1  0.23823030  0.32435655  0.77824925  1  0  -0.034151  0  3.665252  0  0  -0.068899  0  3.924139  0  0  -0.064066  0  3.937836  0  -0.073574  0  -0.06567  -0.069997  0  3.913463  0
C  C50  1  0.73823229  0.32435552  0.72174940  1  0  -0.034228  0  3.665201  0  0  -0.068961  0  3.924128  0  0  -0.06413  0  3.937827  0  -0.073939  0  -0.065691  -0.070074  0  3.913441  0
C  C51  1  0.76176764  0.67564413  0.22174872  1  0  -0.034188  0  3.665207  0  0  -0.068918  0  3.924122  0  0  -0.064086  0  3.93782  0  -0.073933  0  -0.065681  -0.070031  0  3.913434  0
C  C52  1  0.20368383  0.68105804  0.36670018  1  0  -0.067877  0  3.738037  0  0  -0.044202  0  3.976295  0  0  -0.051437  0  3.994941  0  0.106134  0  0.001899  -0.040551  0  3.965051  0
C  C53  1  0.29631439  0.31894263  0.86670018  1  0  -0.06793  0  3.738066  0  0  -0.044207  0  3.976274  0  0  -0.051442  0  3.994919  0  0.106158  0  0.001899  -0.040558  0  3.965027  0
C  C54  1  0.79631278  0.31894161  0.63329847  1  0  -0.067772  0  3.737899  0  0  -0.044075  0  3.976133  0  0  -0.051309  0  3.99478  0  0.106121  0  0.00194  -0.040426  0  3.964889  0
C  C55  1  0.70368595  0.68105804  0.13329847  1  0  -0.067789  0  3.737962  0  0  -0.044108  0  3.976191  0  0  -0.051343  0  3.994837  0  0.106142  0  0.001912  -0.04046  0  3.964949  0
C  C56  1  0.16997735  0.81053324  0.41551099  1  0  0.70014  0  3.88272  0  0  0.654019  0  4.177769  0  0  0.688095  0  4.16881  0  1.640362  0  0.234734  0.630498  0  4.183467  0
C  C57  1  0.33002193  0.18946640  0.91551099  1  0  0.700098  0  3.882756  0  0  0.653953  0  4.17782  0  0  0.688029  0  4.168861  0  1.640398  0  0.234701  0.630435  0  4.183518  0
C  C58  1  0.83002179  0.18946743  0.58448833  1  0  0.700118  0  3.882793  0  0  0.653977  0  4.177869  0  0  0.688053  0  4.168911  0  1.640307  0  0.23473  0.630458  0  4.183566  0
C  C59  1  0.66997721  0.81053427  0.08448833  1  0  0.70005  0  3.882814  0  0  0.65392  0  4.17788  0  0  0.687997  0  4.168921  0  1.640331  0  0.234678  0.630401  0  4.183577  0
C  C60  1  0.17178852  0.56059952  0.41522019  1  0  0.008021  0  3.555904  0  0  -0.045114  0  3.814947  0  0  -0.037734  0  3.824339  0  0.310731  0  0.051261  -0.051206  0  3.810753  0
C  C61  1  0.32820850  0.43940115  0.91522087  1  0  0.00805  0  3.555846  0  0  -0.045156  0  3.814861  0  0  -0.037775  0  3.824253  0  0.310689  0  0.051248  -0.051248  0  3.810669  0
C  C62  1  0.82820942  0.43940115  0.58477913  1  0  0.007969  0  3.555874  0  0  -0.045209  0  3.814915  0  0  -0.037829  0  3.824306  0  0.310685  0  0.051209  -0.051302  0  3.810723  0
C  C63  1  0.67178811  0.56059849  0.08477846  1  0  0.007903  0  3.556  0  0  -0.04525  0  3.81501  0  0  -0.037869  0  3.8244  0  0.310688  0  0.051214  -0.051342  0  3.810818  0
C  C64  1  0.72265201  0.91874992  0.43447113  1  0  0.785624  0  3.794988  0  0  0.746403  0  4.092149  0  0  0.780409  0  4.082648  0  1.521102  0  0.222895  0.723151  0  4.097471  0
C  C65  1  0.77734805  0.08125075  0.93447113  1  0  0.785641  0  3.794952  0  0  0.746396  0  4.092146  0  0  0.780403  0  4.082647  0  1.521105  0  0.222887  0.723145  0  4.09747  0
C  C66  1  0.27734833  0.08125075  0.56552887  1  0  0.785718  0  3.794803  0  0  0.746403  0  4.092101  0  0  0.780411  0  4.0826  0  1.521179  0  0.222914  0.723152  0  4.097423  0
C  C67  1  0.22265215  0.91874889  0.06552887  1  0  0.785633  0  3.794947  0  0  0.746393  0  4.092138  0  0  0.7804  0  4.082635  0  1.521019  0  0.222894  0.723141  0  4.097462  0
C  C68  1  0.58213778  0.82265913  0.46682230  1  0  -0.45509  0  3.628327  0  0  -0.529149  0  3.8563  0  0  -0.536664  0  3.85862  0  -0.098785  0  -0.240217  -0.523857  0  3.854784  0
C  C69  1  0.91786227  0.17734154  0.96682230  1  0  -0.45509  0  3.628324  0  0  -0.529129  0  3.856306  0  0  -0.536644  0  3.858621  0  -0.098777  0  -0.240195  -0.523837  0  3.854792  0
C  C70  1  0.41786375  0.17734154  0.53317837  1  0  -0.45511  0  3.628276  0  0  -0.529157  0  3.856275  0  0  -0.536671  0  3.858594  0  -0.098715  0  -0.24021  -0.523865  0  3.854759  0
C  C71  1  0.08213793  0.82265811  0.03317837  1  0  -0.455105  0  3.628294  0  0  -0.529154  0  3.856275  0  0  -0.536667  0  3.85859  0  -0.09872  0  -0.240211  -0.523861  0  3.854761  0
N  N72  1  0.19307937  0.43586097  0.38017286  1  0  0.284445  0  3.704878  0  0  0.335513  0  3.969316  0  0  0.3372  0  3.990741  0  -0.614444  0  -0.094413  0.333599  0  3.95525  0
N  N73  1  0.30692124  0.56413970  0.88017219  1  0  0.284564  0  3.704668  0  0  0.33564  0  3.969115  0  0  0.337327  0  3.990539  0  -0.614454  0  -0.094346  0.333725  0  3.955049  0
N  N74  1  0.80692097  0.56413970  0.61982781  1  0  0.284593  0  3.704846  0  0  0.335671  0  3.969281  0  0  0.33736  0  3.990706  0  -0.614425  0  -0.094311  0.333756  0  3.955213  0
N  N75  1  0.69307776  0.43585995  0.11982714  1  0  0.284494  0  3.70484  0  0  0.335588  0  3.969299  0  0  0.337278  0  3.990723  0  -0.613979  0  -0.094377  0.333673  0  3.955233  0
O  O76  1  0.15440054  0.32980432  0.43248679  1  0  -0.570461  0  1.863291  0  0  -0.547362  0  2.107397  0  0  -0.571345  0  2.108535  0  -0.619186  0  -0.27307  -0.530027  0  2.10645  0
O  O77  1  0.34560113  0.67019532  0.93248747  1  0  -0.57052  0  1.863211  0  0  -0.547418  0  2.107332  0  0  -0.571405  0  2.108471  0  -0.619173  0  -0.273101  -0.530083  0  2.106387  0
O  O78  1  0.84559966  0.67019532  0.56751388  1  0  -0.570551  0  1.863376  0  0  -0.547443  0  2.107485  0  0  -0.571428  0  2.108624  0  -0.619169  0  -0.273129  -0.530109  0  2.106538  0
O  O79  1  0.65439907  0.32980432  0.06751253  1  0  -0.570456  0  1.863291  0  0  -0.54737  0  2.107413  0  0  -0.571354  0  2.108551  0  -0.619192  0  -0.273081  -0.530036  0  2.106467  0
O  O80  1  0.22879921  0.18106232  0.29394242  1  0  -0.704103  0  2.134546  0  0  -0.658529  0  2.381047  0  0  -0.68179  0  2.368438  0  -1.183031  0  -0.372517  -0.640459  0  2.389117  0
O  O81  1  0.27120021  0.81893835  0.79394309  1  0  -0.704164  0  2.134582  0  0  -0.658573  0  2.381051  0  0  -0.681838  0  2.368439  0  -1.183036  0  -0.372528  -0.640505  0  2.389122  0
O  O82  1  0.77120113  0.81893835  0.70605825  1  0  -0.704138  0  2.134494  0  0  -0.658569  0  2.380998  0  0  -0.681834  0  2.36839  0  -1.183011  0  -0.372539  -0.640499  0  2.389066  0
O  O83  1  0.72879999  0.18106129  0.20605623  1  0  -0.704178  0  2.134646  0  0  -0.658561  0  2.381079  0  0  -0.681824  0  2.36847  0  -1.183028  0  -0.372526  -0.640491  0  2.389149  0
O  O84  1  0.39631808  0.29577035  0.19461983  1  0  -0.685746  0  2.019753  0  0  -0.652309  0  2.265151  0  0  -0.676871  0  2.255919  0  -1.158661  0  -0.367146  -0.635006  0  2.271364  0
O  O85  1  0.10368253  0.70423032  0.69462051  1  0  -0.685729  0  2.019769  0  0  -0.652295  0  2.265167  0  0  -0.676858  0  2.255933  0  -1.15865  0  -0.367136  -0.634992  0  2.27138  0
O  O86  1  0.60368226  0.70423032  0.80537949  1  0  -0.685705  0  2.019834  0  0  -0.652269  0  2.265235  0  0  -0.676834  0  2.256003  0  -1.158668  0  -0.367124  -0.634966  0  2.271448  0
O  O87  1  0.89631913  0.29577138  0.30537814  1  0  -0.685694  0  2.019839  0  0  -0.652262  0  2.265235  0  0  -0.676822  0  2.256002  0  -1.158646  0  -0.367116  -0.634958  0  2.271447  0
O  O88  1  0.16483109  0.91869451  0.36949214  1  0  -0.675223  0  2.02618  0  0  -0.630947  0  2.268478  0  0  -0.656002  0  2.25934  0  -1.189432  0  -0.356161  -0.612547  0  2.274958  0
O  O89  1  0.33517059  0.08130514  0.86949079  1  0  -0.675217  0  2.026181  0  0  -0.630943  0  2.268506  0  0  -0.656004  0  2.25937  0  -1.189472  0  -0.356143  -0.612521  0  2.274936  0
O  O90  1  0.83517031  0.08130514  0.63050786  1  0  -0.675249  0  2.026214  0  0  -0.630965  0  2.268534  0  0  -0.656023  0  2.259398  0  -1.189445  0  -0.35617  -0.612552  0  2.274985  0
O  O91  1  0.66482855  0.91869553  0.13050853  1  0  -0.675186  0  2.026213  0  0  -0.630909  0  2.268516  0  0  -0.655966  0  2.259381  0  -1.18947  0  -0.356107  -0.612493  0  2.274961  0
O  O92  1  0.14871771  0.79658903  0.49979691  1  0  -0.707288  0  2.093104  0  0  -0.671078  0  2.344296  0  0  -0.696442  0  2.33562  0  -1.17956  0  -0.388251  -0.652546  0  2.34955  0
O  O93  1  0.35128143  0.20340959  0.99979624  1  0  -0.707233  0  2.093111  0  0  -0.671039  0  2.344346  0  0  -0.6964  0  2.335668  0  -1.179587  0  -0.388242  -0.652507  0  2.349594  0
O  O94  1  0.85128142  0.20341164  0.50020376  1  0  -0.70726  0  2.093154  0  0  -0.671058  0  2.344374  0  0  -0.696417  0  2.335695  0  -1.179555  0  -0.38823  -0.652528  0  2.349626  0
O  O95  1  0.64871863  0.79658903  0.00020309  1  0  -0.707249  0  2.093148  0  0  -0.67105  0  2.34437  0  0  -0.696416  0  2.335692  0  -1.179538  0  -0.388252  -0.65252  0  2.349621  0
O  O96  1  0.70749399  0.00487416  0.37191909  1  0  -0.666316  0  1.975421  0  0  -0.611802  0  2.194433  0  0  -0.637676  0  2.185341  0  -1.177035  0  -0.324093  -0.593646  0  2.200442  0
O  O97  1  0.79250727  0.99512651  0.87191909  1  0  -0.666307  0  1.975396  0  0  -0.611784  0  2.194422  0  0  -0.637661  0  2.185329  0  -1.177042  0  -0.324076  -0.593627  0  2.200432  0
O  O98  1  0.29250635  0.99512651  0.62808091  1  0  -0.666346  0  1.975375  0  0  -0.611789  0  2.194426  0  0  -0.637665  0  2.185329  0  -1.177029  0  -0.324089  -0.593633  0  2.200435  0
O  O99  1  0.20749413  0.00487314  0.12808091  1  0  -0.666303  0  1.975414  0  0  -0.61178  0  2.194439  0  0  -0.637656  0  2.185348  0  -1.177021  0  -0.324081  -0.593623  0  2.200449  0
O  O100  1  0.95499771  0.99912845  0.24425717  1  0  -0.909799  0  1.905264  0  0  -0.874805  0  2.098801  0  0  -0.894295  0  2.067031  0  -1.270731  0  -0.644322  -0.860012  0  2.121422  0
O  O101  1  0.54500341  0.00087119  0.74425717  1  0  -0.909753  0  1.905324  0  0  -0.874753  0  2.098868  0  0  -0.894242  0  2.067081  0  -1.271004  0  -0.644313  -0.859963  0  2.121494  0
O  O102  1  0.04500249  0.00087119  0.75574350  1  0  -0.909805  0  1.905313  0  0  -0.874807  0  2.098841  0  0  -0.894304  0  2.067081  0  -1.271059  0  -0.644342  -0.860015  0  2.12146  0
O  O103  1  0.45499692  0.99912948  0.25574350  1  0  -0.909758  0  1.90533  0  0  -0.874763  0  2.098859  0  0  -0.894258  0  2.067096  0  -1.270656  0  -0.644315  -0.859972  0  2.121483  0
O  O104  1  0.86189642  0.91494191  0.47104466  1  0  -0.813902  0  2.15664  0  0  -0.768609  0  2.408708  0  0  -0.795792  0  2.398941  0  -1.209667  0  -0.434283  -0.748357  0  2.414528  0
O  O105  1  0.63810470  0.08505773  0.97104466  1  0  -0.813915  0  2.156679  0  0  -0.768611  0  2.408752  0  0  -0.795796  0  2.398985  0  -1.209666  0  -0.434288  -0.748363  0  2.414575  0
O  O106  1  0.13810511  0.08505876  0.52895602  1  0  -0.813937  0  2.156618  0  0  -0.768626  0  2.408758  0  0  -0.795803  0  2.398978  0  -1.209768  0  -0.434326  -0.748375  0  2.41458  0
O  O107  1  0.36189536  0.91494089  0.02895534  1  0  -0.813917  0  2.156657  0  0  -0.76862  0  2.408737  0  0  -0.795807  0  2.398973  0  -1.209625  0  -0.434306  -0.748372  0  2.414562  0
