# generated using pymatgen
data_Zn2H12C14N2O11
_symmetry_space_group_name_H-M   'P 1'
_cell_length_a   7.78424085
_cell_length_b   8.01266499
_cell_length_c   14.22667136
_cell_angle_alpha   91.78475027
_cell_angle_beta   97.91229109
_cell_angle_gamma   113.02643272
_symmetry_Int_Tables_number   1
_chemical_formula_structural   Zn2H12C14N2O11
_chemical_formula_sum   'Zn4 H24 C28 N4 O22'
_cell_volume   805.35496023
_cell_formula_units_Z   2
loop_
 _symmetry_equiv_pos_site_id
 _symmetry_equiv_pos_as_xyz
  1  'x, y, z'
loop_
 _atom_site_type_symbol
 _atom_site_label
 _atom_site_symmetry_multiplicity
 _atom_site_fract_x
 _atom_site_fract_y
 _atom_site_fract_z
 _atom_site_occupancy
 _atom_site_hle17_bader_spin_density
 _atom_site_hle17_ddec_charge
 _atom_site_hle17_ddec_spin_density
 _atom_site_hle17_ddec_sum_bond_order
 _atom_site_hle17_magmom
 _atom_site_hse06_10hf_bader_spin_density
 _atom_site_hse06_10hf_ddec_charge
 _atom_site_hse06_10hf_ddec_spin_density
 _atom_site_hse06_10hf_ddec_sum_bond_order
 _atom_site_hse06_10hf_magmom
 _atom_site_hse06_bader_spin_density
 _atom_site_hse06_ddec_charge
 _atom_site_hse06_ddec_spin_density
 _atom_site_hse06_ddec_sum_bond_order
 _atom_site_hse06_magmom
 _atom_site_pbe_bader_spin_density
 _atom_site_pbe_cm5_charge
 _atom_site_pbe_ddec_charge
 _atom_site_pbe_ddec_spin_density
 _atom_site_pbe_ddec_sum_bond_order
 _atom_site_pbe_magmom
Zn  Zn0  1  0.93864958  0.05685506  0.79269758  1  0  1.127199  0  1.737653  0  0  0.943328  0  2.202179  0  0  0.992567  0  2.142545  0  0  0.693113  0.908688  0  2.243346  0
Zn  Zn1  1  0.06135049  0.94314512  0.20730223  1  0  1.127173  0  1.737675  0  0  0.943304  0  2.202178  0  0  0.992548  0  2.142547  0  0  0.693099  0.908666  0  2.243343  0
Zn  Zn2  1  0.52950921  0.17235509  0.28964924  1  0  1.164134  0  1.724131  0  0  0.991196  0  2.175318  0  0  1.037624  0  2.118111  0  0  0.691756  0.958479  0  2.21471  0
Zn  Zn3  1  0.47048843  0.82764236  0.71035034  1  0  1.164134  0  1.724126  0  0  0.991182  0  2.175317  0  0  1.037607  0  2.118114  0  0  0.691754  0.958465  0  2.214709  0
H  H4  1  0.12420818  0.97970599  0.65818609  1  0  0.442158  0  0.857009  0  0  0.409154  0  0.921594  0  0  0.421011  0  0.904553  0  0  0.295226  0.400781  0  0.933611  0
H  H5  1  0.87579262  0.02029282  0.34181304  1  0  0.442136  0  0.85703  0  0  0.409129  0  0.921619  0  0  0.420986  0  0.904578  0  0  0.295223  0.400756  0  0.933636  0
H  H6  1  0.98647729  0.07773019  0.61472138  1  0  0.445814  0  0.85439  0  0  0.412621  0  0.921883  0  0  0.422965  0  0.90686  0  0  0.302154  0.405293  0  0.932532  0
H  H7  1  0.01352350  0.92226861  0.38527706  1  0  0.445793  0  0.854422  0  0  0.412597  0  0.921921  0  0  0.422942  0  0.906897  0  0  0.302158  0.405269  0  0.932571  0
H  H8  1  0.84014338  0.50610692  0.28008904  1  0  0.447659  0  0.844153  0  0  0.416599  0  0.907219  0  0  0.427541  0  0.891079  0  0  0.296486  0.408834  0  0.91867  0
H  H9  1  0.15985556  0.49389055  0.71991205  1  0  0.447641  0  0.844174  0  0  0.416571  0  0.907261  0  0  0.427514  0  0.891119  0  0  0.296456  0.408804  0  0.918713  0
H  H10  1  0.62949962  0.48893732  0.22642365  1  0  0.424394  0  0.877579  0  0  0.394973  0  0.938292  0  0  0.406198  0  0.921792  0  0  0.293625  0.387084  0  0.949862  0
H  H11  1  0.37049932  0.51106014  0.77357744  1  0  0.424448  0  0.877505  0  0  0.394987  0  0.938286  0  0  0.406215  0  0.921786  0  0  0.293617  0.387097  0  0.949858  0
H  H12  1  0.49549507  0.09016176  0.10574077  1  0  0.440445  0  0.858705  0  0  0.407524  0  0.926379  0  0  0.417547  0  0.911734  0  0  0.302196  0.400447  0  0.936716  0
H  H13  1  0.50450629  0.90983841  0.89425843  1  0  0.440464  0  0.858679  0  0  0.407536  0  0.926364  0  0  0.417558  0  0.91172  0  0  0.302217  0.40046  0  0.9367  0
H  H14  1  0.64636411  0.00967225  0.15332025  1  0  0.442889  0  0.853791  0  0  0.410151  0  0.917818  0  0  0.421749  0  0.901161  0  0  0.296164  0.401951  0  0.92957  0
H  H15  1  0.35363725  0.99032793  0.84668035  1  0  0.442906  0  0.85377  0  0  0.410176  0  0.917782  0  0  0.421772  0  0.901127  0  0  0.296172  0.401976  0  0.929534  0
H  H16  1  0.70185608  0.23651509  0.88353628  1  0  0.101042  0  0.938728  0  0  0.106663  0  1.003206  0  0  0.110338  0  0.999359  0  0  0.123585  0.103906  0  1.006145  0
H  H17  1  0.29814269  0.76348508  0.11646272  1  0  0.100967  0  0.938787  0  0  0.106591  0  1.003265  0  0  0.110267  0  0.999418  0  0  0.123567  0.10384  0  1.00619  0
H  H18  1  0.70983299  0.36277747  0.04748646  1  0  0.124347  0  0.937926  0  0  0.133379  0  0.994709  0  0  0.137065  0  0.993043  0  0  0.116335  0.130691  0  0.996127  0
H  H19  1  0.29016708  0.63722270  0.95251264  1  0  0.124332  0  0.937935  0  0  0.133378  0  0.994696  0  0  0.137064  0  0.993031  0  0  0.116349  0.130685  0  0.996121  0
H  H20  1  0.98621166  0.40109953  0.17483982  1  0  0.117921  0  0.956158  0  0  0.127845  0  1.015508  0  0  0.131534  0  1.012532  0  0  0.113389  0.125076  0  1.017823  0
H  H21  1  0.01378727  0.59889792  0.82515986  1  0  0.117924  0  0.956187  0  0  0.127833  0  1.015548  0  0  0.131519  0  1.012578  0  0  0.113394  0.125065  0  1.017864  0
H  H22  1  0.24176686  0.27481750  0.39033430  1  0  0.089829  0  0.929158  0  0  0.097502  0  0.992625  0  0  0.100911  0  0.989108  0  0  0.120664  0.094932  0  0.995344  0
H  H23  1  0.75823079  0.72517997  0.60966739  1  0  0.089818  0  0.929158  0  0  0.097498  0  0.99262  0  0  0.100906  0  0.989103  0  0  0.120677  0.094928  0  0.995339  0
H  H24  1  0.22193923  0.34758930  0.56048309  1  0  0.124647  0  0.946006  0  0  0.132986  0  1.003891  0  0  0.136593  0  1.002137  0  0  0.114934  0.130374  0  1.005311  0
H  H25  1  0.77806546  0.65240952  0.43951845  1  0  0.124633  0  0.945972  0  0  0.132955  0  1.003879  0  0  0.136566  0  1.002114  0  0  0.114928  0.130343  0  1.0053  0
H  H26  1  0.47066833  0.33870772  0.68936086  1  0  0.112837  0  0.945044  0  0  0.124087  0  1.002193  0  0  0.127411  0  0.999771  0  0  0.113848  0.121594  0  1.004105  0
H  H27  1  0.52933805  0.66129518  0.31064017  1  0  0.112851  0  0.945047  0  0  0.124094  0  1.002195  0  0  0.127415  0  0.999784  0  0  0.113842  0.1216  0  1.004109  0
C  C28  1  0.81751422  0.25437355  0.94072083  1  0  0.156826  0  3.657253  0  0  0.119505  0  3.920801  0  0  0.128394  0  3.934784  0  0  0.057118  0.11355  0  3.911501  0
C  C29  1  0.18248269  0.74562526  0.05927801  1  0  0.156945  0  3.657232  0  0  0.119605  0  3.920788  0  0  0.128494  0  3.934771  0  0  0.057171  0.113651  0  3.911489  0
C  C30  1  0.82403023  0.32517582  0.03255373  1  0  -0.087268  0  3.681646  0  0  -0.104836  0  3.943262  0  0  -0.109894  0  3.961333  0  0  -0.071908  -0.101712  0  3.93136  0
C  C31  1  0.17596780  0.67482570  0.96744454  1  0  -0.087241  0  3.681611  0  0  -0.104801  0  3.943209  0  0  -0.109856  0  3.961272  0  0  -0.071911  -0.101676  0  3.931313  0
C  C32  1  0.97568959  0.34509972  0.10243669  1  0  -0.015366  0  3.660601  0  0  -0.043813  0  3.91134  0  0  -0.040074  0  3.926797  0  0  -0.058751  -0.046108  0  3.901065  0
C  C33  1  0.02430731  0.65489908  0.89756215  1  0  -0.015407  0  3.660603  0  0  -0.043864  0  3.911385  0  0  -0.040123  0  3.926839  0  0  -0.058773  -0.046154  0  3.901095  0
C  C34  1  0.11931191  0.29505912  0.07897879  1  0  -0.09962  0  3.717995  0  0  -0.084326  0  3.960369  0  0  -0.092219  0  3.980123  0  0  -0.000157  -0.079442  0  3.947445  0
C  C35  1  0.88068742  0.70494241  0.92102028  1  0  -0.099529  0  3.717905  0  0  -0.084245  0  3.960263  0  0  -0.092139  0  3.980015  0  0  -0.000126  -0.07936  0  3.947342  0
C  C36  1  0.10057519  0.22008880  0.98621579  1  0  0.062958  0  3.747315  0  0  0.055723  0  3.991681  0  0  0.057161  0  4.011912  0  0  0.106727  0.054639  0  3.978223  0
C  C37  1  0.89942731  0.77991409  0.01378424  1  0  0.062848  0  3.747354  0  0  0.055681  0  3.991658  0  0  0.057117  0  4.01189  0  0  0.106737  0.0546  0  3.978202  0
C  C38  1  0.24019682  0.14996562  0.95540598  1  0  0.629687  0  3.915858  0  0  0.572428  0  4.218563  0  0  0.605555  0  4.21191  0  0  0.213849  0.549996  0  4.222297  0
C  C39  1  0.75980867  0.85004136  0.04459364  1  0  0.629912  0  3.915815  0  0  0.572576  0  4.218605  0  0  0.605705  0  4.211946  0  0  0.213822  0.550133  0  4.222359  0
C  C40  1  0.28966938  0.32839950  0.15307544  1  0  0.6966  0  3.858776  0  0  0.635271  0  4.165913  0  0  0.671652  0  4.155648  0  0  0.226503  0.610296  0  4.172392  0
C  C41  1  0.71032939  0.67160067  0.84692427  1  0  0.69657  0  3.858707  0  0  0.635203  0  4.165884  0  0  0.671591  0  4.155609  0  0  0.226463  0.610224  0  4.172372  0
C  C42  1  0.34700996  0.27346438  0.44893946  1  0  0.145936  0  3.680542  0  0  0.109253  0  3.943826  0  0  0.116682  0  3.959512  0  0  0.054155  0.104267  0  3.933311  0
C  C43  1  0.65299011  0.72653580  0.55106105  1  0  0.145959  0  3.68056  0  0  0.109251  0  3.94385  0  0  0.116682  0  3.959531  0  0  0.054159  0.104266  0  3.933333  0
C  C44  1  0.33718245  0.31411294  0.54343680  1  0  -0.078276  0  3.682588  0  0  -0.09741  0  3.945939  0  0  -0.101361  0  3.963576  0  0  -0.071785  -0.095014  0  3.934333  0
C  C45  1  0.66282134  0.68588997  0.45656474  1  0  -0.078319  0  3.682607  0  0  -0.097413  0  3.945916  0  0  -0.101363  0  3.963555  0  0  -0.0718  -0.095018  0  3.93431  0
C  C46  1  0.47553550  0.30900633  0.61480433  1  0  -0.014536  0  3.658179  0  0  -0.044328  0  3.911613  0  0  -0.041155  0  3.92736  0  0  -0.059818  -0.046284  0  3.901174  0
C  C47  1  0.52446716  0.69099384  0.38519567  1  0  -0.014522  0  3.65809  0  0  -0.044295  0  3.911506  0  0  -0.041124  0  3.927253  0  0  -0.059799  -0.046249  0  3.901069  0
C  C48  1  0.62234279  0.26506079  0.59088811  1  0  -0.081331  0  3.685801  0  0  -0.065312  0  3.925536  0  0  -0.072379  0  3.944885  0  0  0.003835  -0.061043  0  3.913002  0
C  C49  1  0.37765671  0.73493803  0.40911304  1  0  -0.081297  0  3.685748  0  0  -0.065305  0  3.925508  0  0  -0.072372  0  3.944854  0  0  0.003846  -0.061039  0  3.912983  0
C  C50  1  0.62136254  0.22370173  0.49437858  1  0  0.064715  0  3.723471  0  0  0.057551  0  3.966891  0  0  0.058487  0  3.987126  0  0  0.108701  0.056769  0  3.953475  0
C  C51  1  0.37863639  0.77629572  0.50562110  1  0  0.064623  0  3.723569  0  0  0.057463  0  3.966999  0  0  0.058397  0  3.987235  0  0  0.10868  0.056681  0  3.953584  0
C  C52  1  0.76653629  0.16447270  0.46074899  1  0  0.636178  0  3.897058  0  0  0.579937  0  4.197305  0  0  0.613168  0  4.190274  0  0  0.218513  0.55745  0  4.201345  0
C  C53  1  0.23346450  0.83552611  0.53925015  1  0  0.636287  0  3.89695  0  0  0.580033  0  4.197219  0  0  0.613262  0  4.190188  0  0  0.21854  0.557545  0  4.201259  0
C  C54  1  0.77247049  0.26377711  0.66972115  1  0  0.700301  0  3.882487  0  0  0.63935  0  4.190743  0  0  0.676019  0  4.179184  0  0  0.222098  0.61427  0  4.197969  0
C  C55  1  0.22753233  0.73622034  0.33027883  1  0  0.70032  0  3.882435  0  0  0.639382  0  4.190671  0  0  0.676059  0  4.179111  0  0  0.222076  0.614296  0  4.197909  0
N  N56  1  0.95141920  0.20054003  0.91923330  1  0  -0.366718  0  3.337674  0  0  -0.293215  0  3.617278  0  0  -0.311915  0  3.632579  0  0  -0.327544  -0.280534  0  3.606957  0
N  N57  1  0.04858273  0.79946150  0.08076597  1  0  -0.366735  0  3.337752  0  0  -0.293244  0  3.617347  0  0  -0.311945  0  3.63265  0  0  -0.327563  -0.280565  0  3.607028  0
N  N58  1  0.48555286  0.22878118  0.42580494  1  0  -0.356931  0  3.349677  0  0  -0.283763  0  3.621849  0  0  -0.301949  0  3.63986  0  0  -0.323629  -0.271314  0  3.609567  0
N  N59  1  0.51444478  0.77121627  0.57419465  1  0  -0.356903  0  3.349693  0  0  -0.283718  0  3.621863  0  0  -0.301903  0  3.639874  0  0  -0.323651  -0.271268  0  3.60958  0
O  O60  1  0.19897283  0.07452005  0.86923641  1  0  -0.642739  0  2.076316  0  0  -0.561125  0  2.319129  0  0  -0.590911  0  2.306863  0  0  -0.305384  -0.540306  0  2.326965  0
O  O61  1  0.80102577  0.92548285  0.13076403  1  0  -0.642779  0  2.076298  0  0  -0.561138  0  2.319131  0  0  -0.590926  0  2.306864  0  0  -0.305361  -0.540313  0  2.326972  0
O  O62  1  0.04962152  0.05178496  0.67441439  1  0  -0.861146  0  1.924655  0  0  -0.790419  0  2.155466  0  0  -0.813501  0  2.116725  0  0  -0.583692  -0.774089  0  2.182357  0
O  O63  1  0.95037797  0.94821385  0.32558535  1  0  -0.86111  0  1.924715  0  0  -0.790373  0  2.155522  0  0  -0.813457  0  2.116784  0  0  -0.583701  -0.774044  0  2.182413  0
O  O64  1  0.38235854  0.16607385  0.01371431  1  0  -0.589815  0  2.008445  0  0  -0.537648  0  2.237186  0  0  -0.561644  0  2.229994  0  0  -0.295632  -0.520886  0  2.24167  0
O  O65  1  0.61764711  0.83393042  0.98628668  1  0  -0.589975  0  2.00844  0  0  -0.537771  0  2.237202  0  0  -0.561768  0  2.230005  0  0  -0.295643  -0.521006  0  2.241695  0
O  O66  1  0.70085152  0.44327714  0.27491450  1  0  -0.865123  0  1.914067  0  0  -0.803587  0  2.123096  0  0  -0.825217  0  2.086965  0  0  -0.582056  -0.788225  0  2.148101  0
O  O67  1  0.29914595  0.55672306  0.72508792  1  0  -0.865147  0  1.914019  0  0  -0.803584  0  2.123062  0  0  -0.82522  0  2.086924  0  0  -0.582026  -0.78822  0  2.148071  0
O  O68  1  0.54841866  0.05640287  0.16570352  1  0  -0.856124  0  1.948161  0  0  -0.787997  0  2.173161  0  0  -0.810419  0  2.136232  0  0  -0.577911  -0.772126  0  2.198816  0
O  O69  1  0.45158011  0.94359730  0.83429619  1  0  -0.856145  0  1.948129  0  0  -0.788023  0  2.173141  0  0  -0.810441  0  2.136211  0  0  -0.577929  -0.772152  0  2.198798  0
O  O70  1  0.27723851  0.20144467  0.21032888  1  0  -0.687231  0  2.09823  0  0  -0.596105  0  2.382851  0  0  -0.628115  0  2.364114  0  0  -0.311551  -0.573561  0  2.395091  0
O  O71  1  0.72275897  0.79855551  0.78967144  1  0  -0.687223  0  2.09817  0  0  -0.596074  0  2.382795  0  0  -0.628086  0  2.364056  0  0  -0.311537  -0.573527  0  2.395036  0
O  O72  1  0.42594391  0.47877881  0.15887703  1  0  -0.564068  0  1.918234  0  0  -0.513629  0  2.127254  0  0  -0.538286  0  2.11779  0  0  -0.288848  -0.496279  0  2.133276  0
O  O73  1  0.57405429  0.52122001  0.84112332  1  0  -0.564114  0  1.918246  0  0  -0.513629  0  2.127272  0  0  -0.538289  0  2.117804  0  0  -0.288844  -0.496277  0  2.133297  0
O  O74  1  0.74661171  0.12504391  0.37004253  1  0  -0.643822  0  2.076381  0  0  -0.562052  0  2.317821  0  0  -0.591544  0  2.304879  0  0  -0.307626  -0.541521  0  2.326171  0
O  O75  1  0.25338593  0.87495354  0.62995705  1  0  -0.643827  0  2.076312  0  0  -0.562049  0  2.317756  0  0  -0.591539  0  2.304812  0  0  -0.307609  -0.541519  0  2.326107  0
O  O76  1  0.89455474  0.15437101  0.52043317  1  0  -0.589704  0  2.018161  0  0  -0.537032  0  2.245576  0  0  -0.560885  0  2.238123  0  0  -0.294762  -0.520389  0  2.250244  0
O  O77  1  0.10544662  0.84562916  0.47956603  1  0  -0.589746  0  2.018133  0  0  -0.537078  0  2.245577  0  0  -0.560932  0  2.238121  0  0  -0.294778  -0.520436  0  2.250246  0
O  O78  1  0.73158270  0.11458245  0.71072192  1  0  -0.686265  0  2.123256  0  0  -0.605714  0  2.410181  0  0  -0.637477  0  2.394092  0  0  -0.314641  -0.583301  0  2.420517  0
O  O79  1  0.26841696  0.88541363  0.28927710  1  0  -0.68628  0  2.123226  0  0  -0.605745  0  2.41017  0  0  -0.637515  0  2.394066  0  0  -0.314645  -0.583331  0  2.420508  0
O  O80  1  0.91723368  0.40729603  0.69399688  1  0  -0.612407  0  1.941201  0  0  -0.564689  0  2.165593  0  0  -0.589204  0  2.153688  0  0  -0.309272  -0.54721  0  2.17315  0
O  O81  1  0.08276711  0.59270278  0.30600296  1  0  -0.612412  0  1.941175  0  0  -0.564702  0  2.165557  0  0  -0.589215  0  2.153642  0  0  -0.309256  -0.547219  0  2.173113  0
