# generated using pymatgen
data_ZnH10C6N2O5
_symmetry_space_group_name_H-M   'P 1'
_cell_length_a   7.04869604
_cell_length_b   7.56979487
_cell_length_c   9.38490023
_cell_angle_alpha   113.80592189
_cell_angle_beta   112.06389228
_cell_angle_gamma   89.99823389
_symmetry_Int_Tables_number   1
_chemical_formula_structural   ZnH10C6N2O5
_chemical_formula_sum   'Zn2 H20 C12 N4 O10'
_cell_volume   417.75387919
_cell_formula_units_Z   2
loop_
 _symmetry_equiv_pos_site_id
 _symmetry_equiv_pos_as_xyz
  1  'x, y, z'
loop_
 _atom_site_type_symbol
 _atom_site_label
 _atom_site_symmetry_multiplicity
 _atom_site_fract_x
 _atom_site_fract_y
 _atom_site_fract_z
 _atom_site_occupancy
 _atom_site_hle17_bader_spin_density
 _atom_site_hle17_ddec_charge
 _atom_site_hle17_ddec_spin_density
 _atom_site_hle17_ddec_sum_bond_order
 _atom_site_hle17_magmom
 _atom_site_hse06_10hf_bader_spin_density
 _atom_site_hse06_10hf_ddec_charge
 _atom_site_hse06_10hf_ddec_spin_density
 _atom_site_hse06_10hf_ddec_sum_bond_order
 _atom_site_hse06_10hf_magmom
 _atom_site_hse06_bader_spin_density
 _atom_site_hse06_ddec_charge
 _atom_site_hse06_ddec_spin_density
 _atom_site_hse06_ddec_sum_bond_order
 _atom_site_hse06_magmom
 _atom_site_pbe_bader_spin_density
 _atom_site_pbe_cm5_charge
 _atom_site_pbe_ddec_charge
 _atom_site_pbe_ddec_spin_density
 _atom_site_pbe_ddec_sum_bond_order
 _atom_site_pbe_magmom
Zn  Zn0  1  0.83139715  0.80647140  0.61297420  1  0  1.098455  0  1.725701  0  0  0.925993  0  2.157103  0  0  0.975517  0  2.102866  0  0  0.670182  0.89081  0  2.194655  0
Zn  Zn1  1  0.21850023  0.19347887  0.38703303  1  0  1.09844  0  1.726025  0  0  0.925595  0  2.157749  0  0  0.975127  0  2.103496  0  0  0.669742  0.890807  0  2.194922  0
H  H2  1  0.88558013  0.56074269  0.12167917  1  0  0.138838  0  0.944675  0  0  0.149709  0  1.002487  0  0  0.153702  0  0.99926  0  0  0.107233  0.146849  0  1.004891  0
H  H3  1  0.76404229  0.43920652  0.87838822  1  0  0.138728  0  0.945537  0  0  0.149289  0  1.00347  0  0  0.15329  0  1.000229  0  0  0.107027  0.146357  0  1.005952  0
H  H4  1  0.68716657  0.60014388  0.20050844  1  0  0.166556  0  0.910252  0  0  0.178145  0  0.968796  0  0  0.182068  0  0.96656  0  0  0.12088  0.175348  0  0.970512  0
H  H5  1  0.48675072  0.39978828  0.79957169  1  0  0.166585  0  0.909706  0  0  0.177677  0  0.968712  0  0  0.181576  0  0.966471  0  0  0.121129  0.17494  0  0.970311  0
H  H6  1  0.99796512  0.11850705  0.00009912  1  0  0.091154  0  0.939766  0  0  0.100336  0  1.008471  0  0  0.102023  0  1.006721  0  0  0.12083  0.098998  0  1.009883  0
H  H7  1  0.99792321  0.88163990  0.00005510  1  0  0.090846  0  0.940301  0  0  0.100393  0  1.008761  0  0  0.102014  0  1.00708  0  0  0.120866  0.099078  0  1.010153  0
H  H8  1  0.16253003  0.64588686  0.84635607  1  0  0.078618  0  0.913916  0  0  0.092408  0  0.975563  0  0  0.093411  0  0.974074  0  0  0.119857  0.091587  0  0.976739  0
H  H9  1  0.31624904  0.35415421  0.15359924  1  0  0.078419  0  0.91449  0  0  0.092852  0  0.975352  0  0  0.093888  0  0.973864  0  0  0.120214  0.091938  0  0.976667  0
H  H10  1  0.31630795  0.79953239  0.15352925  1  0  0.077967  0  0.913993  0  0  0.092229  0  0.97513  0  0  0.09317  0  0.973759  0  0  0.119928  0.091291  0  0.976446  0
H  H11  1  0.16254608  0.20043091  0.84635223  1  0  0.078406  0  0.913241  0  0  0.092025  0  0.975342  0  0  0.09302  0  0.973882  0  0  0.119727  0.091228  0  0.976534  0
H  H12  1  0.28583597  0.70707499  0.73311614  1  0  0.073874  0  0.924963  0  0  0.086166  0  0.989861  0  0  0.086518  0  0.989872  0  0  0.117232  0.085836  0  0.989955  0
H  H13  1  0.55292023  0.29294699  0.26672288  1  0  0.073749  0  0.924346  0  0  0.08608  0  0.989402  0  0  0.086496  0  0.989357  0  0  0.117191  0.085631  0  0.989678  0
H  H14  1  0.55297045  0.97400086  0.26664454  1  0  0.074279  0  0.924408  0  0  0.086616  0  0.989157  0  0  0.086951  0  0.989214  0  0  0.117379  0.086224  0  0.989323  0
H  H15  1  0.28595509  0.02587289  0.73318993  1  0  0.073816  0  0.924737  0  0  0.086268  0  0.989468  0  0  0.086588  0  0.989552  0  0  0.117222  0.086029  0  0.989427  0
H  H16  1  0.60174010  0.94302388  0.88596391  1  0  0.073793  0  0.934026  0  0  0.084094  0  1.003156  0  0  0.084426  0  1.003252  0  0  0.114934  0.083821  0  1.003165  0
H  H17  1  0.71564738  0.05702983  0.11394592  1  0  0.072469  0  0.93406  0  0  0.083561  0  1.002327  0  0  0.083917  0  1.002388  0  0  0.114692  0.083202  0  1.00247  0
H  H18  1  0.46671638  0.61381165  0.44408667  1  0  0.412448  0  0.899093  0  0  0.379592  0  0.966185  0  0  0.391325  0  0.949188  0  0  0.286231  0.371289  0  0.978208  0
H  H19  1  0.02278973  0.38620599  0.55600240  1  0  0.411913  0  0.899559  0  0  0.378878  0  0.967034  0  0  0.390608  0  0.950055  0  0  0.285981  0.370603  0  0.97901  0
H  H20  1  0.02290040  0.17000468  0.55612377  1  0  0.41246  0  0.898953  0  0  0.379785  0  0.965978  0  0  0.391563  0  0.948901  0  0  0.286405  0.371535  0  0.977916  0
H  H21  1  0.46675369  0.83003644  0.44397358  1  0  0.412535  0  0.898925  0  0  0.37955  0  0.966457  0  0  0.391329  0  0.949396  0  0  0.286288  0.371304  0  0.978354  0
C  C22  1  0.94201388  0.49887907  0.33588322  1  0  0.75178  0  3.78576  0  0  0.698606  0  4.085114  0  0  0.734066  0  4.075961  0  0  0.225044  0.674419  0  4.090713  0
C  C23  1  0.60621824  0.50110602  0.66420117  1  0  0.750992  0  3.784363  0  0  0.697286  0  4.0847  0  0  0.732767  0  4.075576  0  0  0.224531  0.673077  0  4.090368  0
C  C24  1  0.60619227  0.16305360  0.66409333  1  0  0.750967  0  3.786245  0  0  0.697091  0  4.086462  0  0  0.732474  0  4.077478  0  0  0.224596  0.672834  0  4.092064  0
C  C25  1  0.94201471  0.83694617  0.33594731  1  0  0.74918  0  3.788702  0  0  0.696194  0  4.088014  0  0  0.731658  0  4.078907  0  0  0.224216  0.671993  0  4.093768  0
C  C26  1  0.85619864  0.61828728  0.23671619  1  0  -0.438439  0  3.642548  0  0  -0.478899  0  3.888828  0  0  -0.489603  0  3.888691  0  0  -0.168064  -0.471482  0  3.888783  0
C  C27  1  0.61958290  0.38169429  0.76336171  1  0  -0.438201  0  3.642136  0  0  -0.477272  0  3.888261  0  0  -0.487935  0  3.888121  0  0  -0.167493  -0.469868  0  3.888272  0
C  C28  1  0.08689759  0.00003592  0.00002619  1  0  0.06502  0  3.561337  0  0  -0.004553  0  3.813552  0  0  0.002399  0  3.82428  0  0  0.009062  -0.009224  0  3.806455  0
C  C29  1  0.25445223  0.76426733  0.84810525  1  0  0.082455  0  3.618701  0  0  0.013495  0  3.881913  0  0  0.021892  0  3.890951  0  0  0.016272  0.007879  0  3.875547  0
C  C30  1  0.40640882  0.23575027  0.15181431  1  0  0.083678  0  3.618515  0  0  0.013882  0  3.883113  0  0  0.022186  0  3.89222  0  0  0.016313  0.008354  0  3.87674  0
C  C31  1  0.40644462  0.91618477  0.15175244  1  0  0.082939  0  3.618647  0  0  0.013912  0  3.882572  0  0  0.022269  0  3.891754  0  0  0.016233  0.008383  0  3.876229  0
C  C32  1  0.25448085  0.08379467  0.84813953  1  0  0.082577  0  3.617621  0  0  0.0134  0  3.881009  0  0  0.021729  0  3.890255  0  0  0.016282  0.007702  0  3.874717  0
C  C33  1  0.56820929  0.00000631  0.99992556  1  0  0.079984  0  3.632691  0  0  0.013775  0  3.896904  0  0  0.021442  0  3.906377  0  0  0.015045  0.008579  0  3.890387  0
N  N34  1  0.12636431  0.92122232  0.84248732  1  0  -0.298869  0  3.170385  0  0  -0.206239  0  3.417171  0  0  -0.225566  0  3.434488  0  0  -0.33781  -0.192723  0  3.405169  0
N  N35  1  0.28402447  0.07881231  0.15752191  1  0  -0.300101  0  3.167303  0  0  -0.208919  0  3.416619  0  0  -0.228344  0  3.434077  0  0  -0.337593  -0.19531  0  3.404071  0
N  N36  1  0.45049423  0.83897523  0.99989325  1  0  -0.274108  0  3.144691  0  0  -0.211917  0  3.410825  0  0  -0.227168  0  3.427702  0  0  -0.348896  -0.201351  0  3.398905  0
N  N37  1  0.45048821  0.16102107  0.99995386  1  0  -0.275133  0  3.14419  0  0  -0.212309  0  3.410025  0  0  -0.227609  0  3.427007  0  0  -0.349198  -0.201585  0  3.398137  0
O  O38  1  0.92764643  0.54657509  0.47863925  1  0  -0.665273  0  2.084706  0  0  -0.587526  0  2.33305  0  0  -0.61727  0  2.321445  0  0  -0.310863  -0.567057  0  2.340748  0
O  O39  1  0.44899100  0.45345851  0.52145730  1  0  -0.665359  0  2.083581  0  0  -0.587423  0  2.332025  0  0  -0.617167  0  2.32043  0  0  -0.310668  -0.566865  0  2.339658  0
O  O40  1  0.44906304  0.06791257  0.52127407  1  0  -0.665501  0  2.085131  0  0  -0.586946  0  2.333466  0  0  -0.616622  0  2.321809  0  0  -0.310477  -0.56624  0  2.340852  0
O  O41  1  0.92773504  0.93207702  0.47874938  1  0  -0.664662  0  2.084969  0  0  -0.587042  0  2.333093  0  0  -0.616774  0  2.321498  0  0  -0.310606  -0.566444  0  2.340787  0
O  O42  1  0.02045739  0.35430794  0.26943495  1  0  -0.629689  0  2.024952  0  0  -0.565176  0  2.284544  0  0  -0.591634  0  2.271234  0  0  -0.307355  -0.546786  0  2.293098  0
O  O43  1  0.75112111  0.64564300  0.73062672  1  0  -0.628667  0  2.024643  0  0  -0.564312  0  2.284661  0  0  -0.590798  0  2.271488  0  0  -0.307088  -0.545816  0  2.293203  0
O  O44  1  0.75102906  0.08494332  0.73053871  1  0  -0.628617  0  2.025199  0  0  -0.564573  0  2.285699  0  0  -0.591015  0  2.272445  0  0  -0.307619  -0.54625  0  2.294365  0
O  O45  1  0.02037590  0.91506193  0.26947650  1  0  -0.627495  0  2.026012  0  0  -0.563611  0  2.285823  0  0  -0.590057  0  2.272562  0  0  -0.306539  -0.545212  0  2.294643  0
O  O46  1  0.52446120  0.70595359  0.41220375  1  0  -0.837361  0  1.929539  0  0  -0.779636  0  2.138631  0  0  -0.802511  0  2.103869  0  0  -0.584532  -0.763295  0  2.162613  0
O  O47  1  0.11241781  0.29405350  0.58787275  1  0  -0.836447  0  1.929762  0  0  -0.778529  0  2.138403  0  0  -0.801337  0  2.103662  0  0  -0.583964  -0.762417  0  2.162371  0
