# generated using pymatgen
data_ZnH28C26N4(ClO4)2
_symmetry_space_group_name_H-M   'P 1'
_cell_length_a   8.91794943
_cell_length_b   10.39773175
_cell_length_c   11.66273338
_cell_angle_alpha   68.88385326
_cell_angle_beta   90.95875745
_cell_angle_gamma   67.78333904
_symmetry_Int_Tables_number   1
_chemical_formula_structural   ZnH28C26N4(ClO4)2
_chemical_formula_sum   'Zn1 H28 C26 N4 Cl2 O8'
_cell_volume   919.16820772
_cell_formula_units_Z   1
loop_
 _symmetry_equiv_pos_site_id
 _symmetry_equiv_pos_as_xyz
  1  'x, y, z'
loop_
 _atom_site_type_symbol
 _atom_site_label
 _atom_site_symmetry_multiplicity
 _atom_site_fract_x
 _atom_site_fract_y
 _atom_site_fract_z
 _atom_site_occupancy
 _atom_site_hle17_bader_spin_density
 _atom_site_hle17_ddec_charge
 _atom_site_hle17_ddec_spin_density
 _atom_site_hle17_ddec_sum_bond_order
 _atom_site_hle17_magmom
 _atom_site_hse06_10hf_bader_spin_density
 _atom_site_hse06_10hf_ddec_charge
 _atom_site_hse06_10hf_ddec_spin_density
 _atom_site_hse06_10hf_ddec_sum_bond_order
 _atom_site_hse06_10hf_magmom
 _atom_site_hse06_bader_spin_density
 _atom_site_hse06_ddec_charge
 _atom_site_hse06_ddec_spin_density
 _atom_site_hse06_ddec_sum_bond_order
 _atom_site_hse06_magmom
 _atom_site_pbe_bader_spin_density
 _atom_site_pbe_cm5_charge
 _atom_site_pbe_ddec_charge
 _atom_site_pbe_ddec_spin_density
 _atom_site_pbe_ddec_sum_bond_order
 _atom_site_pbe_magmom
Zn  Zn0  1  0.49999593  0.00000129  0.50000187  1  0  0.960329  0  1.85143  0  0  0.760926  0  2.29362  0  0  0.806382  0  2.249955  0  0  0.706952  0.729173  0  2.322609  0
H  H1  1  0.92719045  0.50008369  0.70676076  1  0  0.083367  0  0.915388  0  0  0.103437  0  0.967455  0  0  0.104902  0  0.967233  0  0  0.09601  0.102256  0  0.967844  0
H  H2  1  0.07281381  0.49991333  0.29323472  1  0  0.083304  0  0.915392  0  0  0.103411  0  0.96743  0  0  0.104876  0  0.967205  0  0  0.095989  0.102226  0  0.96782  0
H  H3  1  0.05120707  0.60271321  0.66151940  1  0  0.090013  0  0.957407  0  0  0.101795  0  1.029683  0  0  0.10216  0  1.030733  0  0  0.095174  0.101331  0  1.029186  0
H  H4  1  0.94879840  0.39728377  0.33848210  1  0  0.090038  0  0.957396  0  0  0.101828  0  1.029658  0  0  0.102192  0  1.030704  0  0  0.095198  0.101366  0  1.029161  0
H  H5  1  0.25820755  0.43291183  0.85132499  1  0  0.069125  0  0.93388  0  0  0.087787  0  0.993862  0  0  0.088572  0  0.994107  0  0  0.091614  0.087201  0  0.993707  0
H  H6  1  0.74178522  0.56709662  0.14867786  1  0  0.069106  0  0.934031  0  0  0.087789  0  0.994011  0  0  0.088573  0  0.994257  0  0  0.091606  0.087202  0  0.993857  0
H  H7  1  0.06260326  0.51049347  0.88924299  1  0  0.064567  0  0.943477  0  0  0.083988  0  1.003226  0  0  0.084406  0  1.004719  0  0  0.088915  0.083724  0  1.002085  0
H  H8  1  0.93738667  0.48950047  0.11075854  1  0  0.064557  0  0.94361  0  0  0.08399  0  1.003356  0  0  0.084406  0  1.004855  0  0  0.08891  0.083726  0  1.002215  0
H  H9  1  0.02602276  0.27123522  0.92370739  1  0  0.079786  0  0.917048  0  0  0.099963  0  0.968985  0  0  0.10132  0  0.96856  0  0  0.097297  0.098932  0  0.969374  0
H  H10  1  0.97398604  0.72875385  0.07629239  1  0  0.079722  0  0.916911  0  0  0.099905  0  0.968859  0  0  0.10126  0  0.968435  0  0  0.09728  0.098873  0  0.96925  0
H  H11  1  0.22154285  0.19416469  0.88444546  1  0  0.078997  0  0.932577  0  0  0.096843  0  0.990621  0  0  0.097546  0  0.991613  0  0  0.094836  0.096381  0  0.989828  0
H  H12  1  0.77846795  0.80583554  0.11555501  1  0  0.079011  0  0.932548  0  0  0.096835  0  0.990607  0  0  0.097536  0  0.991599  0  0  0.094844  0.096389  0  0.989798  0
H  H13  1  0.13484679  0.12185705  0.54845116  1  0  0.086089  0  0.961711  0  0  0.091985  0  1.029564  0  0  0.09438  0  1.02687  0  0  0.113708  0.090383  0  1.031257  0
H  H14  1  0.86515510  0.87814561  0.45154591  1  0  0.086087  0  0.961689  0  0  0.091937  0  1.029592  0  0  0.094334  0  1.026893  0  0  0.113685  0.090339  0  1.031285  0
H  H15  1  0.96341559  0.30274370  0.63381911  1  0  0.118935  0  0.94104  0  0  0.132087  0  0.994356  0  0  0.135415  0  0.993274  0  0  0.110515  0.129762  0  0.995127  0
H  H16  1  0.03658825  0.69726229  0.36617861  1  0  0.118917  0  0.94097  0  0  0.132063  0  0.994301  0  0  0.135392  0  0.993219  0  0  0.110517  0.129737  0  0.995072  0
H  H17  1  0.36163034  0.44091999  0.64554615  1  0  0.118328  0  0.959603  0  0  0.128247  0  1.018353  0  0  0.131488  0  1.0172  0  0  0.105792  0.125888  0  1.019446  0
H  H18  1  0.63837614  0.55907473  0.35445952  1  0  0.118289  0  0.959618  0  0  0.128223  0  1.018357  0  0  0.131463  0  1.017205  0  0  0.105814  0.125864  0  1.01945  0
H  H19  1  0.51668847  0.25587284  0.55733677  1  0  0.077005  0  0.972263  0  0  0.083348  0  1.039889  0  0  0.085787  0  1.037152  0  0  0.108453  0.081524  0  1.041912  0
H  H20  1  0.48332303  0.74412065  0.44267018  1  0  0.076951  0  0.972272  0  0  0.08333  0  1.039878  0  0  0.085771  0  1.037138  0  0  0.108441  0.081505  0  1.041903  0
H  H21  1  0.59424678  0.10217523  0.24363372  1  0  0.079206  0  0.947316  0  0  0.086405  0  1.012482  0  0  0.088527  0  1.010402  0  0  0.114582  0.084878  0  1.013881  0
H  H22  1  0.40574758  0.89783207  0.75636780  1  0  0.079247  0  0.947304  0  0  0.086448  0  1.012464  0  0  0.08857  0  1.010386  0  0  0.114628  0.084909  0  1.013875  0
H  H23  1  0.47053201  0.19947664  0.01997214  1  0  0.110481  0  0.932131  0  0  0.12489  0  0.981516  0  0  0.128082  0  0.981204  0  0  0.11189  0.122532  0  0.98206  0
H  H24  1  0.52945703  0.80053525  0.98002872  1  0  0.110502  0  0.932059  0  0  0.124922  0  0.981426  0  0  0.128116  0  0.981113  0  0  0.1119  0.122564  0  0.981972  0
H  H25  1  0.01224610  0.20944664  0.14142227  1  0  0.118038  0  0.940682  0  0  0.129465  0  0.996343  0  0  0.132898  0  0.995073  0  0  0.110733  0.127013  0  0.997336  0
H  H26  1  0.98775240  0.79054825  0.85857900  1  0  0.118007  0  0.940735  0  0  0.129446  0  0.99638  0  0  0.132878  0  0.995111  0  0  0.110751  0.126996  0  0.997373  0
H  H27  1  0.15441247  0.11026249  0.35802535  1  0  0.088264  0  0.965546  0  0  0.094469  0  1.034367  0  0  0.096606  0  1.031806  0  0  0.115569  0.092709  0  1.036508  0
H  H28  1  0.84558939  0.88973233  0.64197339  1  0  0.08826  0  0.965534  0  0  0.094439  0  1.034378  0  0  0.096574  0  1.031818  0  0  0.115563  0.092681  0  1.036518  0
C  C29  1  0.05493380  0.48934881  0.71176723  1  0  -0.168231  0  3.692106  0  0  -0.213072  0  3.947355  0  0  -0.215157  0  3.960557  0  0  -0.160963  -0.211676  0  3.938522  0
C  C30  1  0.94506530  0.51065278  0.28824045  1  0  -0.168229  0  3.692185  0  0  -0.213082  0  3.947462  0  0  -0.21516  0  3.96065  0  0  -0.160987  -0.211686  0  3.938618  0
C  C31  1  0.13542708  0.43144269  0.84858223  1  0  -0.088478  0  3.6615  0  0  -0.128299  0  3.923935  0  0  -0.129669  0  3.938516  0  0  -0.157978  -0.127164  0  3.913597  0
C  C32  1  0.86457189  0.56855107  0.15141855  1  0  -0.088461  0  3.661473  0  0  -0.128358  0  3.923957  0  0  -0.129733  0  3.938536  0  0  -0.15798  -0.127223  0  3.913624  0
C  C33  1  0.14929234  0.27159644  0.92697769  1  0  -0.162037  0  3.717197  0  0  -0.206177  0  3.972689  0  0  -0.207689  0  3.984466  0  0  -0.15778  -0.204953  0  3.964114  0
C  C34  1  0.85070561  0.72839959  0.07301720  1  0  -0.162013  0  3.71693  0  0  -0.206097  0  3.972466  0  0  -0.207607  0  3.984247  0  0  -0.157761  -0.204883  0  3.963887  0
C  C35  1  0.18072122  0.19558793  0.56944617  1  0  0.129797  0  3.708947  0  0  0.097662  0  3.966873  0  0  0.105164  0  3.985075  0  0  0.041028  0.092831  0  3.953996  0
C  C36  1  0.81928706  0.80441013  0.43054728  1  0  0.129659  0  3.709031  0  0  0.097569  0  3.966953  0  0  0.105071  0  3.98515  0  0  0.040925  0.092736  0  3.954081  0
C  C37  1  0.08607545  0.29616919  0.61942669  1  0  -0.17787  0  3.709505  0  0  -0.197798  0  3.958476  0  0  -0.206415  0  3.980181  0  0  -0.086611  -0.192277  0  3.943778  0
C  C38  1  0.91392572  0.70383237  0.38056557  1  0  -0.177778  0  3.709619  0  0  -0.197703  0  3.95858  0  0  -0.206319  0  3.980284  0  0  -0.086543  -0.192188  0  3.943876  0
C  C39  1  0.14848904  0.38675178  0.64995154  1  0  0.159229  0  3.723677  0  0  0.175719  0  3.96208  0  0  0.181202  0  3.984772  0  0  0.014429  0.172088  0  3.946456  0
C  C40  1  0.85151348  0.61325200  0.35004431  1  0  0.159221  0  3.724202  0  0  0.175692  0  3.962631  0  0  0.181177  0  3.985319  0  0  0.0144  0.172081  0  3.946981  0
C  C41  1  0.30626326  0.37240520  0.62554624  1  0  -0.169598  0  3.688524  0  0  -0.185342  0  3.928783  0  0  -0.193807  0  3.950495  0  0  -0.086302  -0.179534  0  3.913814  0
C  C42  1  0.69374223  0.62759178  0.37445783  1  0  -0.169475  0  3.68867  0  0  -0.185221  0  3.928931  0  0  -0.193686  0  3.950646  0  0  -0.086269  -0.179419  0  3.913956  0
C  C43  1  0.39323637  0.26982389  0.57513741  1  0  0.129365  0  3.711482  0  0  0.09967  0  3.959913  0  0  0.10685  0  3.978669  0  0  0.037656  0.095167  0  3.946792  0
C  C44  1  0.60677655  0.73016621  0.42486806  1  0  0.129448  0  3.7113  0  0  0.099724  0  3.959743  0  0  0.106899  0  3.978498  0  0  0.037702  0.095226  0  3.946626  0
C  C45  1  0.46539699  0.12806296  0.21641466  1  0  0.138026  0  3.72024  0  0  0.1048  0  3.97364  0  0  0.112599  0  3.992707  0  0  0.043236  0.099838  0  3.960701  0
C  C46  1  0.53460072  0.87193642  0.78358601  1  0  0.13793  0  3.720282  0  0  0.104674  0  3.973693  0  0  0.112472  0  3.992761  0  0  0.043182  0.099722  0  3.960757  0
C  C47  1  0.39534905  0.18216543  0.09209253  1  0  -0.180341  0  3.717976  0  0  -0.195904  0  3.960353  0  0  -0.204898  0  3.981987  0  0  -0.086565  -0.190342  0  3.94607  0
C  C48  1  0.60464934  0.81784290  0.90790783  1  0  -0.180339  0  3.718022  0  0  -0.195877  0  3.960411  0  0  -0.20487  0  3.982044  0  0  -0.086575  -0.190316  0  3.946124  0
C  C49  1  0.22922219  0.21311184  0.06033348  1  0  0.157289  0  3.738238  0  0  0.172348  0  3.978731  0  0  0.178175  0  4.001316  0  0  0.014054  0.168689  0  3.96317  0
C  C50  1  0.77077521  0.78689092  0.93966696  1  0  0.157318  0  3.738348  0  0  0.172298  0  3.978928  0  0  0.178122  0  4.001516  0  0  0.014054  0.168639  0  3.96337  0
C  C51  1  0.14173011  0.18808193  0.15846902  1  0  -0.178975  0  3.705249  0  0  -0.195976  0  3.949209  0  0  -0.205199  0  3.97099  0  0  -0.085141  -0.189904  0  3.934382  0
C  C52  1  0.85826663  0.81191972  0.84153091  1  0  -0.178918  0  3.705152  0  0  -0.195917  0  3.949114  0  0  -0.205138  0  3.970897  0  0  -0.08515  -0.189849  0  3.934289  0
C  C53  1  0.22043516  0.13334748  0.28093383  1  0  0.150527  0  3.680788  0  0  0.118023  0  3.930413  0  0  0.126191  0  3.948883  0  0  0.049079  0.112839  0  3.917711  0
C  C54  1  0.77956120  0.86664970  0.71906326  1  0  0.150445  0  3.680917  0  0  0.117967  0  3.930504  0  0  0.126136  0  3.948974  0  0  0.049014  0.112783  0  3.917801  0
N  N55  1  0.33313601  0.18095365  0.54782847  1  0  -0.345591  0  3.283325  0  0  -0.268197  0  3.550461  0  0  -0.288155  0  3.569794  0  0  -0.327639  -0.254069  0  3.536096  0
N  N56  1  0.66687126  0.81904442  0.45217440  1  0  -0.34558  0  3.282965  0  0  -0.268209  0  3.55013  0  0  -0.288161  0  3.569458  0  0  -0.327608  -0.25409  0  3.535776  0
N  N57  1  0.37993204  0.10322543  0.31021884  1  0  -0.333799  0  3.293733  0  0  -0.252805  0  3.558504  0  0  -0.273619  0  3.577697  0  0  -0.326869  -0.238852  0  3.544817  0
N  N58  1  0.62006451  0.89677398  0.68977924  1  0  -0.333716  0  3.293963  0  0  -0.25268  0  3.558671  0  0  -0.273492  0  3.577865  0  0  -0.326808  -0.238727  0  3.544977  0
Cl  Cl59  1  0.73088898  0.23146788  0.39244089  1  0  1.3966  0  6.193585  0  0  1.332754  0  6.766435  0  0  1.385029  0  6.742985  0  0  0.729419  1.296754  0  6.781389  0
Cl  Cl60  1  0.26910453  0.76853608  0.60755827  1  0  1.396698  0  6.193853  0  0  1.332843  0  6.766705  0  0  1.385098  0  6.743258  0  0  0.729438  1.296834  0  6.781668  0
O  O61  1  0.68308444  0.10315479  0.45057090  1  0  -0.609293  0  2.003746  0  0  -0.563619  0  2.291757  0  0  -0.581568  0  2.274061  0  0  -0.322671  -0.55135  0  2.303358  0
O  O62  1  0.31690449  0.89684927  0.54942392  1  0  -0.6093  0  2.003859  0  0  -0.563651  0  2.291915  0  0  -0.581568  0  2.2742  0  0  -0.322638  -0.551363  0  2.303495  0
O  O63  1  0.78206903  0.26774120  0.49172736  1  0  -0.529564  0  1.832202  0  0  -0.503713  0  2.06595  0  0  -0.519425  0  2.053772  0  0  -0.306927  -0.492644  0  2.073706  0
O  O64  1  0.21792307  0.73225829  0.50827753  1  0  -0.529566  0  1.832339  0  0  -0.503695  0  2.066071  0  0  -0.519413  0  2.053909  0  0  -0.306868  -0.492624  0  2.073831  0
O  O65  1  0.86674700  0.18250560  0.32858210  1  0  -0.531953  0  1.836719  0  0  -0.507373  0  2.074966  0  0  -0.522836  0  2.061365  0  0  -0.311253  -0.496592  0  2.083699  0
O  O66  1  0.13325042  0.81749715  0.67142005  1  0  -0.531971  0  1.836851  0  0  -0.507361  0  2.075066  0  0  -0.522825  0  2.061477  0  0  -0.31123  -0.49658  0  2.083802  0
O  O67  1  0.59081329  0.36057147  0.30443108  1  0  -0.527457  0  1.787935  0  0  -0.507853  0  2.008433  0  0  -0.52204  0  1.995789  0  0  -0.32077  -0.497938  0  2.016899  0
O  O68  1  0.40918103  0.63943584  0.69556616  1  0  -0.527548  0  1.787912  0  0  -0.50796  0  2.008427  0  0  -0.522148  0  1.995782  0  0  -0.320901  -0.498047  0  2.016899  0
