# generated using pymatgen
data_MnH16C14(NO4)2
_symmetry_space_group_name_H-M   'P 1'
_cell_length_a   5.31637064
_cell_length_b   7.14555147
_cell_length_c   9.97791000
_cell_angle_alpha   86.39438932
_cell_angle_beta   85.30638601
_cell_angle_gamma   75.23872628
_symmetry_Int_Tables_number   1
_chemical_formula_structural   MnH16C14(NO4)2
_chemical_formula_sum   'Mn1 H16 C14 N2 O8'
_cell_volume   364.95789919
_cell_formula_units_Z   1
loop_
 _symmetry_equiv_pos_site_id
 _symmetry_equiv_pos_as_xyz
  1  'x, y, z'
loop_
 _atom_site_type_symbol
 _atom_site_label
 _atom_site_symmetry_multiplicity
 _atom_site_fract_x
 _atom_site_fract_y
 _atom_site_fract_z
 _atom_site_occupancy
 _atom_site_hle17_ddec_charge
 _atom_site_hle17_ddec_spin_density
 _atom_site_hle17_ddec_sum_bond_order
 _atom_site_hle17_magmom
 _atom_site_hse06_10hf_ddec_charge
 _atom_site_hse06_10hf_ddec_spin_density
 _atom_site_hse06_10hf_ddec_sum_bond_order
 _atom_site_hse06_10hf_magmom
 _atom_site_hse06_ddec_charge
 _atom_site_hse06_ddec_spin_density
 _atom_site_hse06_ddec_sum_bond_order
 _atom_site_hse06_magmom
 _atom_site_pbe_cm5_charge
 _atom_site_pbe_ddec_charge
 _atom_site_pbe_ddec_spin_density
 _atom_site_pbe_ddec_sum_bond_order
 _atom_site_pbe_magmom
Mn  Mn0  1  0.00000015  0.99999841  0.99999997  1  1.21688  4.773359  1.802942  4.654  1.08253  4.663902  2.303638  4.481  1.125714  4.735493  2.23166  4.575  0.600025  1.055386  4.586353  2.354444  4.382
H  H1  1  0.21500468  0.52162465  0.10161844  1  0.130066  -0.000792  0.940319  0.0  0.133055  -0.000113  1.007865  0.0  0.137905  -0.000273  1.002691  0.0  0.13569  0.129249  0.000117  1.011601  0.0
H  H2  1  0.78499883  0.47837382  0.89838004  1  0.130061  -0.00078  0.940278  0.0  0.133042  -0.000113  1.007852  0.0  0.137893  -0.000273  1.002675  0.0  0.135682  0.129238  0.000117  1.011587  0.0
H  H3  1  0.33623175  0.38013069  0.32905803  1  0.126251  7.3e-05  0.971878  0.0  0.133788  0.000107  1.03333  0.0  0.138225  2.3e-05  1.030588  0.0  0.113834  0.130408  0.0002  1.036159  0.0
H  H4  1  0.66377602  0.61986635  0.67094134  1  0.126259  7.1e-05  0.97208  0.0  0.133776  0.000107  1.03356  0.0  0.138212  2.3e-05  1.03082  0.0  0.113825  0.1304  0.000201  1.036387  0.0
H  H5  1  0.56660844  0.69587333  0.48343090  1  0.115048  3.1e-05  0.97221  0.0  0.120243  -6.1e-05  1.041355  0.0  0.124339  -8.2e-05  1.038914  0.0  0.111171  0.117068  -1.9e-05  1.043106  0.0
H  H6  1  0.43339936  0.30412374  0.51656546  1  0.115001  2e-05  0.972093  0.0  0.120183  -6.1e-05  1.041272  0.0  0.124265  -8.2e-05  1.03885  0.0  0.111164  0.117025  -1.9e-05  1.043002  0.0
H  H7  1  0.48037805  0.82194782  0.24747523  1  0.129206  -0.000964  0.962047  0.0  0.131707  -0.000536  1.029902  0.0  0.137184  -0.00064  1.024621  0.0  0.132809  0.127518  -0.000393  1.034169  0.0
H  H8  1  0.51962596  0.17804920  0.75252329  1  0.129221  -0.000967  0.962055  0.0  0.131706  -0.000536  1.029916  0.0  0.137184  -0.00064  1.024633  0.0  0.132793  0.12753  -0.000393  1.034173  0.0
H  H9  1  0.35684091  0.78798104  0.84756559  1  0.408829  7.1e-05  0.904001  0.0  0.377343  0.000849  0.969904  0.001  0.388815  0.000596  0.953319  0.001  0.285022  0.369391  0.001032  0.981233  0.001
H  H10  1  0.64315779  0.21202028  0.15243598  1  0.408858  7.2e-05  0.903956  0.0  0.377356  0.000849  0.969892  0.001  0.388829  0.000596  0.953306  0.001  0.285039  0.369404  0.001033  0.981221  0.001
H  H11  1  0.52128769  0.78039133  0.98102568  1  0.416522  -0.000396  0.889727  0.001  0.385746  0.000264  0.954105  0.002  0.395921  -3e-05  0.939484  0.002  0.292423  0.378931  0.000634  0.963773  0.002
H  H12  1  0.47871016  0.21960709  0.01897403  1  0.416512  -0.000396  0.889741  0.001  0.385734  0.000264  0.954121  0.002  0.395908  -3e-05  0.939501  0.002  0.292414  0.378916  0.000633  0.963794  0.002
H  H13  1  0.25533840  0.04534782  0.43900926  1  0.103488  2e-05  0.931328  0.0  0.120282  0.000239  0.992963  0.0  0.12147  0.000129  0.993325  0.0  0.10046  0.119263  0.000278  0.993131  0.0
H  H14  1  0.74466083  0.95465206  0.56099033  1  0.103505  2.4e-05  0.931319  0.0  0.1203  0.000239  0.992946  0.0  0.121489  0.000129  0.993308  0.0  0.100461  0.119282  0.000278  0.993113  0.0
H  H15  1  0.17330775  0.82554749  0.42743422  1  0.083688  0.000116  0.97967  0.0  0.100169  0.000388  1.044971  0.0  0.100077  0.000234  1.047189  0.0  0.094106  0.100211  0.000434  1.043669  0.0
H  H16  1  0.82669097  0.17445383  0.57256534  1  0.083684  0.000113  0.979657  0.0  0.100158  0.000388  1.044962  0.0  0.100068  0.000234  1.047178  0.0  0.094096  0.100201  0.000434  1.043661  0.0
C  C17  1  0.08343210  0.55093405  0.19127995  1  0.046554  0.011967  3.558189  0.01  -0.000154  0.013693  3.82784  0.01  0.011303  0.011169  3.832811  0.009  0.052126  -0.008859  0.016657  3.827074  0.012
C  C18  1  0.91657377  0.44906296  0.80872150  1  0.046571  0.011929  3.557999  0.01  -0.00012  0.013691  3.827637  0.01  0.011339  0.01117  3.832608  0.009  0.052126  -0.008821  0.016653  3.826877  0.012
C  C19  1  0.14397580  0.47757261  0.31889298  1  -0.126105  -0.006633  3.681891  -0.005  -0.146584  -0.000321  3.939439  -0.001  -0.151322  -0.003916  3.953395  -0.003  -0.074429  -0.147425  0.003697  3.934891  0.001
C  C20  1  0.85601388  0.52243302  0.68110476  1  -0.12617  -0.006615  3.68163  -0.005  -0.146646  -0.00032  3.939206  -0.001  -0.151385  -0.003919  3.953163  -0.003  -0.074397  -0.147489  0.003701  3.934664  0.001
C  C21  1  0.96558756  0.53112093  0.43100939  1  0.079312  0.012547  3.742115  0.01  0.084921  0.018446  3.982219  0.014  0.090961  0.012965  3.99946  0.01  0.003724  0.080209  0.024305  3.971828  0.018
C  C22  1  0.03442262  0.46887469  0.56898794  1  0.079403  0.012543  3.741872  0.01  0.084974  0.018445  3.982032  0.014  0.091017  0.012967  3.999265  0.01  0.003634  0.080263  0.024306  3.971646  0.018
C  C23  1  0.71862472  0.65088117  0.40341854  1  -0.130877  -0.006232  3.698111  -0.005  -0.152179  -0.000143  3.958535  -0.001  -0.157349  -0.003425  3.974488  -0.003  -0.075536  -0.146509  0.003055  3.945816  0.001
C  C24  1  0.28136830  0.34912008  0.59658626  1  -0.130813  -0.006203  3.698237  -0.005  -0.152112  -0.000143  3.95866  -0.001  -0.157274  -0.003428  3.974627  -0.003  -0.075498  -0.146448  0.003052  3.945933  0.001
C  C25  1  0.66373285  0.72263335  0.27458047  1  0.01952  0.011927  3.575203  0.01  -0.022951  0.013491  3.840359  0.01  -0.013873  0.010931  3.848083  0.009  0.044441  -0.029155  0.015794  3.834954  0.011
C  C26  1  0.33626828  0.27736656  0.72541604  1  0.019461  0.011939  3.575378  0.01  -0.022958  0.01349  3.840461  0.01  -0.01388  0.010935  3.848184  0.009  0.044474  -0.029172  0.015797  3.835061  0.011
C  C27  1  0.95716538  0.05599886  0.30658903  1  0.69478  0.003934  3.845456  0.004  0.64849  0.006903  4.145554  0.007  0.680187  0.005375  4.143247  0.005  0.211543  0.627495  0.009214  4.144721  0.008
C  C28  1  0.04283624  0.94399959  0.69341053  1  0.69486  0.003948  3.845361  0.004  0.648558  0.006904  4.145474  0.007  0.680254  0.005374  4.143169  0.005  0.21158  0.627565  0.009214  4.14464  0.008
C  C29  1  0.08802733  0.98141150  0.43622319  1  -0.251528  0.000495  3.726442  0.001  -0.291066  0.000474  3.970017  0.001  -0.296663  0.000369  3.982152  0.001  -0.174198  -0.287544  0.001361  3.961633  0.001
C  C30  1  0.91197378  0.01858840  0.56377632  1  -0.251567  0.000494  3.726415  0.001  -0.291105  0.000474  3.970002  0.001  -0.296705  0.00037  3.982137  0.001  -0.174179  -0.287573  0.001361  3.961611  0.001
N  N31  1  0.84892781  0.67719819  0.17116161  1  0.273836  -0.000238  3.664288  0.001  0.320314  0.010004  3.92704  0.011  0.321415  0.002591  3.947452  0.003  -0.112895  0.31945  0.016943  3.913497  0.018
N  N32  1  0.15107089  0.32280314  0.82883895  1  0.273846  -0.000234  3.664316  0.001  0.320298  0.010005  3.927071  0.011  0.321398  0.002589  3.947483  0.003  -0.112928  0.319433  0.016944  3.913534  0.018
O  O33  1  0.80776421  0.76544847  0.05053227  1  -0.558455  0.019426  1.872066  0.006  -0.501829  0.020788  2.121836  0.004  -0.526997  0.020942  2.115351  0.005  -0.215195  -0.484895  0.023042  2.125961  0.006
O  O34  1  0.19223929  0.23454999  0.94946721  1  -0.558497  0.019431  1.872103  0.006  -0.501858  0.020793  2.121881  0.004  -0.527019  0.020944  2.115388  0.005  -0.215204  -0.484919  0.023046  2.126006  0.006
O  O35  1  0.10026214  0.00228111  0.19843023  1  -0.678674  0.034623  2.027421  0.021  -0.607894  0.03861  2.287272  0.022  -0.639695  0.035788  2.276372  0.019  -0.329354  -0.586245  0.041177  2.294104  0.024
O  O36  1  0.89973519  0.99771875  0.80157044  1  -0.678706  0.034617  2.027365  0.021  -0.607921  0.038613  2.287224  0.022  -0.639723  0.035787  2.276326  0.019  -0.329374  -0.586276  0.041178  2.294066  0.024
O  O37  1  0.72583626  0.16075652  0.31013578  1  -0.635754  0.00219  1.950078  0.003  -0.575901  0.004476  2.170967  0.005  -0.602582  0.003281  2.164492  0.004  -0.316277  -0.556388  0.005558  2.174011  0.006
O  O38  1  0.27416244  0.83924481  0.68986478  1  -0.635782  0.002184  1.950014  0.003  -0.57593  0.004475  2.170901  0.005  -0.602609  0.003281  2.164429  0.004  -0.31629  -0.556412  0.005558  2.173937  0.006
O  O39  1  0.35221690  0.77248830  0.94882287  1  -0.854127  0.031142  1.896866  0.019  -0.798718  0.040484  2.104223  0.025  -0.822127  0.036225  2.068164  0.021  -0.579443  -0.779841  0.043733  2.128165  0.028
O  O40  1  0.64778470  0.22751014  0.05117769  1  -0.854167  0.031142  1.896839  0.019  -0.798746  0.040484  2.104195  0.025  -0.822168  0.036226  2.068154  0.021  -0.579464  -0.779866  0.043733  2.128139  0.028
