# generated using pymatgen
data_Zr6H23C50N2Cl5O36
_symmetry_space_group_name_H-M   'P 1'
_cell_length_a   14.77571662
_cell_length_b   14.76085645
_cell_length_c   14.79966424
_cell_angle_alpha   60.52937832
_cell_angle_beta   59.83085236
_cell_angle_gamma   60.09591522
_symmetry_Int_Tables_number   1
_chemical_formula_structural   Zr6H23C50N2Cl5O36
_chemical_formula_sum   'Zr6 H23 C50 N2 Cl5 O36'
_cell_volume   2290.11510011
_cell_formula_units_Z   1
loop_
 _symmetry_equiv_pos_site_id
 _symmetry_equiv_pos_as_xyz
  1  'x, y, z'
loop_
 _atom_site_type_symbol
 _atom_site_label
 _atom_site_symmetry_multiplicity
 _atom_site_fract_x
 _atom_site_fract_y
 _atom_site_fract_z
 _atom_site_occupancy
 _atom_site_pbe_bader_charge
 _atom_site_pbe_bader_spin_density
 _atom_site_pbe_cm5_charge
 _atom_site_pbe_ddec_charge
 _atom_site_pbe_ddec_spin_density
 _atom_site_pbe_ddec_sum_bond_order
 _atom_site_pbe_magmom
Zr  Zr0  1  0.87837749  0.88363948  0.61489356  1  2.635314  0  1.626018  2.371016  0  2.758288  0
Zr  Zr1  1  0.12056833  0.11929278  0.38019802  1  2.641093  0  1.632004  2.382059  0  2.750698  0
Zr  Zr2  1  0.11685541  0.88259769  0.61697831  1  2.638739  0  1.629845  2.379638  0  2.746916  0
Zr  Zr3  1  0.88016439  0.12157207  0.37821759  1  2.636831  0  1.626126  2.371491  0  2.757475  0
Zr  Zr4  1  0.11903715  0.88293955  0.37597669  1  2.63544  0  1.626818  2.375271  0  2.750479  0
Zr  Zr5  1  0.87806730  0.12272739  0.61718195  1  2.63272  0  1.625938  2.377331  0  2.743896  0
H  H6  1  0.09288586  0.72043633  0.58783007  1  0.624111  0  0.331435  0.423399  0  0.857748  0
H  H7  1  0.09690179  0.09423960  0.21530440  1  0.616165  0  0.331811  0.425471  0  0.856394  0
H  H8  1  0.09192112  0.09407946  0.59464356  1  0.616602  0  0.333092  0.426265  0  0.852038  0
H  H9  1  0.71526530  0.09757877  0.59140186  1  0.599949  0  0.332274  0.424356  0  0.856855  0
H  H10  1  0.82238556  0.62714775  0.58795324  1  0.085577  0  0.110301  0.11684  0  0.991931  0
H  H11  1  0.17255214  0.55137252  0.40290429  1  0.113145  0  0.107733  0.124369  0  1.01114  0
H  H12  1  0.83063583  0.45312250  0.58746167  1  0.08817  0  0.112147  0.118636  0  0.989743  0
H  H13  1  0.56481622  0.87436615  0.90020856  1  0.073768  0  0.109769  0.116416  0  0.994337  0
H  H14  1  0.63003833  0.09838016  0.94770711  1  0.123059  0  0.1053  0.122697  0  1.024212  0
H  H15  1  0.39782244  0.87784561  0.07355769  1  0.102865  0  0.110385  0.117299  0  0.997872  0
H  H16  1  0.13249930  0.84666065  0.08597412  1  0.111124  0  0.11464  0.124328  0  0.980275  0
H  H17  1  0.84618704  0.14099464  0.09622439  1  0.079964  0  0.108922  0.125843  0  1.007122  0
H  H18  1  0.12338825  0.85392127  0.91789473  1  0.110616  0  0.110697  0.123527  0  1.013146  0
H  H19  1  0.58462877  0.43327471  0.63437533  1  0.104686  0  0.113415  0.121802  0  0.98271  0
H  H20  1  0.59716758  0.41565375  0.34676776  1  0.103063  0  0.108981  0.124397  0  1.011341  0
H  H21  1  0.41487811  0.60194419  0.62621425  1  0.13798  0  0.109047  0.119318  0  1.016517  0
H  H22  1  0.73995151  0.63421337  0.96617568  1  0.071261  0  0.105396  0.119949  0  0.975141  0
H  H23  1  0.82434475  0.54823113  0.88076162  1  0.080741  0  0.105751  0.120129  0  0.971385  0
H  H24  1  0.82613586  0.37884682  0.05058435  1  0.080978  0  0.104217  0.118115  0  0.976564  0
H  H25  1  0.74041388  0.46496279  0.13591777  1  0.076698  0  0.103125  0.117406  0  0.983931  0
H  H26  1  0.58410853  0.14043301  0.34782326  1  0.137302  0  0.112073  0.121625  0  0.984496  0
H  H27  1  0.59884121  0.84855570  0.63227572  1  0.061809  0  0.110209  0.126933  0  1.002118  0
H  H28  1  0.41389303  0.13120727  0.35778541  1  0.120382  0  0.101636  0.114024  0  1.023673  0
C  C29  1  0.99488907  0.70276392  0.49209960  1  1.564695  0  0.238576  0.642122  0  4.094804  0
C  C30  1  0.31182847  0.99504899  0.20199659  1  1.572066  0  0.236718  0.651433  0  4.090726  0
C  C31  1  0.00044720  0.30541300  0.49702505  1  1.584369  0  0.236558  0.651677  0  4.09484  0
C  C32  1  0.70011685  0.99493513  0.80580962  1  1.564814  0  0.239192  0.643568  0  4.091317  0
C  C33  1  0.99442198  0.70254146  0.80257211  1  1.595118  0  0.237823  0.647215  0  4.121446  0
C  C34  1  0.69954722  0.99934333  0.49087320  1  1.560568  0  0.239139  0.642078  0  4.095138  0
C  C35  1  0.99578126  0.30941353  0.20152039  1  1.609058  0  0.238558  0.648786  0  4.114109  0
C  C36  1  0.30686619  0.99181796  0.49887893  1  1.567918  0  0.236174  0.651609  0  4.088472  0
C  C37  1  0.30648643  0.70307168  0.48830999  1  1.569624  0  0.236124  0.64915  0  4.089467  0
C  C38  1  0.98744811  0.00064433  0.80723897  1  1.570075  0  0.235271  0.649663  0  4.090342  0
C  C39  1  0.69986143  0.31122566  0.49425819  1  1.547739  0  0.240043  0.644578  0  4.089746  0
C  C40  1  0.99555895  0.99694936  0.19754173  1  1.556653  0  0.239694  0.642805  0  4.091105  0
C  C41  1  0.00490738  0.40451025  0.49669303  1  -0.00792  0  -0.012908  -0.092163  0  3.91111  0
C  C42  1  0.99678725  0.60005848  0.49365351  1  0.039454  0  -0.009922  -0.011709  0  3.971422  0
C  C43  1  0.10255469  0.43147861  0.44647399  1  0.065392  0  0.028516  0.150222  0  3.993833  0
C  C44  1  0.90000399  0.57233937  0.54776389  1  -0.061791  0  -0.08278  -0.102361  0  3.979704  0
C  C45  1  0.09745968  0.52991976  0.44323002  1  0.033307  0  -0.084792  -0.160413  0  3.938856  0
C  C46  1  0.90479910  0.47602845  0.54778542  1  -0.004064  0  -0.075935  -0.074611  0  3.971904  0
C  C47  1  0.41896519  0.99023324  0.10701876  1  0.020391  0  -0.014132  -0.095063  0  3.904984  0
C  C48  1  0.60538147  0.98856131  0.91256881  1  -0.022327  0  -0.009614  -0.00952  0  3.966682  0
C  C49  1  0.48746428  0.05023565  0.07264660  1  0.047271  0  0.029665  0.14856  0  3.993113  0
C  C50  1  0.54222324  0.92346457  0.94887803  1  -0.005227  0  -0.085925  -0.108808  0  3.987588  0
C  C51  1  0.57891907  0.05010619  0.97521389  1  0.041273  0  -0.08436  -0.159334  0  3.939027  0
C  C52  1  0.45011708  0.92542706  0.04463105  1  -0.043778  0  -0.078387  -0.076994  0  3.97651  0
C  C53  1  0.98164231  0.00129501  0.91098348  1  -0.007441  0  -0.014122  -0.097188  0  3.900882  0
C  C54  1  0.99063229  0.99487992  0.10006389  1  -0.046374  0  -0.010611  -0.015094  0  3.966764  0
C  C55  1  0.90176416  0.08211356  0.96341187  1  0.077299  0  0.024733  0.143328  0  3.998182  0
C  C56  1  0.06861964  0.91252689  0.05095565  1  -0.060411  0  -0.07835  -0.093269  0  3.954377  0
C  C57  1  0.90724080  0.07823872  0.05668781  1  0.07555  0  -0.088162  -0.168228  0  3.964328  0
C  C58  1  0.06339623  0.91666130  0.95784069  1  0.017723  0  -0.073205  -0.068282  0  3.943328  0
C  C59  1  0.41045821  0.60457478  0.48261686  1  0.02213  0  -0.01338  -0.095408  0  3.898156  0
C  C60  1  0.60113512  0.41449807  0.49053658  1  0.001922  0  -0.011089  -0.015669  0  3.969552  0
C  C61  1  0.46352473  0.55142981  0.40248739  1  0.044479  0  0.025216  0.144206  0  3.997173  0
C  C62  1  0.55061663  0.46703652  0.56954879  1  -0.055772  0  -0.078437  -0.093223  0  3.954312  0
C  C63  1  0.55759904  0.45731868  0.40745113  1  0.033042  0  -0.088678  -0.169048  0  3.967597  0
C  C64  1  0.45672470  0.56052227  0.56483143  1  -0.008074  0  -0.072504  -0.064973  0  3.942902  0
C  C65  1  0.99593784  0.60357062  0.90403662  1  0.036823  0  0.001461  -0.104829  0  3.920641  0
C  C66  1  0.99390930  0.41236968  0.10380420  1  0.051619  0  0.002194  -0.104946  0  3.919045  0
C  C67  1  0.91497902  0.55408945  0.95867590  1  0.001517  0  0.007002  0.07957  0  3.87497  0
C  C68  1  0.07444340  0.46423108  0.05122448  1  0.210067  0  0.091947  0.013655  0  3.889043  0
C  C69  1  0.91494698  0.46124440  0.05353461  1  0.00727  0  0.007602  0.079074  0  3.870296  0
C  C70  1  0.07739298  0.55379909  0.95362213  1  0.232936  0  0.091413  0.011397  0  3.881814  0
C  C71  1  0.81186240  0.55963929  0.95465043  1  -0.028202  0  -0.143842  -0.197887  0  3.855492  0
C  C72  1  0.81248705  0.45382486  0.06113882  1  -0.031886  0  -0.143527  -0.194571  0  3.852649  0
C  C73  1  0.41047919  0.98636776  0.49925715  1  0.010477  0  -0.013945  -0.093785  0  3.899867  0
C  C74  1  0.60093541  0.99503827  0.49032250  1  -0.039755  0  -0.010291  -0.011728  0  3.965838  0
C  C75  1  0.46410382  0.90501189  0.57699876  1  0.029327  0  0.025808  0.143856  0  3.997155  0
C  C76  1  0.54996166  0.07513169  0.41156542  1  -0.043418  0  -0.081982  -0.098133  0  3.968905  0
C  C77  1  0.55828461  0.91042275  0.57177494  1  0.088668  0  -0.088244  -0.165906  0  3.957613  0
C  C78  1  0.45608455  0.06991622  0.41710137  1  -0.018109  0  -0.079538  -0.077843  0  3.98137  0
N  N79  1  0.15944544  0.42644843  0.09970002  1  0.434642  0  0.058294  0.516932  0  4.25017  0
N  N80  1  0.17322752  0.59313240  0.90146532  1  0.438378  0  0.059823  0.519452  0  4.251163  0
Cl  Cl81  1  0.23303423  0.34505872  0.39273998  1  -0.181517  0  0.000811  -0.066405  0  1.552342  0
Cl  Cl82  1  0.46725608  0.12453527  0.14560056  1  -0.172918  0  0.013288  -0.047732  0  1.571774  0
Cl  Cl83  1  0.79342228  0.19049180  0.92010924  1  -0.186221  0  -0.000406  -0.069841  0  1.518418  0
Cl  Cl84  1  0.41972210  0.59378952  0.29479603  1  -0.190996  0  -0.002331  -0.070749  0  1.504948  0
Cl  Cl85  1  0.42108701  0.79557637  0.68239211  1  -0.171307  0  0.001867  -0.06223  0  1.510366  0
O  O86  1  0.91642235  0.74307652  0.56855314  1  -1.183477  0  -0.357364  -0.621714  0  2.280909  0
O  O87  1  0.26741916  0.07392755  0.24047058  1  -1.172062  0  -0.35899  -0.61708  0  2.352307  0
O  O88  1  0.07543391  0.26437695  0.42039004  1  -1.179874  0  -0.358209  -0.616091  0  2.36231  0
O  O89  1  0.73668338  0.92098261  0.76279155  1  -1.179705  0  -0.359975  -0.625341  0  2.280807  0
O  O90  1  0.06978994  0.74379436  0.76286774  1  -1.168795  0  -0.351732  -0.61076  0  2.341999  0
O  O91  1  0.73686289  0.07770023  0.41605472  1  -1.178067  0  -0.351279  -0.614093  0  2.267908  0
O  O92  1  0.91918989  0.27100058  0.23702266  1  -1.170539  0  -0.343289  -0.601384  0  2.259497  0
O  O93  1  0.26209746  0.91921453  0.57536296  1  -1.177626  0  -0.363781  -0.6224  0  2.374657  0
O  O94  1  0.26369943  0.74311663  0.41452803  1  -1.181479  0  -0.363273  -0.622862  0  2.377331  0
O  O95  1  0.91452060  0.07779495  0.76358715  1  -1.179556  0  -0.362634  -0.62326  0  2.377244  0
O  O96  1  0.73665013  0.27173718  0.57257772  1  -1.177711  0  -0.35112  -0.616249  0  2.260983  0
O  O97  1  0.07448220  0.92172062  0.23370057  1  -1.174896  0  -0.350911  -0.61465  0  2.263329  0
O  O98  1  0.06659177  0.92405052  0.76779983  1  -1.170889  0  -0.346809  -0.608959  0  2.269528  0
O  O99  1  0.73902758  0.26906508  0.41910643  1  -1.182879  0  -0.356367  -0.619046  0  2.294997  0
O  O100  1  0.92102544  0.07570860  0.23616089  1  -1.17999  0  -0.357039  -0.620487  0  2.291085  0
O  O101  1  0.26625207  0.73943293  0.56793591  1  -1.179511  0  -0.346414  -0.607221  0  2.277788  0
O  O102  1  0.91845552  0.73694929  0.76457587  1  -1.159444  0  -0.333701  -0.594047  0  2.244024  0
O  O103  1  0.26863417  0.07021988  0.42291792  1  -1.17239  0  -0.348306  -0.617557  0  2.307736  0
O  O104  1  0.07432510  0.26752409  0.23834738  1  -1.169121  0  -0.340464  -0.595837  0  2.31041  0
O  O105  1  0.73786337  0.92467731  0.56818688  1  -1.181304  0  -0.356629  -0.616145  0  2.300777  0
O  O106  1  0.73601414  0.07453140  0.76468265  1  -1.178304  0  -0.348789  -0.606277  0  2.28163  0
O  O107  1  0.07275566  0.74104515  0.41634081  1  -1.179252  0  -0.35107  -0.609328  0  2.278766  0
O  O108  1  0.26960178  0.92192741  0.23537548  1  -1.177402  0  -0.351905  -0.617912  0  2.277272  0
O  O109  1  0.92090198  0.26955965  0.57328246  1  -1.178195  0  -0.350387  -0.617325  0  2.26284  0
O  O110  1  0.79579567  0.07072171  0.56429024  1  -1.225841  0  -0.693431  -1.068874  0  2.36053  0
O  O111  1  0.06524426  0.06838123  0.56658563  1  -1.238981  0  -0.695197  -1.066939  0  2.366302  0
O  O112  1  0.06770244  0.06910382  0.29532869  1  -1.246991  0  -0.693462  -1.073148  0  2.356603  0
O  O113  1  0.06472842  0.80045065  0.56363638  1  -1.253463  0  -0.693509  -1.070601  0  2.360454  0
O  O114  1  0.14753770  0.95152597  0.44827731  1  -1.198308  0  -0.791884  -1.147861  0  2.134383  0
O  O115  1  0.94908674  0.95310313  0.44643901  1  -1.200691  0  -0.791496  -1.149368  0  2.128066  0
O  O116  1  0.94995920  0.15042410  0.44851133  1  -1.200722  0  -0.790732  -1.152058  0  2.127523  0
O  O117  1  0.94729873  0.95310348  0.64577634  1  -1.199194  0  -0.790295  -1.150406  0  2.126349  0
O  O118  1  0.12867378  0.46015452  0.17530781  1  -0.408983  0  -0.10919  -0.294971  0  1.918625  0
O  O119  1  0.25384455  0.36893521  0.05725777  1  -0.416875  0  -0.120329  -0.311532  0  1.904638  0
O  O120  1  0.25131768  0.55943998  0.82540809  1  -0.429885  0  -0.108872  -0.300773  0  1.925526  0
O  O121  1  0.16851740  0.65221459  0.94159183  1  -0.423892  0  -0.112382  -0.304385  0  1.906745  0
