# generated using pymatgen
data_CdH8C10N5O8
_symmetry_space_group_name_H-M   'P 1'
_cell_length_a   4.81451620
_cell_length_b   10.48609611
_cell_length_c   13.50239133
_cell_angle_alpha   103.05631432
_cell_angle_beta   97.39990580
_cell_angle_gamma   92.43503448
_symmetry_Int_Tables_number   1
_chemical_formula_structural   CdH8C10N5O8
_chemical_formula_sum   'Cd2 H16 C20 N10 O16'
_cell_volume   656.71139329
_cell_formula_units_Z   2
loop_
 _symmetry_equiv_pos_site_id
 _symmetry_equiv_pos_as_xyz
  1  'x, y, z'
loop_
 _atom_site_type_symbol
 _atom_site_label
 _atom_site_symmetry_multiplicity
 _atom_site_fract_x
 _atom_site_fract_y
 _atom_site_fract_z
 _atom_site_occupancy
 _atom_site_hle17_bader_spin_density
 _atom_site_hle17_ddec_charge
 _atom_site_hle17_ddec_spin_density
 _atom_site_hle17_ddec_sum_bond_order
 _atom_site_hle17_magmom
 _atom_site_hse06_10hf_bader_spin_density
 _atom_site_hse06_10hf_ddec_charge
 _atom_site_hse06_10hf_ddec_spin_density
 _atom_site_hse06_10hf_ddec_sum_bond_order
 _atom_site_hse06_10hf_magmom
 _atom_site_hse06_bader_spin_density
 _atom_site_hse06_ddec_charge
 _atom_site_hse06_ddec_spin_density
 _atom_site_hse06_ddec_sum_bond_order
 _atom_site_hse06_magmom
 _atom_site_pbe_bader_spin_density
 _atom_site_pbe_cm5_charge
 _atom_site_pbe_ddec_charge
 _atom_site_pbe_ddec_spin_density
 _atom_site_pbe_ddec_sum_bond_order
 _atom_site_pbe_magmom
Cd  Cd0  1  0.21418490  0.14398718  0.57815410  1  0  1.262654  0  1.614626  0  0  1.090799  0  2.05539  0  0  1.143431  0  2.001157  0  0  0.801786  1.052751  0  2.093046  0
Cd  Cd1  1  0.78581517  0.85601346  0.42184564  1  0  1.262627  0  1.614655  0  0  1.090766  0  2.055423  0  0  1.143395  0  2.001194  0  0  0.801764  1.052713  0  2.093079  0
H  H2  1  0.50096163  0.21917987  0.82669815  1  0  0.122906  0  0.92939  0  0  0.132017  0  0.993006  0  0  0.134849  0  0.989223  0  0  0.147304  0.129938  0  0.99569  0
H  H3  1  0.49904068  0.78082175  0.17330187  1  0  0.122912  0  0.929375  0  0  0.132026  0  0.99298  0  0  0.134858  0  0.989198  0  0  0.147306  0.129947  0  0.995663  0
H  H4  1  0.58256880  0.36084057  0.00439249  1  0  0.097833  0  0.958544  0  0  0.110054  0  1.026199  0  0  0.111278  0  1.025097  0  0  0.119612  0.109069  0  1.02709  0
H  H5  1  0.41743110  0.63915909  0.99560781  1  0  0.097845  0  0.958542  0  0  0.110065  0  1.026187  0  0  0.111288  0  1.025085  0  0  0.119622  0.109087  0  1.027084  0
H  H6  1  0.27558890  0.43516162  0.04819704  1  0  0.09472  0  0.946206  0  0  0.098787  0  1.026726  0  0  0.100489  0  1.025661  0  0  0.112714  0.097457  0  1.027623  0
H  H7  1  0.72440908  0.56483902  0.95180260  1  0  0.094697  0  0.946187  0  0  0.098759  0  1.026713  0  0  0.100462  0  1.025647  0  0  0.1127  0.097436  0  1.027617  0
H  H8  1  0.74437892  0.32140375  0.13774964  1  0  0.120643  0  0.989039  0  0  0.117006  0  1.070095  0  0  0.121543  0  1.064729  0  0  0.118725  0.113686  0  1.073976  0
H  H9  1  0.25561889  0.67859591  0.86225056  1  0  0.120693  0  0.989018  0  0  0.117049  0  1.070087  0  0  0.121584  0  1.064721  0  0  0.118739  0.11373  0  1.073967  0
H  H10  1  0.32883035  0.02835590  0.16354288  1  0  0.134102  0  0.928445  0  0  0.138132  0  0.995404  0  0  0.142476  0  0.990536  0  0  0.120326  0.134964  0  0.998832  0
H  H11  1  0.67116971  0.97164474  0.83645760  1  0  0.134122  0  0.928407  0  0  0.138149  0  0.995374  0  0  0.142493  0  0.990507  0  0  0.120325  0.134981  0  0.998802  0
H  H12  1  0.81067791  0.39889160  0.70691245  1  0  0.10207  0  0.97588  0  0  0.105908  0  1.046458  0  0  0.109407  0  1.042103  0  0  0.127455  0.103331  0  1.049638  0
H  H13  1  0.18932424  0.60110904  0.29308813  1  0  0.102043  0  0.975886  0  0  0.105878  0  1.046474  0  0  0.109377  0  1.042119  0  0  0.127435  0.1033  0  1.049654  0
H  H14  1  0.67176546  0.28331590  0.50756595  1  0  0.431342  0  0.870681  0  0  0.39476  0  0.944215  0  0  0.406489  0  0.92726  0  0  0.287955  0.386463  0  0.956186  0
H  H15  1  0.32823251  0.71668474  0.49243370  1  0  0.431338  0  0.870694  0  0  0.394756  0  0.944225  0  0  0.406484  0  0.927272  0  0  0.287963  0.386458  0  0.956198  0
H  H16  1  0.45864540  0.38804037  0.55297546  1  0  0.422277  0  0.86545  0  0  0.385155  0  0.94444  0  0  0.396336  0  0.927826  0  0  0.294049  0.377209  0  0.956219  0
H  H17  1  0.54135467  0.61196027  0.44702429  1  0  0.422305  0  0.865443  0  0  0.385184  0  0.944402  0  0  0.396366  0  0.927787  0  0  0.294074  0.377238  0  0.956181  0
C  C18  1  0.33590016  0.28418000  0.81685097  1  0  0.187996  0  3.631203  0  0  0.104408  0  3.900578  0  0  0.119732  0  3.911107  0  0  0.169175  0.094518  0  3.893251  0
C  C19  1  0.66410200  0.71582064  0.18314888  1  0  0.188001  0  3.631171  0  0  0.104418  0  3.900548  0  0  0.119742  0  3.911077  0  0  0.169188  0.094527  0  3.893218  0
C  C20  1  0.42728482  0.43170458  0.99367792  1  0  -0.040809  0  3.60293  0  0  -0.118948  0  3.862343  0  0  -0.116737  0  3.873637  0  0  -0.049286  -0.12023  0  3.854673  0
C  C21  1  0.57271538  0.56829704  0.00632274  1  0  -0.040809  0  3.602913  0  0  -0.118939  0  3.862324  0  0  -0.116727  0  3.873617  0  0  -0.049301  -0.120269  0  3.854694  0
C  C22  1  0.15356280  0.10820507  0.30052129  1  0  -0.198574  0  3.662347  0  0  -0.178174  0  3.911501  0  0  -0.197524  0  3.934164  0  0  -0.031728  -0.165827  0  3.89663  0
C  C23  1  0.84643502  0.89179458  0.69947817  1  0  -0.198586  0  3.662314  0  0  -0.178223  0  3.911516  0  0  -0.197574  0  3.934177  0  0  -0.031728  -0.165874  0  3.896647  0
C  C24  1  0.97283155  0.20242399  0.35144304  1  0  0.388383  0  3.789089  0  0  0.354926  0  4.063086  0  0  0.380202  0  4.07287  0  0  0.123095  0.338164  0  4.056021  0
C  C25  1  0.02716612  0.79757469  0.64855624  1  0  0.388399  0  3.789149  0  0  0.35496  0  4.063127  0  0  0.380238  0  4.072908  0  0  0.123087  0.338197  0  4.056062  0
C  C26  1  0.83431729  0.28048775  0.28611784  1  0  -0.043577  0  3.61078  0  0  -0.058122  0  3.874987  0  0  -0.071689  0  3.896183  0  0  0.065023  -0.049729  0  3.860834  0
C  C27  1  0.16568038  0.71951093  0.71388144  1  0  -0.043629  0  3.61086  0  0  -0.058169  0  3.875054  0  0  -0.071738  0  3.89625  0  0  0.065014  -0.049774  0  3.8609  0
C  C28  1  0.85529096  0.26090217  0.18249418  1  0  -0.06916  0  3.722737  0  0  -0.113954  0  4.000992  0  0  -0.102687  0  4.013895  0  0  -0.06079  -0.120715  0  3.992121  0
C  C29  1  0.14470670  0.73909651  0.81750584  1  0  -0.069214  0  3.722743  0  0  -0.11401  0  4.000996  0  0  -0.102736  0  4.013889  0  0  -0.060802  -0.120772  0  3.992129  0
C  C30  1  0.03463293  0.17145934  0.13919570  1  0  0.057049  0  3.736302  0  0  0.036475  0  4.001348  0  0  0.024851  0  4.024714  0  0  0.065285  0.043601  0  3.985573  0
C  C31  1  0.96536489  0.82854031  0.86080376  1  0  0.05711  0  3.736249  0  0  0.036528  0  4.001268  0  0  0.024902  0  4.024634  0  0  0.065301  0.043654  0  3.985495  0
C  C32  1  0.18694018  0.09747902  0.19850682  1  0  -0.031975  0  3.681366  0  0  -0.079303  0  3.952459  0  0  -0.067972  0  3.966551  0  0  -0.060481  -0.086183  0  3.942705  0
C  C33  1  0.81305974  0.90252064  0.80149274  1  0  -0.03205  0  3.681318  0  0  -0.079378  0  3.952429  0  0  -0.068047  0  3.966522  0  0  -0.060504  -0.086256  0  3.942672  0
C  C34  1  0.30835485  0.01574644  0.35321140  1  0  0.69018  0  3.866862  0  0  0.632894  0  4.162092  0  0  0.670186  0  4.154126  0  0  0.209061  0.607332  0  4.167044  0
C  C35  1  0.69164520  0.98425419  0.64678908  1  0  0.690261  0  3.86682  0  0  0.632991  0  4.162038  0  0  0.670283  0  4.154067  0  0  0.209104  0.607429  0  4.166991  0
C  C36  1  0.98476203  0.37747124  0.75879337  1  0  0.198486  0  3.702906  0  0  0.144308  0  3.993563  0  0  0.155311  0  4.00746  0  0  0.138232  0.137108  0  3.984021  0
C  C37  1  0.01523802  0.62252940  0.24120711  1  0  0.198528  0  3.702884  0  0  0.144353  0  3.993545  0  0  0.155358  0  4.007442  0  0  0.13824  0.137152  0  3.983999  0
N  N38  1  0.05640873  0.44586684  0.85494938  1  0  -0.262758  0  2.855789  0  0  -0.254601  0  3.122779  0  0  -0.26495  0  3.13793  0  0  -0.214656  -0.247464  0  3.112548  0
N  N39  1  0.94359328  0.55413282  0.14505028  1  0  -0.262764  0  2.855751  0  0  -0.254617  0  3.12276  0  0  -0.264966  0  3.13791  0  0  -0.214658  -0.24748  0  3.112525  0
N  N40  1  0.15184150  0.27660363  0.73211609  1  0  -0.4341  0  3.19168  0  0  -0.356883  0  3.484385  0  0  -0.381044  0  3.498852  0  0  -0.354918  -0.340353  0  3.474176  0
N  N41  1  0.84816066  0.72339701  0.26788376  1  0  -0.434121  0  3.191695  0  0  -0.356906  0  3.4844  0  0  -0.381069  0  3.49887  0  0  -0.354929  -0.340377  0  3.47419  0
N  N42  1  0.28025285  0.38521589  0.89017868  1  0  0.056334  0  3.570901  0  0  0.178353  0  3.754913  0  0  0.169575  0  3.776016  0  0  -0.132118  0.184005  0  3.740472  0
N  N43  1  0.71974722  0.61478475  0.10982106  1  0  0.056339  0  3.570859  0  0  0.17835  0  3.754859  0  0  0.169573  0  3.775961  0  0  -0.132103  0.18401  0  3.740429  0
N  N44  1  0.66934145  0.38770110  0.32542563  1  0  0.487106  0  3.930725  0  0  0.528984  0  4.20878  0  0  0.550962  0  4.219877  0  0  0.04935  0.514501  0  4.201119  0
N  N45  1  0.33065847  0.61229856  0.67457394  1  0  0.487118  0  3.93071  0  0  0.528992  0  4.208778  0  0  0.550969  0  4.219879  0  0  0.049367  0.514509  0  4.201116  0
N  N46  1  0.07092917  0.15942073  0.03314659  1  0  0.465734  0  3.953046  0  0  0.526717  0  4.20857  0  0  0.548672  0  4.219466  0  0  0.044261  0.512173  0  4.201066  0
N  N47  1  0.92906895  0.84058089  0.96685323  1  0  0.465623  0  3.95317  0  0  0.526674  0  4.208613  0  0  0.54863  0  4.21951  0  0  0.044204  0.512129  0  4.201111  0
O  O48  1  0.52422040  0.96986587  0.31831029  1  0  -0.61306  0  2.003825  0  0  -0.548804  0  2.25262  0  0  -0.579126  0  2.244404  0  0  -0.304633  -0.527563  0  2.257704  0
O  O49  1  0.47577951  0.03013379  0.68168927  1  0  -0.613082  0  2.003841  0  0  -0.548826  0  2.252626  0  0  -0.579153  0  2.244416  0  0  -0.304657  -0.527586  0  2.257711  0
O  O50  1  0.21780548  0.98262986  0.43058894  1  0  -0.719273  0  2.1327  0  0  -0.640012  0  2.410592  0  0  -0.669505  0  2.393524  0  0  -0.346406  -0.61893  0  2.421638  0
O  O51  1  0.78219444  0.01736980  0.56941062  1  0  -0.719299  0  2.132665  0  0  -0.640028  0  2.410528  0  0  -0.66952  0  2.393459  0  0  -0.3464  -0.618945  0  2.421575  0
O  O52  1  0.93380531  0.21576122  0.44496787  1  0  -0.585797  0  2.11688  0  0  -0.523802  0  2.365588  0  0  -0.553777  0  2.35967  0  0  -0.305371  -0.502666  0  2.368774  0
O  O53  1  0.06619460  0.78423843  0.55503244  1  0  -0.585775  0  2.116943  0  0  -0.523775  0  2.365623  0  0  -0.553752  0  2.359707  0  0  -0.305352  -0.50264  0  2.368812  0
O  O54  1  0.72320624  0.44666559  0.41820837  1  0  -0.370891  0  1.800358  0  0  -0.344774  0  2.001458  0  0  -0.3569  0  1.995051  0  0  -0.129691  -0.336726  0  2.006042  0
O  O55  1  0.27678934  0.55333308  0.58179081  1  0  -0.370901  0  1.800311  0  0  -0.344811  0  2.001441  0  0  -0.356929  0  1.995027  0  0  -0.129718  -0.336765  0  2.006033  0
O  O56  1  0.48588016  0.42126271  0.26428487  1  0  -0.364742  0  1.782873  0  0  -0.348722  0  1.992474  0  0  -0.362727  0  1.993279  0  0  -0.132283  -0.339132  0  1.991964  0
O  O57  1  0.51412200  0.57873794  0.73571498  1  0  -0.364725  0  1.782848  0  0  -0.348697  0  1.992467  0  0  -0.362703  0  1.993274  0  0  -0.132276  -0.339108  0  1.99196  0
O  O58  1  0.90455084  0.21295838  0.97876519  1  0  -0.381087  0  1.777604  0  0  -0.375837  0  1.985903  0  0  -0.3887  0  1.982783  0  0  -0.148304  -0.367358  0  1.988273  0
O  O59  1  0.09544922  0.78704226  0.02123529  1  0  -0.381069  0  1.777591  0  0  -0.375852  0  1.985861  0  0  -0.38872  0  1.982746  0  0  -0.1483  -0.367371  0  1.988232  0
O  O60  1  0.26822683  0.09725047  0.00040998  1  0  -0.354283  0  1.756833  0  0  -0.349078  0  1.957462  0  0  -0.361364  0  1.955354  0  0  -0.136727  -0.340772  0  1.958879  0
O  O61  1  0.73177099  0.90274918  0.99958948  1  0  -0.354206  0  1.756925  0  0  -0.348999  0  1.957524  0  0  -0.361285  0  1.955415  0  0  -0.136673  -0.340695  0  1.958943  0
O  O62  1  0.53490693  0.30366832  0.55762365  1  0  -0.849731  0  1.911799  0  0  -0.788669  0  2.128665  0  0  -0.811083  0  2.092811  0  0  -0.58601  -0.7726  0  2.153641  0
O  O63  1  0.46509313  0.69633232  0.44237683  1  0  -0.849735  0  1.911783  0  0  -0.788674  0  2.128627  0  0  -0.811087  0  2.092772  0  0  -0.586037  -0.772605  0  2.153605  0
