# generated using pymatgen
data_CuH11C8SN3
_symmetry_space_group_name_H-M   'P 1'
_cell_length_a   5.71928675
_cell_length_b   9.38669971
_cell_length_c   17.70746927
_cell_angle_alpha   92.66080383
_cell_angle_beta   89.99909901
_cell_angle_gamma   90.00065962
_symmetry_Int_Tables_number   1
_chemical_formula_structural   CuH11C8SN3
_chemical_formula_sum   'Cu4 H44 C32 S4 N12'
_cell_volume   949.60460681
_cell_formula_units_Z   4
loop_
 _symmetry_equiv_pos_site_id
 _symmetry_equiv_pos_as_xyz
  1  'x, y, z'
loop_
 _atom_site_type_symbol
 _atom_site_label
 _atom_site_symmetry_multiplicity
 _atom_site_fract_x
 _atom_site_fract_y
 _atom_site_fract_z
 _atom_site_occupancy
 _atom_site_hle17_bader_spin_density
 _atom_site_hle17_ddec_charge
 _atom_site_hle17_ddec_spin_density
 _atom_site_hle17_ddec_sum_bond_order
 _atom_site_hle17_magmom
 _atom_site_hse06_10hf_bader_spin_density
 _atom_site_hse06_10hf_ddec_charge
 _atom_site_hse06_10hf_ddec_spin_density
 _atom_site_hse06_10hf_ddec_sum_bond_order
 _atom_site_hse06_10hf_magmom
 _atom_site_hse06_bader_spin_density
 _atom_site_hse06_ddec_charge
 _atom_site_hse06_ddec_spin_density
 _atom_site_hse06_ddec_sum_bond_order
 _atom_site_hse06_magmom
 _atom_site_pbe_bader_spin_density
 _atom_site_pbe_cm5_charge
 _atom_site_pbe_ddec_charge
 _atom_site_pbe_ddec_spin_density
 _atom_site_pbe_ddec_sum_bond_order
 _atom_site_pbe_magmom
Cu  Cu0  1  0.62517079  0.37073160  0.95952534  1  0  0.414729  0  2.123163  0  0  0.33211  0  2.606872  0  0  0.327093  0  2.567322  0  0  0.487095  0.336141  0  2.633746  0
Cu  Cu1  1  0.12520939  0.12928199  0.54047631  1  0  0.41466  0  2.123365  0  0  0.332011  0  2.607106  0  0  0.327084  0  2.567518  0  0  0.487061  0.336059  0  2.634023  0
Cu  Cu2  1  0.37481774  0.62926566  0.04047526  1  0  0.414644  0  2.12331  0  0  0.33203  0  2.607026  0  0  0.327046  0  2.567465  0  0  0.487075  0.336036  0  2.633942  0
Cu  Cu3  1  0.87482459  0.87072913  0.45952406  1  0  0.414682  0  2.123254  0  0  0.33207  0  2.606917  0  0  0.327101  0  2.56741  0  0  0.487104  0.336119  0  2.633821  0
H  H4  1  0.47443602  0.85771490  0.77645188  1  0  0.111586  0  0.956208  0  0  0.131819  0  1.018968  0  0  0.133627  0  1.018267  0  0  0.094216  0.130541  0  1.019669  0
H  H5  1  0.97442763  0.64230055  0.72354538  1  0  0.111568  0  0.9563  0  0  0.13182  0  1.019042  0  0  0.133629  0  1.018338  0  0  0.094248  0.130546  0  1.019738  0
H  H6  1  0.52555775  0.14228022  0.22355149  1  0  0.111515  0  0.956217  0  0  0.131755  0  1.018984  0  0  0.133564  0  1.018283  0  0  0.094185  0.130476  0  1.019683  0
H  H7  1  0.02556264  0.35770737  0.27645322  1  0  0.111521  0  0.956231  0  0  0.131762  0  1.018994  0  0  0.133569  0  1.018294  0  0  0.094208  0.130487  0  1.019692  0
H  H8  1  0.18157358  0.88700848  0.74888024  1  0  0.11783  0  0.956574  0  0  0.137738  0  1.018862  0  0  0.139074  0  1.019104  0  0  0.092712  0.136965  0  1.018624  0
H  H9  1  0.68156494  0.61300196  0.75111718  1  0  0.117771  0  0.956649  0  0  0.137707  0  1.018906  0  0  0.139043  0  1.019153  0  0  0.092711  0.136936  0  1.018669  0
H  H10  1  0.81842194  0.11298345  0.25112418  1  0  0.117713  0  0.956688  0  0  0.137629  0  1.018975  0  0  0.138965  0  1.019219  0  0  0.092701  0.136861  0  1.01873  0
H  H11  1  0.31842708  0.38700489  0.24887969  1  0  0.11773  0  0.956638  0  0  0.137661  0  1.01891  0  0  0.138996  0  1.019156  0  0  0.09269  0.136892  0  1.018672  0
H  H12  1  0.24578322  0.83451556  0.84236376  1  0  0.12663  0  0.933414  0  0  0.148667  0  0.989353  0  0  0.150232  0  0.989495  0  0  0.096908  0.146987  0  0.990522  0
H  H13  1  0.74578915  0.66548888  0.65763377  1  0  0.126645  0  0.933281  0  0  0.148631  0  0.989306  0  0  0.150195  0  0.989446  0  0  0.096894  0.14695  0  0.990476  0
H  H14  1  0.75421405  0.16547957  0.15764130  1  0  0.126674  0  0.933387  0  0  0.148707  0  0.989343  0  0  0.150277  0  0.989478  0  0  0.096884  0.147018  0  0.990522  0
H  H15  1  0.25420812  0.33451371  0.34236526  1  0  0.126605  0  0.933348  0  0  0.148622  0  0.989336  0  0  0.150188  0  0.989476  0  0  0.096897  0.146943  0  0.990503  0
H  H16  1  0.83564687  0.09073732  0.89731275  1  0  0.077613  0  0.941722  0  0  0.089109  0  1.014108  0  0  0.09028  0  1.013058  0  0  0.106012  0.088261  0  1.014756  0
H  H17  1  0.33566867  0.40928076  0.60268347  1  0  0.0776  0  0.941739  0  0  0.089128  0  1.01412  0  0  0.090293  0  1.01308  0  0  0.106031  0.08828  0  1.014771  0
H  H18  1  0.16433641  0.90925994  0.10269462  1  0  0.077662  0  0.941575  0  0  0.089154  0  1.014034  0  0  0.090319  0  1.013  0  0  0.106085  0.088305  0  1.014685  0
H  H19  1  0.66433035  0.59073355  0.39731472  1  0  0.07759  0  0.941723  0  0  0.089079  0  1.014126  0  0  0.090241  0  1.01309  0  0  0.10605  0.088232  0  1.014775  0
H  H20  1  0.67929356  0.92841446  0.87952636  1  0  0.071505  0  0.940718  0  0  0.088946  0  1.003622  0  0  0.088494  0  1.005006  0  0  0.107108  0.089398  0  1.002113  0
H  H21  1  0.17931468  0.57159917  0.62047002  1  0  0.071455  0  0.940742  0  0  0.088913  0  1.003629  0  0  0.088497  0  1.004971  0  0  0.107115  0.08936  0  1.002124  0
H  H22  1  0.32069847  0.07157960  0.12047924  1  0  0.071433  0  0.940658  0  0  0.088914  0  1.003596  0  0  0.088485  0  1.004957  0  0  0.107136  0.089363  0  1.002089  0
H  H23  1  0.82068259  0.42841302  0.37952699  1  0  0.071532  0  0.940696  0  0  0.088952  0  1.003609  0  0  0.088529  0  1.004954  0  0  0.10711  0.089399  0  1.002105  0
H  H24  1  0.02592240  0.16211040  0.76403573  1  0  0.133468  0  0.994606  0  0  0.142917  0  1.055866  0  0  0.145435  0  1.056729  0  0  0.102958  0.141187  0  1.055259  0
H  H25  1  0.52592079  0.33789404  0.73595940  1  0  0.13347  0  0.994717  0  0  0.142902  0  1.055989  0  0  0.145421  0  1.056856  0  0  0.102948  0.141177  0  1.055372  0
H  H26  1  0.97406962  0.83788260  0.23596646  1  0  0.133526  0  0.994647  0  0  0.142944  0  1.055937  0  0  0.145463  0  1.056799  0  0  0.102974  0.141219  0  1.055321  0
H  H27  1  0.47408172  0.66210642  0.26403789  1  0  0.133458  0  0.994661  0  0  0.142925  0  1.055893  0  0  0.145444  0  1.056754  0  0  0.102933  0.141194  0  1.055291  0
H  H28  1  0.20501289  0.49459600  0.89528492  1  0  0.116151  0  0.993599  0  0  0.133399  0  1.060915  0  0  0.135441  0  1.059744  0  0  0.086097  0.131713  0  1.062592  0
H  H29  1  0.70502357  0.00541168  0.60471280  1  0  0.116198  0  0.993536  0  0  0.133411  0  1.060881  0  0  0.135451  0  1.059723  0  0  0.086091  0.131724  0  1.062555  0
H  H30  1  0.79496689  0.50539699  0.10471444  1  0  0.116199  0  0.993581  0  0  0.133441  0  1.060908  0  0  0.135481  0  1.059741  0  0  0.086152  0.131757  0  1.062579  0
H  H31  1  0.29499818  0.99458985  0.39528846  1  0  0.116199  0  0.99358  0  0  0.133398  0  1.060945  0  0  0.135443  0  1.059778  0  0  0.086089  0.13171  0  1.062618  0
H  H32  1  0.98556762  0.43816360  0.82968651  1  0  0.117299  0  0.96168  0  0  0.134405  0  1.03128  0  0  0.136381  0  1.030576  0  0  0.089513  0.132954  0  1.031985  0
H  H33  1  0.48558076  0.06184581  0.67031499  1  0  0.117307  0  0.96169  0  0  0.134381  0  1.031315  0  0  0.136356  0  1.030612  0  0  0.089515  0.132933  0  1.032024  0
H  H34  1  0.01441741  0.56182512  0.17030993  1  0  0.117256  0  0.961815  0  0  0.134435  0  1.031344  0  0  0.13641  0  1.030653  0  0  0.089529  0.132993  0  1.032033  0
H  H35  1  0.51443574  0.93815784  0.32968633  1  0  0.117326  0  0.961678  0  0  0.134388  0  1.031327  0  0  0.136367  0  1.030619  0  0  0.089493  0.132938  0  1.032033  0
H  H36  1  0.26111159  0.49739897  0.79671665  1  0  0.105368  0  0.93921  0  0  0.12921  0  0.996053  0  0  0.130791  0  0.995704  0  0  0.087481  0.127735  0  0.997061  0
H  H37  1  0.76112767  0.00261119  0.70328030  1  0  0.105356  0  0.939185  0  0  0.129188  0  0.99604  0  0  0.130769  0  0.99569  0  0  0.087468  0.127719  0  0.997045  0
H  H38  1  0.73887868  0.50259402  0.20328328  1  0  0.105396  0  0.939277  0  0  0.129226  0  0.996132  0  0  0.130807  0  0.995783  0  0  0.08747  0.127754  0  0.99714  0
H  H39  1  0.23889408  0.99739674  0.29672168  1  0  0.105355  0  0.939234  0  0  0.129219  0  0.996042  0  0  0.130799  0  0.995693  0  0  0.087481  0.127746  0  0.997047  0
H  H40  1  0.75389516  0.95170714  0.01296675  1  0  0.081888  0  0.929143  0  0  0.102075  0  0.98362  0  0  0.102067  0  0.985714  0  0  0.095545  0.102631  0  0.981002  0
H  H41  1  0.25389708  0.54830503  0.48702850  1  0  0.081812  0  0.929095  0  0  0.10199  0  0.983584  0  0  0.101982  0  0.985675  0  0  0.095536  0.102547  0  0.980965  0
H  H42  1  0.24608812  0.04828799  0.98703888  1  0  0.081819  0  0.929236  0  0  0.102049  0  0.983615  0  0  0.102045  0  0.985707  0  0  0.095543  0.102609  0  0.980996  0
H  H43  1  0.74610019  0.45170182  0.51296951  1  0  0.081859  0  0.929199  0  0  0.102025  0  0.983652  0  0  0.102018  0  0.985743  0  0  0.095565  0.102583  0  0.981033  0
H  H44  1  0.65457018  0.13023107  0.01996122  1  0  0.062351  0  0.995968  0  0  0.071843  0  1.0752  0  0  0.073859  0  1.073834  0  0  0.078783  0.070705  0  1.075292  0
H  H45  1  0.15458589  0.36977545  0.48003824  1  0  0.062293  0  0.995853  0  0  0.071734  0  1.075185  0  0  0.073749  0  1.073818  0  0  0.07875  0.070594  0  1.07528  0
H  H46  1  0.34541485  0.86976406  0.98004441  1  0  0.062396  0  0.995932  0  0  0.071853  0  1.075199  0  0  0.073874  0  1.073828  0  0  0.078803  0.070712  0  1.075299  0
H  H47  1  0.84541138  0.63023140  0.51996033  1  0  0.062397  0  0.995902  0  0  0.071805  0  1.075208  0  0  0.073822  0  1.073838  0  0  0.078773  0.070666  0  1.075303  0
C  C48  1  0.11023500  0.34860995  0.02999821  1  0  0.293161  0  3.925666  0  0  0.284201  0  4.213622  0  0  0.300797  0  4.2269  0  0  0.14804  0.271892  0  4.204503  0
C  C49  1  0.61028939  0.15138669  0.46999276  1  0  0.292636  0  3.924951  0  0  0.283664  0  4.212975  0  0  0.300261  0  4.226274  0  0  0.147738  0.271358  0  4.203852  0
C  C50  1  0.88974653  0.65138303  0.96999438  1  0  0.292675  0  3.925291  0  0  0.283695  0  4.213326  0  0  0.300295  0  4.226611  0  0  0.147756  0.271387  0  4.204206  0
C  C51  1  0.38974285  0.84861376  0.53000284  1  0  0.292822  0  3.925289  0  0  0.28385  0  4.213303  0  0  0.300451  0  4.226586  0  0  0.147861  0.271544  0  4.204183  0
C  C52  1  0.31903511  0.05423681  0.82020589  1  0  0.217873  0  3.744299  0  0  0.208157  0  4.007496  0  0  0.218033  0  4.027102  0  0  0.098026  0.201712  0  3.994116  0
C  C53  1  0.81904902  0.44577691  0.67979369  1  0  0.217962  0  3.744242  0  0  0.208249  0  4.007491  0  0  0.218126  0  4.027094  0  0  0.098048  0.201805  0  3.994111  0
C  C54  1  0.68096216  0.94575618  0.17979799  1  0  0.217761  0  3.744607  0  0  0.208105  0  4.007747  0  0  0.21798  0  4.027354  0  0  0.097953  0.201666  0  3.994364  0
C  C55  1  0.18095874  0.55423314  0.32020270  1  0  0.217887  0  3.744153  0  0  0.208167  0  4.007404  0  0  0.218042  0  4.027006  0  0  0.09804  0.201722  0  3.994026  0
C  C56  1  0.26137062  0.28864337  0.84167681  1  0  0.268224  0  3.785957  0  0  0.268069  0  4.054475  0  0  0.27765  0  4.071362  0  0  0.092358  0.261822  0  4.042589  0
C  C57  1  0.76138443  0.21136572  0.65832293  1  0  0.268165  0  3.786123  0  0  0.268103  0  4.054514  0  0  0.27768  0  4.07141  0  0  0.09238  0.261858  0  4.042632  0
C  C58  1  0.73862315  0.71135175  0.15832430  1  0  0.268438  0  3.785679  0  0  0.268159  0  4.054346  0  0  0.277739  0  4.071232  0  0  0.092409  0.261909  0  4.042467  0
C  C59  1  0.23862682  0.78863900  0.34167502  1  0  0.268308  0  3.785938  0  0  0.268227  0  4.054344  0  0  0.277807  0  4.071235  0  0  0.092438  0.261982  0  4.042462  0
C  C60  1  0.30498300  0.90022881  0.79613329  1  0  -0.357476  0  3.742643  0  0  -0.435472  0  3.980489  0  0  -0.43852  0  3.987587  0  0  -0.233036  -0.433287  0  3.976105  0
C  C61  1  0.80498525  0.59978133  0.70386466  1  0  -0.35742  0  3.742806  0  0  -0.435414  0  3.980669  0  0  -0.438462  0  3.987771  0  0  -0.233037  -0.433235  0  3.976285  0
C  C62  1  0.69501427  0.09976418  0.20386947  1  0  -0.357294  0  3.74282  0  0  -0.435316  0  3.980607  0  0  -0.438366  0  3.987707  0  0  -0.232972  -0.433128  0  3.976222  0
C  C63  1  0.19501202  0.40022659  0.29613394  1  0  -0.357276  0  3.742566  0  0  -0.435281  0  3.980449  0  0  -0.438328  0  3.987551  0  0  -0.233  -0.433103  0  3.976062  0
C  C64  1  0.66932289  0.03567185  0.90683233  1  0  -0.008031  0  3.632651  0  0  -0.074059  0  3.894926  0  0  -0.069097  0  3.904801  0  0  -0.054301  -0.076789  0  3.886653  0
C  C65  1  0.16934628  0.46434094  0.59316626  1  0  -0.008038  0  3.632404  0  0  -0.074107  0  3.894712  0  0  -0.069165  0  3.904577  0  0  -0.054388  -0.07683  0  3.886441  0
C  C66  1  0.33066564  0.96432541  0.09317278  1  0  -0.007907  0  3.632222  0  0  -0.074132  0  3.894829  0  0  -0.069195  0  3.904726  0  0  -0.054438  -0.076853  0  3.886559  0
C  C67  1  0.83065624  0.53566805  0.40683293  1  0  -0.008099  0  3.632506  0  0  -0.074094  0  3.894729  0  0  -0.069144  0  3.904592  0  0  -0.05441  -0.076823  0  3.886463  0
C  C68  1  0.17435083  0.16675489  0.80200136  1  0  -0.334405  0  3.724738  0  0  -0.358873  0  3.979433  0  0  -0.369363  0  3.998318  0  0  -0.125481  -0.351571  0  3.966349  0
C  C69  1  0.67435980  0.33325260  0.69799595  1  0  -0.334457  0  3.724895  0  0  -0.358921  0  3.979578  0  0  -0.36941  0  3.998461  0  0  -0.125532  -0.351611  0  3.966485  0
C  C70  1  0.82564120  0.83323597  0.19800191  1  0  -0.334497  0  3.724837  0  0  -0.358925  0  3.979549  0  0  -0.369412  0  3.998427  0  0  -0.12545  -0.35162  0  3.966468  0
C  C71  1  0.32564796  0.66675425  0.30200036  1  0  -0.334492  0  3.724817  0  0  -0.358977  0  3.979489  0  0  -0.369463  0  3.998366  0  0  -0.125511  -0.351672  0  3.966403  0
C  C72  1  0.17399760  0.43764618  0.84085025  1  0  -0.353075  0  3.714142  0  0  -0.433518  0  3.949424  0  0  -0.436623  0  3.9561  0  0  -0.24479  -0.431199  0  3.945645  0
C  C73  1  0.67401189  0.06236024  0.65914872  1  0  -0.353102  0  3.714206  0  0  -0.433468  0  3.949442  0  0  -0.436581  0  3.956124  0  0  -0.244776  -0.431151  0  3.945669  0
C  C74  1  0.82599267  0.56234894  0.15914916  1  0  -0.353214  0  3.714332  0  0  -0.433679  0  3.949611  0  0  -0.436799  0  3.956307  0  0  -0.244879  -0.431355  0  3.945838  0
C  C75  1  0.32600636  0.93764128  0.34085198  1  0  -0.35318  0  3.714147  0  0  -0.433552  0  3.949366  0  0  -0.436664  0  3.956046  0  0  -0.244784  -0.431233  0  3.945594  0
C  C76  1  0.62293023  0.02560123  0.99141034  1  0  -0.134963  0  3.691649  0  0  -0.176501  0  3.956808  0  0  -0.17839  0  3.970009  0  0  -0.17352  -0.174204  0  3.943928  0
C  C77  1  0.12294240  0.47440807  0.50858895  1  0  -0.134698  0  3.69141  0  0  -0.176147  0  3.956394  0  0  -0.178044  0  3.969618  0  0  -0.173424  -0.173852  0  3.943521  0
C  C78  1  0.37705130  0.97439389  0.00859473  1  0  -0.134823  0  3.691511  0  0  -0.176257  0  3.956669  0  0  -0.178128  0  3.969832  0  0  -0.173435  -0.173957  0  3.943782  0
C  C79  1  0.87705836  0.52560092  0.49140910  1  0  -0.134886  0  3.691694  0  0  -0.1763  0  3.956717  0  0  -0.178186  0  3.969908  0  0  -0.17344  -0.174  0  3.94383  0
S  S80  1  0.36524864  0.38242531  0.06976116  1  0  -0.336627  0  2.573596  0  0  -0.308971  0  2.986887  0  0  -0.31189  0  2.963391  0  0  -0.165649  -0.306025  0  3.002439  0
S  S81  1  0.86530088  0.11756545  0.43023746  1  0  -0.336266  0  2.573697  0  0  -0.308583  0  2.986967  0  0  -0.311519  0  2.963502  0  0  -0.165419  -0.305636  0  3.002525  0
S  S82  1  0.63473639  0.61757088  0.93023715  1  0  -0.336305  0  2.573757  0  0  -0.308632  0  2.98704  0  0  -0.311552  0  2.963545  0  0  -0.165487  -0.30568  0  3.002588  0
S  S83  1  0.13473660  0.88243820  0.56976159  1  0  -0.336424  0  2.573855  0  0  -0.308746  0  2.987111  0  0  -0.311682  0  2.963644  0  0  -0.165533  -0.305798  0  3.002672  0
N  N84  1  0.92575333  0.32985296  0.00101508  1  0  -0.49003  0  3.117833  0  0  -0.43801  0  3.431564  0  0  -0.448413  0  3.432003  0  0  -0.426354  -0.432662  0  3.433411  0
N  N85  1  0.42578331  0.17015523  0.49898029  1  0  -0.489847  0  3.116975  0  0  -0.437805  0  3.430766  0  0  -0.44823  0  3.431239  0  0  -0.426275  -0.432471  0  3.432636  0
N  N86  1  0.07424919  0.67014216  0.99898264  1  0  -0.48985  0  3.117103  0  0  -0.437798  0  3.430838  0  0  -0.448209  0  3.431296  0  0  -0.42628  -0.43245  0  3.432704  0
N  N87  1  0.57424718  0.82985162  0.50101715  1  0  -0.48993  0  3.117114  0  0  -0.437869  0  3.430833  0  0  -0.448291  0  3.431297  0  0  -0.426315  -0.432532  0  3.432697  0
N  N88  1  0.45149610  0.25371721  0.88211575  1  0  -0.30882  0  3.188679  0  0  -0.274164  0  3.504684  0  0  -0.281468  0  3.510855  0  0  -0.286761  -0.269507  0  3.499669  0
N  N89  1  0.95152491  0.24629519  0.61788316  1  0  -0.308571  0  3.188441  0  0  -0.27396  0  3.504467  0  0  -0.281283  0  3.510676  0  0  -0.286652  -0.269308  0  3.499469  0
N  N90  1  0.54850117  0.74628005  0.11788598  1  0  -0.308834  0  3.188617  0  0  -0.274092  0  3.504615  0  0  -0.281401  0  3.510793  0  0  -0.286742  -0.269431  0  3.499612  0
N  N91  1  0.04849509  0.75371166  0.38211428  1  0  -0.308777  0  3.188582  0  0  -0.274175  0  3.504649  0  0  -0.281496  0  3.510851  0  0  -0.286774  -0.269522  0  3.499647  0
N  N92  1  0.48536988  0.11067823  0.86793973  1  0  0.00767  0  3.504142  0  0  0.096793  0  3.7179  0  0  0.084382  0  3.74491  0  0  -0.153001  0.104472  0  3.699558  0
N  N93  1  0.98539034  0.38933119  0.63206234  1  0  0.007549  0  3.503866  0  0  0.096608  0  3.717755  0  0  0.084196  0  3.744775  0  0  -0.153038  0.10429  0  3.699415  0
N  N94  1  0.51462214  0.88931903  0.13206370  1  0  0.007699  0  3.504041  0  0  0.096823  0  3.717851  0  0  0.084415  0  3.744866  0  0  -0.152936  0.104504  0  3.699507  0
N  N95  1  0.01461742  0.61067353  0.36793618  1  0  0.007747  0  3.503759  0  0  0.096831  0  3.717566  0  0  0.084421  0  3.74458  0  0  -0.152953  0.104516  0  3.699223  0
