# generated using pymatgen
data_AgH12C17N7O2
_symmetry_space_group_name_H-M   'P 1'
_cell_length_a   7.79681083
_cell_length_b   22.41664360
_cell_length_c   22.41807166
_cell_angle_alpha   88.27031109
_cell_angle_beta   79.98441387
_cell_angle_gamma   79.98532685
_symmetry_Int_Tables_number   1
_chemical_formula_structural   AgH12C17N7O2
_chemical_formula_sum   'Ag8 H96 C136 N56 O16'
_cell_volume   3799.69100665
_cell_formula_units_Z   8
loop_
 _symmetry_equiv_pos_site_id
 _symmetry_equiv_pos_as_xyz
  1  'x, y, z'
loop_
 _atom_site_type_symbol
 _atom_site_label
 _atom_site_symmetry_multiplicity
 _atom_site_fract_x
 _atom_site_fract_y
 _atom_site_fract_z
 _atom_site_occupancy
 _atom_site_pbe_bader_charge
 _atom_site_pbe_bader_spin_density
 _atom_site_pbe_cm5_charge
 _atom_site_pbe_ddec_charge
 _atom_site_pbe_ddec_spin_density
 _atom_site_pbe_ddec_sum_bond_order
 _atom_site_pbe_magmom
Ag  Ag0  1  0.09214163  0.50851801  0.11954170  1  0.565921  0  0.428733  0.253103  0  2.070651  0
Ag  Ag1  1  0.72029969  0.99150305  0.38043196  1  0.564884  0  0.428826  0.253688  0  2.070359  0
Ag  Ag2  1  0.10068226  0.11949462  0.99149147  1  0.56688  0  0.429196  0.254351  0  2.071459  0
Ag  Ag3  1  0.21157029  0.38049233  0.50844057  1  0.565314  0  0.428903  0.254714  0  2.0701  0
Ag  Ag4  1  0.90785429  0.49147954  0.88045389  1  0.565911  0  0.428738  0.253188  0  2.070571  0
Ag  Ag5  1  0.27968903  0.00849495  0.61956792  1  0.564746  0  0.428836  0.253689  0  2.070355  0
Ag  Ag6  1  0.89932242  0.88050927  0.00850776  1  0.566916  0  0.429193  0.254318  0  2.071589  0
Ag  Ag7  1  0.78842539  0.61950612  0.49156122  1  0.565326  0  0.428876  0.254655  0  2.070093  0
H  H8  1  0.07915429  0.53235066  0.27423613  1  0.115747  0  0.111835  0.129316  0  1.014419  0
H  H9  1  0.90193274  0.53514048  0.37698282  1  0.07768  0  0.117204  0.086522  0  0.990551  0
H  H10  1  0.96604979  0.71097731  0.40643732  1  0.107159  0  0.115413  0.091691  0  0.998791  0
H  H11  1  0.14622110  0.71710117  0.30410884  1  0.168735  0  0.10929  0.118195  0  1.050739  0
H  H12  1  0.37881247  0.62893676  0.01712595  1  0.076643  0  0.113623  0.119276  0  1.008087  0
H  H13  1  0.58123767  0.57991531  0.92648226  1  0.089555  0  0.111467  0.07574  0  1.021443  0
H  H14  1  0.87827427  0.46654960  0.03463727  1  0.128517  0  0.112421  0.085053  0  1.017956  0
H  H15  1  0.69213421  0.50994207  0.12827281  1  0.107903  0  0.107587  0.120827  0  1.02322  0
H  H16  1  0.28773905  0.38894489  0.17779180  1  0.108575  0  0.118654  0.09277  0  0.989829  0
H  H17  1  0.48350392  0.35377295  0.25455568  1  0.091352  0  0.117262  0.123808  0  0.972728  0
H  H18  1  0.61930743  0.43093439  0.30096210  1  0.079639  0  0.114096  0.109705  0  0.976791  0
H  H19  1  0.54614782  0.54072370  0.27086088  1  0.148901  0  0.108766  0.120947  0  1.042062  0
H  H20  1  0.88547428  0.96770268  0.22573979  1  0.104683  0  0.112252  0.128974  0  1.014385  0
H  H21  1  0.81396338  0.96485997  0.12295662  1  0.08694  0  0.117703  0.087745  0  0.989701  0
H  H22  1  0.08340424  0.78899411  0.09362409  1  0.132519  0  0.115014  0.092024  0  0.997967  0
H  H23  1  0.16764221  0.78302007  0.19591412  1  0.16765  0  0.109437  0.117999  0  1.05006  0
H  H24  1  0.02493918  0.87100878  0.48285721  1  0.071093  0  0.113037  0.118419  0  1.008335  0
H  H25  1  0.08774666  0.91997188  0.57354965  1  0.086487  0  0.111083  0.075969  0  1.02189  0
H  H26  1  0.37937872  0.03343956  0.46543927  1  0.115512  0  0.111919  0.084346  0  1.019236  0
H  H27  1  0.33035137  0.99003657  0.37178839  1  0.092556  0  0.107179  0.120744  0  1.023391  0
H  H28  1  0.85447254  0.11108721  0.32195467  1  0.110468  0  0.118896  0.092023  0  0.989226  0
H  H29  1  0.09173449  0.14625101  0.24514543  1  0.090495  0  0.117425  0.123049  0  0.972985  0
H  H30  1  0.35139252  0.06908671  0.19890782  1  0.09602  0  0.115089  0.110289  0  0.978655  0
H  H31  1  0.35806768  0.95933276  0.22913775  1  0.126366  0  0.110078  0.122413  0  1.039901  0
H  H32  1  0.11177204  0.27422129  0.96760661  1  0.135195  0  0.11178  0.129172  0  1.01469  0
H  H33  1  0.93734208  0.37697436  0.96484339  1  0.077654  0  0.116518  0.086628  0  0.99021  0
H  H34  1  0.17694989  0.40636653  0.78895044  1  0.105078  0  0.114907  0.091451  0  0.999099  0
H  H35  1  0.36375756  0.30413673  0.78292067  1  0.180737  0  0.109322  0.117593  0  1.05025  0
H  H36  1  0.50791982  0.01713271  0.87094574  1  0.07481  0  0.113505  0.119005  0  1.010078  0
H  H37  1  0.66133112  0.92644168  0.91994742  1  0.087939  0  0.110708  0.075882  0  1.021098  0
H  H38  1  0.84447197  0.03459547  0.03348503  1  0.110852  0  0.112297  0.084773  0  1.0197  0
H  H39  1  0.70182754  0.12825015  0.99005812  1  0.122026  0  0.107262  0.120336  0  1.024301  0
H  H40  1  0.17639894  0.17794910  0.11098053  1  0.111012  0  0.119331  0.092799  0  0.988915  0
H  H41  1  0.33698220  0.25471473  0.14615454  1  0.089466  0  0.117558  0.123213  0  0.973688  0
H  H42  1  0.55030402  0.30101354  0.06898726  1  0.101608  0  0.115914  0.11213  0  0.976937  0
H  H43  1  0.58709551  0.27079672  0.95922146  1  0.144295  0  0.10936  0.122181  0  1.041103  0
H  H44  1  0.35400577  0.22573225  0.53232879  1  0.11134  0  0.112265  0.128832  0  1.014872  0
H  H45  1  0.27953989  0.12299924  0.53505471  1  0.087856  0  0.116971  0.087448  0  0.989577  0
H  H46  1  0.37179733  0.09368040  0.71105950  1  0.106616  0  0.115495  0.091748  0  0.998989  0
H  H47  1  0.45046457  0.19587734  0.71711173  1  0.171957  0  0.109637  0.117125  0  1.049688  0
H  H48  1  0.39535855  0.48303635  0.62887031  1  0.080209  0  0.113216  0.119012  0  1.00834  0
H  H49  1  0.50751174  0.57363071  0.57988667  1  0.095497  0  0.1107  0.075621  0  1.022277  0
H  H50  1  0.91285314  0.46536600  0.46663968  1  0.131109  0  0.111816  0.084587  0  1.018549  0
H  H51  1  0.82005035  0.37176355  0.51008289  1  0.133353  0  0.107125  0.120503  0  1.023044  0
H  H52  1  0.46551306  0.32207900  0.38901231  1  0.113236  0  0.1192  0.092107  0  0.990251  0
H  H53  1  0.73802426  0.24530464  0.35384830  1  0.090652  0  0.11759  0.123438  0  0.973575  0
H  H54  1  0.92039677  0.19901520  0.43100949  1  0.092703  0  0.115407  0.111248  0  0.976084  0
H  H55  1  0.81722774  0.22920557  0.54077025  1  0.133993  0  0.109421  0.122433  0  1.040922  0
H  H56  1  0.92083985  0.46764960  0.72576371  1  0.115822  0  0.111872  0.129365  0  1.014391  0
H  H57  1  0.09805896  0.46485978  0.62301685  1  0.07767  0  0.117202  0.086526  0  0.990571  0
H  H58  1  0.03394567  0.28902250  0.59356402  1  0.107183  0  0.11542  0.091703  0  0.998773  0
H  H59  1  0.85377612  0.28289909  0.69589310  1  0.168723  0  0.109281  0.118178  0  1.050742  0
H  H60  1  0.62119235  0.37106350  0.98287365  1  0.076573  0  0.113649  0.11929  0  1.008055  0
H  H61  1  0.41876294  0.42008360  0.07351701  1  0.089597  0  0.111481  0.075756  0  1.021436  0
H  H62  1  0.12172354  0.53344976  0.96536325  1  0.128456  0  0.112398  0.08502  0  1.017935  0
H  H63  1  0.30786857  0.49005955  0.87172813  1  0.10794  0  0.107581  0.120829  0  1.02323  0
H  H64  1  0.71226056  0.61105447  0.82220695  1  0.108118  0  0.118662  0.092797  0  0.989784  0
H  H65  1  0.51649660  0.64622640  0.74544218  1  0.091337  0  0.117271  0.123772  0  0.972734  0
H  H66  1  0.38069264  0.56906497  0.69903620  1  0.079602  0  0.114095  0.109752  0  0.976817  0
H  H67  1  0.45385293  0.45927611  0.72913653  1  0.149007  0  0.108746  0.120916  0  1.042106  0
H  H68  1  0.11452642  0.03229668  0.77426045  1  0.104677  0  0.112238  0.128957  0  1.014369  0
H  H69  1  0.18603710  0.03514165  0.87704273  1  0.086962  0  0.117701  0.087753  0  0.989758  0
H  H70  1  0.91660217  0.21100661  0.90637372  1  0.132571  0  0.11506  0.09209  0  0.997999  0
H  H71  1  0.83235849  0.21698110  0.80408523  1  0.167577  0  0.109438  0.117995  0  1.050089  0
H  H72  1  0.97506677  0.12899194  0.51714105  1  0.070714  0  0.113036  0.118405  0  1.00842  0
H  H73  1  0.91225640  0.08002974  0.42644845  1  0.086532  0  0.111045  0.075898  0  1.021959  0
H  H74  1  0.62061737  0.96656251  0.53455647  1  0.115519  0  0.111899  0.084329  0  1.019205  0
H  H75  1  0.66964784  0.00996505  0.62820707  1  0.09272  0  0.107143  0.120679  0  1.023537  0
H  H76  1  0.14552260  0.88891350  0.67804525  1  0.110518  0  0.118906  0.092007  0  0.98927  0
H  H77  1  0.90826178  0.85374925  0.75485360  1  0.090519  0  0.117408  0.123022  0  0.973025  0
H  H78  1  0.64860515  0.93091355  0.80109368  1  0.095982  0  0.115045  0.110225  0  0.978684  0
H  H79  1  0.64193379  0.04066750  0.77086257  1  0.126434  0  0.110084  0.12243  0  1.039972  0
H  H80  1  0.88823220  0.72577671  0.03238955  1  0.13514  0  0.111789  0.129144  0  1.014664  0
H  H81  1  0.06266039  0.62302318  0.03515216  1  0.07752  0  0.11653  0.086604  0  0.990212  0
H  H82  1  0.82305823  0.59363011  0.21104640  1  0.105346  0  0.114869  0.091436  0  0.99916  0
H  H83  1  0.63624907  0.69586173  0.21707803  1  0.180846  0  0.109313  0.117547  0  1.050171  0
H  H84  1  0.49207686  0.98286710  0.12905568  1  0.074862  0  0.113529  0.11901  0  1.010072  0
H  H85  1  0.33866465  0.07355813  0.08005489  1  0.087914  0  0.110685  0.075872  0  1.021124  0
H  H86  1  0.15552615  0.96540480  0.96651602  1  0.110881  0  0.112277  0.084752  0  1.019661  0
H  H87  1  0.29817538  0.87175056  0.00994184  1  0.12208  0  0.107263  0.120331  0  1.024329  0
H  H88  1  0.82360325  0.82205026  0.88901696  1  0.110986  0  0.119303  0.092766  0  0.988983  0
H  H89  1  0.66302656  0.74528282  0.85384381  1  0.08954  0  0.117548  0.123154  0  0.973773  0
H  H90  1  0.44970039  0.69898537  0.93101084  1  0.101652  0  0.11594  0.112218  0  0.976894  0
H  H91  1  0.41290624  0.72920264  0.04077647  1  0.144358  0  0.109342  0.122097  0  1.04112  0
H  H92  1  0.64599973  0.77426484  0.46767170  1  0.111541  0  0.11226  0.128848  0  1.014872  0
H  H93  1  0.72046081  0.87699921  0.46494598  1  0.08785  0  0.116974  0.087491  0  0.989561  0
H  H94  1  0.62820161  0.90631670  0.28894103  1  0.106684  0  0.115491  0.09179  0  0.998978  0
H  H95  1  0.54954780  0.80411885  0.28289014  1  0.172065  0  0.109623  0.11712  0  1.049642  0
H  H96  1  0.60463781  0.51696437  0.37112970  1  0.080247  0  0.113221  0.119043  0  1.008292  0
H  H97  1  0.49249081  0.42636865  0.42011560  1  0.095537  0  0.110691  0.075667  0  1.022251  0
H  H98  1  0.08714494  0.53463472  0.53336377  1  0.131035  0  0.111823  0.084559  0  1.018518  0
H  H99  1  0.17994913  0.62823581  0.48991728  1  0.13338  0  0.107136  0.120531  0  1.023029  0
H  H100  1  0.53448683  0.67792081  0.61098980  1  0.113236  0  0.119211  0.092091  0  0.990224  0
H  H101  1  0.26197852  0.75469607  0.64615308  1  0.090369  0  0.117634  0.123494  0  0.973668  0
H  H102  1  0.07960678  0.80098461  0.56899286  1  0.092693  0  0.115461  0.111304  0  0.976076  0
H  H103  1  0.18276839  0.77079379  0.45923064  1  0.134002  0  0.109421  0.122399  0  1.040913  0
C  C104  1  0.06294390  0.57261775  0.30207742  1  0.014723  0  -0.078055  -0.159166  0  3.918757  0
C  C105  1  0.96078525  0.57426147  0.35951833  1  0.506315  0  0.04286  0.093815  0  3.953204  0
C  C106  1  0.99522467  0.67249404  0.37550936  1  0.454854  0  0.040641  0.087023  0  3.936105  0
C  C107  1  0.09756434  0.67537173  0.31869371  1  -0.024999  0  -0.073771  -0.135958  0  3.901897  0
C  C108  1  0.13462631  0.62420473  0.28111616  1  -0.030165  0  0.015324  0.065585  0  4.006663  0
C  C109  1  0.23783545  0.62794785  0.22078346  1  0.937678  0  0.229216  0.22267  0  3.982015  0
C  C110  1  0.40166150  0.60502476  0.13207310  1  0.948387  0  0.221305  0.209557  0  4.022315  0
C  C111  1  0.51822405  0.57383238  0.08037141  1  -0.04912  0  0.012512  0.0655  0  4.014455  0
C  C112  1  0.48971036  0.59345447  0.02230741  1  0.041454  0  -0.079239  -0.158972  0  3.947185  0
C  C113  1  0.60182151  0.56624388  0.97213489  1  0.475214  0  0.039527  0.094569  0  3.961055  0
C  C114  1  0.76607370  0.50255337  0.03175758  1  0.465258  0  0.040521  0.081134  0  3.96763  0
C  C115  1  0.65962552  0.52687606  0.08485862  1  0.00111  0  -0.084223  -0.159712  0  3.933412  0
C  C116  1  0.38847199  0.51896718  0.20725859  1  0.82231  0  0.215526  0.297241  0  4.024464  0
C  C117  1  0.35197340  0.42038014  0.19878088  1  0.486876  0  0.051524  0.106571  0  3.93455  0
C  C118  1  0.45789152  0.40147385  0.24221360  1  -0.044523  0  -0.074535  -0.124353  0  3.956972  0
C  C119  1  0.53081485  0.44444401  0.26856310  1  0.037602  0  -0.052843  0.008247  0  3.953788  0
C  C120  1  0.49403558  0.50505341  0.25145792  1  0.031273  0  -0.076726  -0.186652  0  3.927757  0
C  C121  1  0.93747087  0.92744060  0.19790705  1  0.034493  0  -0.077034  -0.156614  0  3.917158  0
C  C122  1  0.89443110  0.92575676  0.14045988  1  0.471717  0  0.040152  0.090252  0  3.952506  0
C  C123  1  0.04321537  0.82750499  0.12451851  1  0.45356  0  0.041885  0.086468  0  3.932126  0
C  C124  1  0.09179760  0.82472767  0.18130268  1  -0.037829  0  -0.073842  -0.13635  0  3.901422  0
C  C125  1  0.04000999  0.87590372  0.21886109  1  -0.004818  0  0.014705  0.064917  0  4.008403  0
C  C126  1  0.08670139  0.87214939  0.27917776  1  0.931118  0  0.229681  0.223388  0  3.981963  0
C  C127  1  0.13886873  0.89502644  0.36790893  1  0.942274  0  0.222301  0.209568  0  4.024356  0
C  C128  1  0.17243659  0.92615008  0.41965457  1  -0.009661  0  0.012459  0.066114  0  4.016909  0
C  C129  1  0.10553500  0.90648262  0.47770488  1  0.065827  0  -0.078644  -0.157632  0  3.948011  0
C  C130  1  0.14032531  0.93364744  0.52789684  1  0.477454  0  0.039151  0.092522  0  3.963255  0
C  C131  1  0.30043075  0.99739993  0.46830399  1  0.557255  0  0.040939  0.080651  0  3.966469  0
C  C132  1  0.27137651  0.97309662  0.41520170  1  -0.086027  0  -0.083842  -0.159747  0  3.932559  0
C  C133  1  0.11500691  0.98109079  0.29270067  1  0.838832  0  0.215054  0.296394  0  4.025162  0
C  C134  1  0.97124960  0.07966569  0.30102439  1  0.442972  0  0.051161  0.10608  0  3.932691  0
C  C135  1  0.10166792  0.09857457  0.25757536  1  0.065164  0  -0.072604  -0.120092  0  3.957039  0
C  C136  1  0.24397504  0.05560775  0.23130607  1  -0.045062  0  -0.053479  0.006015  0  3.956498  0
C  C137  1  0.25080369  0.99501153  0.24849453  1  0.024321  0  -0.078811  -0.187968  0  3.925713  0
C  C138  1  0.13580893  0.30206637  0.92735026  1  -0.019658  0  -0.078275  -0.158171  0  3.920066  0
C  C139  1  0.03524225  0.35949979  0.92570984  1  0.498714  0  0.043257  0.093029  0  3.952244  0
C  C140  1  0.16775429  0.37546412  0.82745248  1  0.4755  0  0.040666  0.085763  0  3.936377  0
C  C141  1  0.27327634  0.31870281  0.82462882  1  -0.03213  0  -0.072913  -0.133827  0  3.901011  0
C  C142  1  0.25923269  0.28113898  0.87579649  1  -0.003556  0  0.013393  0.063458  0  4.010616  0
C  C143  1  0.36624912  0.22081979  0.87201426  1  0.938037  0  0.23151  0.224048  0  3.982189  0
C  C144  1  0.50694698  0.13206624  0.89490845  1  0.939683  0  0.222172  0.209753  0  4.021661  0
C  C145  1  0.59214844  0.08034063  0.92609808  1  -0.00155  0  0.012852  0.066807  0  4.017355  0
C  C146  1  0.58329940  0.02228721  0.90643125  1  0.067756  0  -0.080546  -0.159947  0  3.952097  0
C  C147  1  0.66813883  0.97209767  0.93364361  1  0.439584  0  0.040478  0.094366  0  3.959436  0
C  C148  1  0.76845590  0.03172530  0.99743611  1  0.486969  0  0.040805  0.082146  0  3.967499  0
C  C149  1  0.68640115  0.08482417  0.97310280  1  -0.062675  0  -0.083582  -0.159667  0  3.936015  0
C  C150  1  0.40767650  0.20721742  0.98099575  1  0.840508  0  0.214725  0.297889  0  4.026783  0
C  C151  1  0.27228493  0.19885909  0.07955976  1  0.453449  0  0.050269  0.104896  0  3.935085  0
C  C152  1  0.35927620  0.24229834  0.09846464  1  -0.02753  0  -0.072917  -0.121086  0  3.959018  0
C  C153  1  0.47532329  0.26859867  0.05550049  1  0.057799  0  -0.055877  0.003846  0  3.955423  0
C  C154  1  0.49930896  0.25142253  0.99490263  1  -0.019435  0  -0.07665  -0.187076  0  3.925657  0
C  C155  1  0.36543866  0.19790713  0.57260265  1  0.041858  0  -0.078949  -0.157716  0  3.919442  0
C  C156  1  0.32064033  0.14047496  0.57422285  1  0.473832  0  0.041977  0.091705  0  3.953087  0
C  C157  1  0.37037079  0.12455653  0.67253817  1  0.40164  0  0.039038  0.084726  0  3.93452  0
C  C158  1  0.41639759  0.18131070  0.67537413  1  0.015505  0  -0.072914  -0.133557  0  3.899051  0
C  C159  1  0.41612623  0.21887634  0.62420246  1  -0.023165  0  0.012879  0.063688  0  4.007125  0
C  C160  1  0.45898249  0.27921557  0.62796785  1  0.93423  0  0.231386  0.223429  0  3.983158  0
C  C161  1  0.53348485  0.36802954  0.60505672  1  0.928308  0  0.22211  0.209442  0  4.020804  0
C  C162  1  0.59815881  0.41974711  0.57387424  1  -0.024062  0  0.010987  0.065703  0  4.016906  0
C  C163  1  0.51156158  0.47782401  0.59344056  1  -0.026012  0  -0.078153  -0.158089  0  3.948559  0
C  C164  1  0.57374152  0.52796300  0.56625188  1  0.509122  0  0.040258  0.094172  0  3.963042  0
C  C165  1  0.79775039  0.46826081  0.50263395  1  0.459888  0  0.041982  0.082585  0  3.96444  0
C  C166  1  0.74418935  0.41520260  0.52697346  1  -0.039612  0  -0.084251  -0.160144  0  3.931443  0
C  C167  1  0.59596471  0.29279271  0.51900372  1  0.805072  0  0.216663  0.298831  0  4.024745  0
C  C168  1  0.55084661  0.30115103  0.42044377  1  0.462707  0  0.050726  0.106313  0  3.934791  0
C  C169  1  0.70019759  0.25769838  0.40153858  1  -0.044623  0  -0.071227  -0.120086  0  3.956419  0
C  C170  1  0.79950240  0.23141270  0.44450528  1  0.034677  0  -0.056891  0.004467  0  3.954632  0
C  C171  1  0.74569905  0.24857827  0.50509943  1  0.061458  0  -0.076856  -0.18896  0  3.926191  0
C  C172  1  0.93704834  0.42738206  0.69792323  1  0.014759  0  -0.078085  -0.15931  0  3.918886  0
C  C173  1  0.03920487  0.42573925  0.64048268  1  0.506502  0  0.04286  0.093839  0  3.953215  0
C  C174  1  0.00476902  0.32750622  0.62449093  1  0.45495  0  0.040597  0.086982  0  3.936094  0
C  C175  1  0.90243102  0.32462853  0.68130621  1  -0.025138  0  -0.073768  -0.136015  0  3.901978  0
C  C176  1  0.86536982  0.37579554  0.71888429  1  -0.030385  0  0.015331  0.065721  0  4.006755  0
C  C177  1  0.76216570  0.37205060  0.77921678  1  0.937733  0  0.229149  0.222448  0  3.982051  0
C  C178  1  0.59834065  0.39497415  0.86792723  1  0.948365  0  0.221292  0.209476  0  4.022297  0
C  C179  1  0.48177543  0.42616697  0.91962876  1  -0.049118  0  0.012504  0.065582  0  4.014306  0
C  C180  1  0.51029347  0.40654534  0.97769211  1  0.041499  0  -0.079224  -0.158984  0  3.947137  0
C  C181  1  0.39818163  0.43375638  0.02786507  1  0.475145  0  0.039509  0.094569  0  3.96105  0
C  C182  1  0.23392700  0.49744598  0.96824266  1  0.465265  0  0.040563  0.081186  0  3.967637  0
C  C183  1  0.34037396  0.47312330  0.91514154  1  0.001107  0  -0.084252  -0.159785  0  3.933463  0
C  C184  1  0.61152541  0.48103173  0.79273999  1  0.822234  0  0.215478  0.297224  0  4.024332  0
C  C185  1  0.64802780  0.57961967  0.80121608  1  0.48732  0  0.051484  0.106502  0  3.934581  0
C  C186  1  0.54210733  0.59852642  0.75778417  1  -0.044633  0  -0.074524  -0.124178  0  3.957041  0
C  C187  1  0.46918332  0.55555671  0.73143512  1  0.0377  0  -0.052839  0.008151  0  3.953904  0
C  C188  1  0.50596236  0.49494685  0.74854075  1  0.031061  0  -0.07673  -0.186686  0  3.927796  0
C  C189  1  0.06252938  0.07256057  0.80209275  1  0.034418  0  -0.077081  -0.156697  0  3.917029  0
C  C190  1  0.10556983  0.07424395  0.85953947  1  0.4717  0  0.040143  0.090265  0  3.952634  0
C  C191  1  0.95678691  0.17249572  0.87547951  1  0.453529  0  0.041866  0.086371  0  3.932295  0
C  C192  1  0.90820156  0.17527259  0.81869607  1  -0.037867  0  -0.073867  -0.136348  0  3.901462  0
C  C193  1  0.95998483  0.12409699  0.78113786  1  -0.004845  0  0.014749  0.065004  0  4.008286  0
C  C194  1  0.91328832  0.12784997  0.72082176  1  0.931255  0  0.229644  0.223368  0  3.982158  0
C  C195  1  0.86113302  0.10497291  0.63208901  1  0.942543  0  0.222364  0.209636  0  4.02444  0
C  C196  1  0.82756371  0.07385064  0.58034283  1  -0.010579  0  0.012464  0.066122  0  4.017024  0
C  C197  1  0.89446651  0.09351991  0.52229171  1  0.066165  0  -0.078575  -0.157573  0  3.94814  0
C  C198  1  0.85967598  0.06635373  0.47210065  1  0.477235  0  0.039078  0.092494  0  3.96354  0
C  C199  1  0.69956693  0.00260169  0.53169042  1  0.55745  0  0.041068  0.080854  0  3.96624  0
C  C200  1  0.72862270  0.02690500  0.58479376  1  -0.085373  0  -0.083813  -0.15966  0  3.932574  0
C  C201  1  0.88499117  0.01890857  0.70729703  1  0.838795  0  0.21504  0.29639  0  4.0251  0
C  C202  1  0.02874884  0.92033639  0.69897674  1  0.442993  0  0.051175  0.106209  0  3.932813  0
C  C203  1  0.89833020  0.90142660  0.74242525  1  0.065189  0  -0.072591  -0.120123  0  3.957067  0
C  C204  1  0.75601964  0.94439297  0.76869430  1  -0.045146  0  -0.053447  0.00607  0  3.956532  0
C  C205  1  0.74919457  0.00498964  0.75150466  1  0.024359  0  -0.078791  -0.187922  0  3.925843  0
C  C206  1  0.86419318  0.69793162  0.07264670  1  -0.019951  0  -0.078238  -0.158055  0  3.920173  0
C  C207  1  0.96475909  0.64049911  0.07428615  1  0.498799  0  0.043296  0.092994  0  3.952327  0
C  C208  1  0.83225582  0.62453434  0.17254408  1  0.475244  0  0.040487  0.085402  0  3.936434  0
C  C209  1  0.72673164  0.68129564  0.17536855  1  -0.031799  0  -0.072768  -0.133515  0  3.900639  0
C  C210  1  0.74077163  0.71885947  0.12420063  1  -0.003809  0  0.013342  0.063238  0  4.010696  0
C  C211  1  0.63375452  0.77917821  0.12798375  1  0.938055  0  0.23164  0.224429  0  3.982055  0
C  C212  1  0.49305205  0.86793221  0.10509261  1  0.939515  0  0.222208  0.209836  0  4.021623  0
C  C213  1  0.40784779  0.91965918  0.07390378  1  -0.001544  0  0.012825  0.066634  0  4.0173  0
C  C214  1  0.41670017  0.97771260  0.09356989  1  0.067684  0  -0.080558  -0.159877  0  3.952082  0
C  C215  1  0.33186119  0.02790214  0.06635708  1  0.439615  0  0.040503  0.094402  0  3.959452  0
C  C216  1  0.23154132  0.96827497  0.00256584  1  0.486909  0  0.040826  0.082189  0  3.967586  0
C  C217  1  0.31359707  0.91517655  0.02689923  1  -0.062682  0  -0.083581  -0.159596  0  3.936216  0
C  C218  1  0.59232701  0.79278239  0.01900279  1  0.840575  0  0.214685  0.297809  0  4.026445  0
C  C219  1  0.72772107  0.80113845  0.92043744  1  0.453403  0  0.050274  0.104853  0  3.935315  0
C  C220  1  0.64072659  0.75769740  0.90153277  1  -0.027503  0  -0.072912  -0.12095  0  3.95914  0
C  C221  1  0.52468392  0.73139887  0.94449679  1  0.057364  0  -0.055855  0.003785  0  3.955594  0
C  C222  1  0.50069649  0.74857546  0.00509360  1  -0.01928  0  -0.076649  -0.186975  0  3.925531  0
C  C223  1  0.63456449  0.80209132  0.42739820  1  0.041826  0  -0.078892  -0.157735  0  3.919397  0
C  C224  1  0.67936327  0.85952349  0.42577755  1  0.473691  0  0.041882  0.091538  0  3.953254  0
C  C225  1  0.62963191  0.87544192  0.32746313  1  0.401544  0  0.039037  0.084599  0  3.934538  0
C  C226  1  0.58361067  0.81868639  0.32462750  1  0.01454  0  -0.072853  -0.133476  0  3.898878  0
C  C227  1  0.58388117  0.78112030  0.37579766  1  -0.022039  0  0.012907  0.063869  0  4.006956  0
C  C228  1  0.54102233  0.72078197  0.37203308  1  0.934156  0  0.231403  0.223398  0  3.983129  0
C  C229  1  0.46651137  0.63196937  0.39494559  1  0.927801  0  0.222135  0.209523  0  4.020619  0
C  C230  1  0.40183909  0.58025180  0.42612771  1  -0.023326  0  0.010914  0.065592  0  4.016834  0
C  C231  1  0.48843808  0.52217535  0.40656200  1  -0.026305  0  -0.078086  -0.158047  0  3.948535  0
C  C232  1  0.42626257  0.47203636  0.43375145  1  0.509281  0  0.040222  0.094043  0  3.963093  0
C  C233  1  0.20224751  0.53173810  0.49736800  1  0.460032  0  0.041956  0.082544  0  3.964336  0
C  C234  1  0.25580556  0.58479675  0.47302735  1  -0.039656  0  -0.084216  -0.160082  0  3.931382  0
C  C235  1  0.40403296  0.70720756  0.48099778  1  0.805213  0  0.216661  0.298736  0  4.024666  0
C  C236  1  0.44915351  0.69885105  0.57955700  1  0.462789  0  0.050738  0.106366  0  3.934832  0
C  C237  1  0.29980108  0.74230325  0.59846255  1  -0.044762  0  -0.071283  -0.120169  0  3.956504  0
C  C238  1  0.20049618  0.76858938  0.55549444  1  0.034956  0  -0.056948  0.004352  0  3.954574  0
C  C239  1  0.25429808  0.75142154  0.49490154  1  0.061232  0  -0.076847  -0.188796  0  3.926037  0
N  N240  1  0.92770484  0.62283548  0.39618625  1  -1.208567  0  -0.346573  -0.21218  0  3.622945  0
N  N241  1  0.23145402  0.67796790  0.18717925  1  -0.624546  0  -0.204344  -0.206844  0  3.200607  0
N  N242  1  0.33247800  0.66367636  0.13184307  1  -0.692773  0  -0.214073  -0.241233  0  3.226398  0
N  N243  1  0.34643908  0.58057945  0.18783821  1  -1.24818  0  -0.210388  -0.135263  0  3.699606  0
N  N244  1  0.73914674  0.52156703  0.97612735  1  -1.192837  0  -0.332058  -0.214668  0  3.5231  0
N  N245  1  0.31881496  0.47837481  0.18076611  1  -1.20093  0  -0.322972  -0.283971  0  3.494334  0
N  N246  1  0.90642456  0.41560110  0.18849375  1  0.455999  0  -0.096701  0.158922  0  3.580304  0
N  N247  1  0.94663280  0.87714608  0.10383016  1  -1.219594  0  -0.346602  -0.210906  0  3.621876  0
N  N248  1  0.09660976  0.82212210  0.31277348  1  -0.639321  0  -0.20499  -0.209136  0  3.201705  0
N  N249  1  0.12797379  0.83638701  0.36811826  1  -0.675303  0  -0.21372  -0.239527  0  3.227304  0
N  N250  1  0.11511775  0.91948573  0.31213809  1  -1.244877  0  -0.210014  -0.134766  0  3.698828  0
N  N251  1  0.23689182  0.97835301  0.52392531  1  -1.228168  0  -0.331467  -0.212684  0  3.521975  0
N  N252  1  0.97816579  0.02169275  0.31913574  1  -1.187036  0  -0.325024  -0.284408  0  3.494474  0
N  N253  1  0.51089722  0.08443484  0.31143951  1  0.46341  0  -0.095843  0.158282  0  3.578056  0
N  N254  1  0.05059668  0.39614366  0.87711618  1  -1.235767  0  -0.345655  -0.210826  0  3.622266  0
N  N255  1  0.40992747  0.18723784  0.82197545  1  -0.641113  0  -0.204399  -0.208679  0  3.204611  0
N  N256  1  0.49655733  0.13187457  0.83624433  1  -0.67759  0  -0.214688  -0.23978  0  3.226154  0
N  N257  1  0.42726814  0.18781851  0.91938270  1  -1.246039  0  -0.210929  -0.136642  0  3.700063  0
N  N258  1  0.76061136  0.97609688  0.97837033  1  -1.176111  0  -0.331301  -0.214613  0  3.519971  0
N  N259  1  0.29726901  0.18078079  0.02157813  1  -1.190004  0  -0.324174  -0.28442  0  3.496142  0
N  N260  1  0.82236490  0.18849731  0.08446244  1  0.465498  0  -0.094249  0.160487  0  3.580679  0
N  N261  1  0.32375994  0.10385738  0.62284615  1  -1.203174  0  -0.344061  -0.20966  0  3.619722  0
N  N262  1  0.41881292  0.31281972  0.67799128  1  -0.644117  0  -0.204061  -0.208623  0  3.203729  0
N  N263  1  0.46414419  0.36821254  0.66371165  1  -0.670706  0  -0.215236  -0.238964  0  3.225986  0
N  N264  1  0.53441988  0.31222511  0.58060789  1  -1.244142  0  -0.209592  -0.136355  0  3.701227  0
N  N265  1  0.71518824  0.52391596  0.52161957  1  -1.161749  0  -0.331845  -0.214913  0  3.52399  0
N  N266  1  0.49971937  0.31923293  0.47841664  1  -1.188325  0  -0.326139  -0.28584  0  3.495453  0
N  N267  1  0.09461400  0.31145445  0.41566836  1  0.465576  0  -0.092324  0.162287  0  3.57904  0
N  N268  1  0.07229008  0.37716479  0.60381411  1  -1.208629  0  -0.346506  -0.212073  0  3.622895  0
N  N269  1  0.76855722  0.32203146  0.81282217  1  -0.624714  0  -0.204291  -0.20672  0  3.200505  0
N  N270  1  0.66753469  0.33632345  0.86815799  1  -0.692728  0  -0.214084  -0.241248  0  3.226465  0
N  N271  1  0.65355620  0.41941855  0.81216162  1  -1.248117  0  -0.210368  -0.135099  0  3.699503  0
N  N272  1  0.26085396  0.47843233  0.02387289  1  -1.192841  0  -0.332099  -0.214695  0  3.523123  0
N  N273  1  0.68118412  0.52162409  0.81923210  1  -1.200711  0  -0.32288  -0.283973  0  3.49424  0
N  N274  1  0.09357565  0.58440143  0.81150799  1  0.455478  0  -0.096629  0.15901  0  3.580401  0
N  N275  1  0.05336981  0.12285554  0.89616839  1  -1.219558  0  -0.346572  -0.210861  0  3.621991  0
N  N276  1  0.90337493  0.17787817  0.68722669  1  -0.63949  0  -0.204962  -0.209185  0  3.201973  0
N  N277  1  0.87201777  0.16361416  0.63188239  1  -0.675041  0  -0.213755  -0.239512  0  3.227449  0
N  N278  1  0.88488232  0.08051362  0.68786021  1  -1.244972  0  -0.209958  -0.13472  0  3.698887  0
N  N279  1  0.76311327  0.02164907  0.47607056  1  -1.228359  0  -0.331567  -0.212898  0  3.522377  0
N  N280  1  0.02183148  0.97830616  0.68086426  1  -1.187068  0  -0.325102  -0.284566  0  3.494644  0
N  N281  1  0.48910846  0.91556451  0.68855584  1  0.463359  0  -0.095936  0.158182  0  3.578294  0
N  N282  1  0.94940945  0.60385479  0.12287916  1  -1.235642  0  -0.345549  -0.210475  0  3.621956  0
N  N283  1  0.59008074  0.81275925  0.17802236  1  -0.641168  0  -0.204507  -0.208904  0  3.20491  0
N  N284  1  0.50344808  0.86812116  0.16375563  1  -0.677256  0  -0.214676  -0.239789  0  3.22633  0
N  N285  1  0.57273247  0.81218040  0.08061658  1  -1.246112  0  -0.211027  -0.136754  0  3.699844  0
N  N286  1  0.23938419  0.02390339  0.02163198  1  -1.176039  0  -0.331289  -0.214697  0  3.519973  0
N  N287  1  0.70273639  0.81921857  0.97842005  1  -1.189981  0  -0.324146  -0.284414  0  3.496149  0
N  N288  1  0.17763553  0.81150568  0.91553886  1  0.465779  0  -0.094267  0.160361  0  3.581025  0
N  N289  1  0.67624176  0.89614062  0.37715507  1  -1.20342  0  -0.344075  -0.209603  0  3.619803  0
N  N290  1  0.58118923  0.68717737  0.32200994  1  -0.643889  0  -0.204044  -0.208528  0  3.203864  0
N  N291  1  0.53585416  0.63178546  0.33629030  1  -0.670724  0  -0.215328  -0.239161  0  3.22614  0
N  N292  1  0.46558092  0.68777379  0.41939377  1  -1.244123  0  -0.209569  -0.13637  0  3.701158  0
N  N293  1  0.28481341  0.47608340  0.47838359  1  -1.162133  0  -0.331887  -0.214908  0  3.523907  0
N  N294  1  0.50028296  0.68076778  0.52158518  1  -1.188258  0  -0.326116  -0.285775  0  3.495391  0
N  N295  1  0.90539638  0.68854174  0.58433290  1  0.465484  0  -0.092396  0.162193  0  3.579314  0
O  O296  1  0.90234137  0.46493902  0.21525279  1  -0.614815  0  -0.216667  -0.400716  0  2.208606  0
O  O297  1  0.98688996  0.41211586  0.13368315  1  -0.614739  0  -0.232383  -0.398657  0  2.230693  0
O  O298  1  0.58252690  0.03504895  0.28470832  1  -0.6112  0  -0.217276  -0.400624  0  2.2092  0
O  O299  1  0.53331042  0.08793058  0.36622338  1  -0.624227  0  -0.232516  -0.397991  0  2.228769  0
O  O300  1  0.86737110  0.21531562  0.03515040  1  -0.612544  0  -0.217745  -0.402427  0  2.209323  0
O  O301  1  0.89943302  0.13367456  0.08785075  1  -0.625682  0  -0.233686  -0.398865  0  2.231823  0
O  O302  1  0.11748686  0.28470731  0.46499055  1  -0.616863  0  -0.218627  -0.402812  0  2.208644  0
O  O303  1  0.12014482  0.36628089  0.41216363  1  -0.620804  0  -0.234291  -0.399771  0  2.230201  0
O  O304  1  0.09765141  0.53506486  0.78474661  1  -0.614635  0  -0.216729  -0.400759  0  2.208736  0
O  O305  1  0.01311137  0.58788440  0.86631860  1  -0.614364  0  -0.232396  -0.398712  0  2.230646  0
O  O306  1  0.41748313  0.96495176  0.71528593  1  -0.611601  0  -0.217227  -0.400549  0  2.209332  0
O  O307  1  0.46668527  0.91206561  0.63377309  1  -0.623767  0  -0.232485  -0.398001  0  2.22892  0
O  O308  1  0.13263137  0.78468600  0.96484957  1  -0.61271  0  -0.217766  -0.402385  0  2.209419  0
O  O309  1  0.10056781  0.86632887  0.91215249  1  -0.625802  0  -0.233647  -0.398775  0  2.23207  0
O  O310  1  0.88251620  0.71528797  0.53501067  1  -0.616599  0  -0.218628  -0.402836  0  2.208731  0
O  O311  1  0.87985950  0.63371620  0.58784059  1  -0.620979  0  -0.234211  -0.399634  0  2.230306  0
