# generated using pymatgen
data_Li2B2H24C7(NO)2
_symmetry_space_group_name_H-M   'P 1'
_cell_length_a   8.76727479
_cell_length_b   9.15513545
_cell_length_c   9.60434300
_cell_angle_alpha   79.33078708
_cell_angle_beta   65.56615597
_cell_angle_gamma   63.68527357
_symmetry_Int_Tables_number   1
_chemical_formula_structural   Li2B2H24C7(NO)2
_chemical_formula_sum   'Li4 B4 H48 C14 N4 O4'
_cell_volume   629.12312817
_cell_formula_units_Z   2
loop_
 _symmetry_equiv_pos_site_id
 _symmetry_equiv_pos_as_xyz
  1  'x, y, z'
loop_
 _atom_site_type_symbol
 _atom_site_label
 _atom_site_symmetry_multiplicity
 _atom_site_fract_x
 _atom_site_fract_y
 _atom_site_fract_z
 _atom_site_occupancy
 _atom_site_pbe_bader_spin_density
 _atom_site_pbe_cm5_charge
 _atom_site_pbe_ddec_charge
 _atom_site_pbe_ddec_spin_density
 _atom_site_pbe_ddec_sum_bond_order
 _atom_site_pbe_magmom
Li  Li0  1  0.25339784  0.92794460  0.37678208  1  0  0.460162  0.755567  0  0.535994  0
Li  Li1  1  0.74660150  0.07205592  0.62321723  1  0  0.460168  0.755561  0  0.536014  0
Li  Li2  1  0.64989482  0.33123942  0.34641300  1  0  0.459334  0.755686  0  0.532017  0
Li  Li3  1  0.35009881  0.66875989  0.65359179  1  0  0.459332  0.75564  0  0.532087  0
B  B4  1  0.91907584  0.08169474  0.32787134  1  0  -0.457698  -0.051061  0  3.864546  0
B  B5  1  0.08092546  0.91830699  0.67212703  1  0  -0.457684  -0.051071  0  3.864514  0
B  B6  1  0.51788659  0.67405532  0.35371055  1  0  -0.457257  -0.050583  0  3.868077  0
B  B7  1  0.48211024  0.32594524  0.64628761  1  0  -0.457245  -0.050618  0  3.867995  0
H  H8  1  0.18071012  0.18681897  0.15125584  1  0  0.099469  0.091139  0  1.048292  0
H  H9  1  0.81929119  0.81318272  0.84874566  1  0  0.099466  0.091157  0  1.048261  0
H  H10  1  0.34641116  0.00666299  0.04400258  1  0  0.09194  0.07907  0  1.030027  0
H  H11  1  0.65359154  0.99334117  0.95599382  1  0  0.091945  0.079081  0  1.030064  0
H  H12  1  0.12906866  0.11467378  0.02344363  1  0  0.083723  0.072053  0  1.030401  0
H  H13  1  0.87093278  0.88533037  0.97655428  1  0  0.083718  0.072083  0  1.030391  0
H  H14  1  0.09293095  0.75863358  0.26089039  1  0  0.096759  0.087671  0  1.027171  0
H  H15  1  0.90707340  0.24136697  0.73910078  1  0  0.096755  0.087617  0  1.027216  0
H  H16  1  0.06325923  0.86934824  0.09368787  1  0  0.084065  0.07643  0  1.023157  0
H  H17  1  0.93674653  0.13065473  0.90630446  1  0  0.084068  0.076401  0  1.023206  0
H  H18  1  0.28749341  0.76400270  0.09872733  1  0  0.094389  0.087816  0  1.029065  0
H  H19  1  0.71251110  0.23600024  0.90126756  1  0  0.094362  0.087789  0  1.029113  0
H  H20  1  0.90168059  0.19467380  0.39461365  1  0  0.048674  -0.17716  0  1.132573  0
H  H21  1  0.09831917  0.80532307  0.60538612  1  0  0.048666  -0.177166  0  1.132543  0
H  H22  1  0.85420436  0.99234016  0.42002571  1  0  0.042743  -0.178211  0  1.163491  0
H  H23  1  0.14579735  0.00765794  0.57997104  1  0  0.042738  -0.178199  0  1.163462  0
H  H24  1  0.83048557  0.13894746  0.24301590  1  0  0.029114  -0.177785  0  1.11345  0
H  H25  1  0.16951377  0.86105307  0.75698341  1  0  0.02911  -0.177778  0  1.11344  0
H  H26  1  0.36788536  0.66969307  0.38785694  1  0  0.049482  -0.177353  0  1.140312  0
H  H27  1  0.63211216  0.33030871  0.61213868  1  0  0.049474  -0.177348  0  1.140277  0
H  H28  1  0.51224898  0.80836244  0.29455895  1  0  0.028927  -0.179638  0  1.11714  0
H  H29  1  0.48775147  0.19163566  0.70543931  1  0  0.028932  -0.179633  0  1.11713  0
H  H30  1  0.55031088  0.66216808  0.46884302  1  0  0.042879  -0.181716  0  1.17132  0
H  H31  1  0.44967800  0.33783616  0.53115856  1  0  0.042874  -0.181704  0  1.171257  0
H  H32  1  0.65435992  0.66543883  0.03723910  1  0  0.088272  0.082795  0  1.012324  0
H  H33  1  0.34565518  0.33455185  0.96275908  1  0  0.088285  0.082809  0  1.012287  0
H  H34  1  0.76663252  0.44750441  0.02066726  1  0  0.09559  0.088985  0  1.022107  0
H  H35  1  0.23337840  0.55248991  0.97933499  1  0  0.09558  0.088892  0  1.022165  0
H  H36  1  0.52397339  0.54553400  0.11537895  1  0  0.104216  0.102122  0  1.024815  0
H  H37  1  0.47604004  0.45446038  0.88461507  1  0  0.104175  0.102066  0  1.024832  0
H  H38  1  0.96535882  0.43419331  0.13534518  1  0  0.095625  0.088712  0  1.037104  0
H  H39  1  0.03464374  0.56579734  0.86466813  1  0  0.095662  0.08876  0  1.037205  0
H  H40  1  0.87456364  0.51362599  0.32226164  1  0  0.0965  0.084358  0  1.037149  0
H  H41  1  0.12542901  0.48636716  0.67775288  1  0  0.096482  0.084311  0  1.037208  0
H  H42  1  0.06753985  0.30199185  0.43200815  1  0  0.118483  0.09439  0  1.000073  0
H  H43  1  0.93245517  0.69800989  0.56799466  1  0  0.118491  0.094411  0  0.999997  0
H  H44  1  0.26738432  0.49201821  0.37779236  1  0  0.117338  0.090361  0  1.008396  0
H  H45  1  0.73260959  0.50798603  0.62220421  1  0  0.117367  0.090401  0  1.008438  0
H  H46  1  0.86321766  0.64963132  0.16396056  1  0  0.085212  0.07898  0  1.011869  0
H  H47  1  0.13678574  0.35036297  0.83605182  1  0  0.085267  0.079055  0  1.011929  0
H  H48  1  0.20578052  0.26773603  0.54130833  1  0  0.11035  0.083859  0  0.992031  0
H  H49  1  0.79421479  0.73227058  0.45869252  1  0  0.110326  0.08383  0  0.99204  0
H  H50  1  0.25128467  0.42500584  0.22141837  1  0  0.104257  0.076004  0  0.998713  0
H  H51  1  0.74870839  0.57499474  0.77858121  1  0  0.104243  0.076005  0  0.998781  0
H  H52  1  0.59012109  0.04600511  0.18852195  1  0  0.120642  0.06604  0  0.997405  0
H  H53  1  0.40986904  0.95399913  0.81147811  1  0  0.120632  0.065988  0  0.99743  0
H  H54  1  0.57035284  0.06091332  0.38133694  1  0  0.121576  0.050558  0  1.004169  0
H  H55  1  0.42964775  0.93908721  0.61866086  1  0  0.121573  0.050509  0  1.004175  0
C  C56  1  0.19814718  0.07627767  0.10654497  1  0  -0.136264  -0.226712  0  3.990894  0
C  C57  1  0.80185607  0.92372526  0.89345351  1  0  -0.136274  -0.226801  0  3.990951  0
C  C58  1  0.14270139  0.83605814  0.16809714  1  0  -0.133689  -0.211278  0  3.961023  0
C  C59  1  0.85730241  0.16394360  0.83189716  1  0  -0.13365  -0.21117  0  3.961061  0
C  C60  1  0.65432836  0.54923379  0.09685378  1  0  -0.136686  -0.225832  0  3.965944  0
C  C61  1  0.34568256  0.45076057  0.90314535  1  0  -0.136587  -0.22565  0  3.965888  0
C  C62  1  0.85316962  0.53317453  0.21420739  1  0  -0.135119  -0.217638  0  3.968264  0
C  C63  1  0.14683001  0.46681980  0.78580432  1  0  -0.13522  -0.217849  0  3.968656  0
C  C64  1  0.20524994  0.27464232  0.42579573  1  0  -0.060343  -0.012913  0  3.864667  0
C  C65  1  0.79474341  0.72536309  0.57420605  1  0  -0.06035  -0.012921  0  3.86476  0
C  C66  1  0.29209738  0.38567222  0.32086290  1  0  -0.064828  -0.011304  0  3.866755  0
C  C67  1  0.70789889  0.61432955  0.67913528  1  0  -0.064785  -0.01131  0  3.86692  0
C  C68  1  0.50680940  0.11504283  0.29569186  1  0  0.038083  0.192523  0  3.866869  0
C  C69  1  0.49318617  0.88495772  0.70430782  1  0  0.038104  0.192651  0  3.866771  0
N  N70  1  0.12220509  0.98000181  0.23187004  1  0  -0.450992  -0.25392  0  3.581093  0
N  N71  1  0.87779620  0.01999994  0.76812625  1  0  -0.450995  -0.253864  0  3.581162  0
N  N72  1  0.67491254  0.53547317  0.24283448  1  0  -0.454708  -0.253917  0  3.590948  0
N  N73  1  0.32508597  0.46452366  0.75716993  1  0  -0.454736  -0.253808  0  3.590941  0
O  O74  1  0.48684979  0.28180407  0.26985257  1  0  -0.262653  -0.30523  0  2.459161  0
O  O75  1  0.51314467  0.71819891  0.73014816  1  0  -0.26269  -0.305256  0  2.459174  0
O  O76  1  0.32736206  0.12000756  0.34918172  1  0  -0.257565  -0.29286  0  2.537142  0
O  O77  1  0.67263227  0.87999295  0.65082364  1  0  -0.257574  -0.292881  0  2.537217  0
