# generated using pymatgen
data_NiH17C23N4O5
_symmetry_space_group_name_H-M   'P 1'
_cell_length_a   8.05486582
_cell_length_b   9.80392861
_cell_length_c   11.88635108
_cell_angle_alpha   80.62352743
_cell_angle_beta   89.64447553
_cell_angle_gamma   83.84973267
_symmetry_Int_Tables_number   1
_chemical_formula_structural   NiH17C23N4O5
_chemical_formula_sum   'Ni2 H34 C46 N8 O10'
_cell_volume   920.72494530
_cell_formula_units_Z   2
loop_
 _symmetry_equiv_pos_site_id
 _symmetry_equiv_pos_as_xyz
  1  'x, y, z'
loop_
 _atom_site_type_symbol
 _atom_site_label
 _atom_site_symmetry_multiplicity
 _atom_site_fract_x
 _atom_site_fract_y
 _atom_site_fract_z
 _atom_site_occupancy
 _atom_site_hle17_ddec_charge
 _atom_site_hle17_ddec_spin_density
 _atom_site_hle17_ddec_sum_bond_order
 _atom_site_hle17_magmom
 _atom_site_hse06_10hf_ddec_charge
 _atom_site_hse06_10hf_ddec_spin_density
 _atom_site_hse06_10hf_ddec_sum_bond_order
 _atom_site_hse06_10hf_magmom
 _atom_site_hse06_ddec_charge
 _atom_site_hse06_ddec_spin_density
 _atom_site_hse06_ddec_sum_bond_order
 _atom_site_hse06_magmom
 _atom_site_pbe_cm5_charge
 _atom_site_pbe_ddec_charge
 _atom_site_pbe_ddec_spin_density
 _atom_site_pbe_ddec_sum_bond_order
 _atom_site_pbe_magmom
Ni  Ni0  1  0.31097426  0.96764808  0.46834234  1  0.913297  1.808256  1.987872  1.53  0.918958  1.850915  2.377183  1.649  1.004226  1.910427  2.308518  1.731  0.649668  0.847476  1.789111  2.437346  1.571
Ni  Ni1  1  0.68902768  0.03235441  0.53165759  1  0.913255  -1.808255  1.987918  -1.53  0.91888  -1.850914  2.377247  -1.649  1.004207  -1.910431  2.308534  -1.731  0.649614  0.847391  -1.78911  2.437427  -1.571
H  H2  1  0.11057517  0.22159871  0.59243075  1  0.103395  8.9e-05  0.934083  0.0  0.113328  4.5e-05  0.995662  0.0  0.115831  3.1e-05  0.992125  0.0  0.142019  0.111135  9.3e-05  0.998734  0.0
H  H3  1  0.88942911  0.77840479  0.40757240  1  0.103317  -8.9e-05  0.93423  0.0  0.113274  -4.5e-05  0.995804  0.0  0.115776  -3.1e-05  0.992268  0.0  0.141999  0.111085  -9.3e-05  0.998865  0.0
H  H4  1  0.33137151  0.82044083  0.73120800  1  0.103894  0.000167  0.946812  0.0  0.116591  0.000225  1.000845  0.0  0.118069  0.000158  1.000443  0.0  0.120524  0.115393  0.000297  1.001397  0.001
H  H5  1  0.66862604  0.17955748  0.26879247  1  0.103922  -0.000168  0.946812  -0.001  0.116604  -0.000225  1.000867  0.0  0.118083  -0.000159  1.000465  0.0  0.120523  0.115407  -0.000297  1.001421  -0.001
H  H6  1  0.16555438  0.93688765  0.90236232  1  0.101288  0.000323  1.0026  0.0  0.109865  0.000279  1.070241  0.0  0.112255  0.000202  1.069412  0.0  0.114753  0.108234  0.000354  1.070695  0.0
H  H7  1  0.83444536  0.06311274  0.09763872  1  0.101265  -0.000322  1.002526  0.0  0.109842  -0.000279  1.070169  0.0  0.112233  -0.000202  1.069337  0.0  0.114729  0.108213  -0.000354  1.070626  0.0
H  H8  1  0.13072696  0.11958839  0.98903927  1  0.092895  1.1e-05  0.972467  0.0  0.105617  1.4e-05  1.035207  0.0  0.107831  1.1e-05  1.034893  0.0  0.100241  0.104151  1.8e-05  1.035258  0.0
H  H9  1  0.86927445  0.88040886  0.01096384  1  0.09291  -1.1e-05  0.972554  0.0  0.105631  -1.4e-05  1.035292  0.0  0.107845  -1.1e-05  1.034974  0.0  0.10024  0.104166  -1.8e-05  1.035343  0.0
H  H10  1  0.97426560  0.28669707  0.09083214  1  0.095103  1.9e-05  0.952327  0.0  0.110141  3.4e-05  1.005701  0.0  0.1128  2e-05  1.004476  0.0  0.104827  0.108125  4.9e-05  1.006742  0.0
H  H11  1  0.02573166  0.71330329  0.90917060  1  0.095087  -2e-05  0.952289  0.0  0.110131  -3.4e-05  1.005669  0.0  0.112791  -2e-05  1.004444  0.0  0.104831  0.108114  -4.9e-05  1.006709  0.0
H  H12  1  0.73869103  0.49321349  0.77375382  1  0.101319  7.1e-05  0.987412  0.0  0.109611  7.1e-05  1.052057  0.0  0.112447  4.2e-05  1.050489  0.0  0.101799  0.107432  0.000107  1.053314  0.0
H  H13  1  0.26130541  0.50678374  0.22624931  1  0.101372  -7.2e-05  0.987485  0.0  0.10967  -7.1e-05  1.052111  0.0  0.112511  -4.2e-05  1.050532  0.0  0.101824  0.107496  -0.000107  1.053352  0.0
H  H14  1  0.88954563  0.32176312  0.67399617  1  0.105677  6.5e-05  0.960275  0.0  0.116913  4e-05  1.021533  0.0  0.118855  3.6e-05  1.021387  0.0  0.107324  0.115258  5.9e-05  1.022038  0.0
H  H15  1  0.11045330  0.67823413  0.32600695  1  0.105615  -6.6e-05  0.960317  0.0  0.116856  -4e-05  1.021582  0.0  0.118797  -3.6e-05  1.021438  0.0  0.107307  0.115196  -5.9e-05  1.022089  0.0
H  H16  1  0.83530014  0.41577376  0.17496829  1  0.097486  -5e-06  0.960964  0.0  0.108239  3e-06  1.0217  0.0  0.111039  1e-06  1.020414  0.0  0.102441  0.106174  -3e-06  1.022631  0.0
H  H17  1  0.16469506  0.58422349  0.82503317  1  0.097524  6e-06  0.960933  0.0  0.108285  -3e-06  1.021651  0.0  0.111089  -2e-06  1.020363  0.0  0.102456  0.106219  3e-06  1.022581  0.0
H  H18  1  0.68429290  0.58547922  0.27063678  1  0.100087  -3.5e-05  0.977182  0.0  0.107866  -4.4e-05  1.045839  0.0  0.10997  -2.4e-05  1.045744  0.0  0.101064  0.106161  -9.5e-05  1.046131  0.0
H  H19  1  0.31570822  0.41452013  0.72936523  1  0.100101  3.4e-05  0.977222  0.0  0.107874  4.4e-05  1.045886  0.0  0.109978  2.4e-05  1.045791  0.0  0.101073  0.106174  9.5e-05  1.046177  0.0
H  H20  1  0.46949995  0.79957282  0.94828538  1  0.089758  2.6e-05  0.976737  0.0  0.101492  2.8e-05  1.039775  0.0  0.103563  1.9e-05  1.039974  0.0  0.09889  0.099963  3.5e-05  1.039786  0.0
H  H21  1  0.53049664  0.20042339  0.05171620  1  0.089725  -2.6e-05  0.976755  0.0  0.101459  -2.8e-05  1.039796  0.0  0.103532  -1.9e-05  1.039996  0.0  0.098876  0.099934  -3.5e-05  1.039794  0.0
H  H22  1  0.62675241  0.63115480  0.85131103  1  0.102329  7e-05  0.996457  0.0  0.111599  7.3e-05  1.05878  0.0  0.114467  4.7e-05  1.057226  0.0  0.100838  0.109324  9.6e-05  1.060167  0.0
H  H23  1  0.37324460  0.36883831  0.14868926  1  0.102321  -7e-05  0.996475  0.0  0.111614  -7.3e-05  1.05877  0.0  0.114469  -4.7e-05  1.057232  0.0  0.100836  0.10934  -9.6e-05  1.06016  0.0
H  H24  1  0.52605749  0.72682866  0.35034139  1  0.081446  0.000139  0.991504  0.001  0.089634  8e-05  1.060098  0.0  0.090411  6.3e-05  1.059164  0.0  0.129178  0.088825  0.000102  1.061139  0.0
H  H25  1  0.47394719  0.27318113  0.64965760  1  0.081408  -0.000142  0.991454  -0.001  0.08963  -8e-05  1.060005  0.0  0.090407  -6.3e-05  1.05907  0.0  0.129173  0.088821  -0.000102  1.061048  0.0
H  H26  1  0.23881810  0.09457378  0.20086394  1  0.115055  0.000185  0.951629  0.001  0.126163  0.000231  1.007266  0.001  0.128796  0.000155  1.005404  0.0  0.122954  0.124125  0.000309  1.00886  0.001
H  H27  1  0.76117227  0.90542250  0.79912925  1  0.11503  -0.000183  0.951663  -0.001  0.126161  -0.000231  1.007264  -0.001  0.128796  -0.000155  1.005402  0.0  0.122955  0.124119  -0.000309  1.008856  -0.001
H  H28  1  0.36795550  0.95665696  0.02897454  1  0.100262  0.000349  0.996662  0.0  0.108018  0.000305  1.065942  0.0  0.11103  0.000225  1.063596  0.0  0.114577  0.105872  0.00038  1.06764  0.0
H  H29  1  0.63204246  0.04333825  0.97102465  1  0.100168  -0.000349  0.996602  0.0  0.107947  -0.000305  1.065864  0.0  0.110958  -0.000225  1.063536  0.0  0.11455  0.105797  -0.00038  1.067557  0.0
H  H30  1  0.21487841  0.45064837  0.45864433  1  0.119635  -2e-06  0.946065  0.0  0.125815  1.4e-05  1.012678  0.0  0.13028  1.2e-05  1.009915  0.0  0.110745  0.122511  5.5e-05  1.014905  0.0
H  H31  1  0.78512601  0.54935417  0.54135137  1  0.119577  5e-06  0.945954  0.0  0.125759  -1.4e-05  1.012584  0.0  0.130226  -1.2e-05  1.009818  0.0  0.110678  0.122458  -5.5e-05  1.014814  0.0
H  H32  1  0.00876471  0.13051058  0.43067963  1  0.419627  0.000497  0.88175  0.001  0.392202  0.000736  0.948248  0.001  0.404558  0.000585  0.930724  0.001  0.290358  0.383038  0.000867  0.961185  0.001
H  H33  1  0.99123613  0.86949087  0.56931959  1  0.419643  -0.000496  0.881727  -0.001  0.392218  -0.000736  0.948225  -0.001  0.404571  -0.000585  0.930706  -0.001  0.290362  0.383052  -0.000867  0.961163  -0.001
H  H34  1  0.16333367  0.18171424  0.35639408  1  0.408334  -0.00023  0.895745  -0.001  0.380459  0.000162  0.963228  0.0  0.391881  2e-05  0.946479  0.0  0.290581  0.372093  0.000308  0.975402  0.0
H  H35  1  0.83666773  0.81828308  0.64360398  1  0.408363  0.000231  0.895691  0.001  0.38049  -0.000162  0.963177  0.0  0.391912  -2e-05  0.94643  0.0  0.2906  0.372128  -0.000308  0.975345  0.0
C  C36  1  0.15077162  0.12816127  0.65197654  1  0.184554  -0.005725  3.58779  -0.007  0.129603  -0.001194  3.858391  -0.002  0.145806  -0.001491  3.868606  -0.002  0.150443  0.118517  -0.001063  3.851433  -0.001
C  C37  1  0.84923185  0.87183911  0.34802618  1  0.184667  0.00573  3.587901  0.007  0.129665  0.001195  3.85852  0.002  0.145867  0.001492  3.86874  0.002  0.15048  0.118576  0.001063  3.851556  0.001
C  C38  1  0.26295084  0.92230023  0.72745838  1  0.028475  -0.002123  3.722628  -0.003  -0.002289  -0.000457  3.992361  -0.001  0.002268  -0.00075  4.010636  -0.001  0.003904  -0.005848  -0.000257  3.980259  -0.001
C  C39  1  0.73704794  0.07769808  0.27254293  1  0.028344  0.002138  3.722795  0.003  -0.00242  0.000457  3.992529  0.001  0.002138  0.00075  4.010803  0.001  0.003886  -0.005982  0.000257  3.980434  0.001
C  C40  1  0.18435084  0.97938362  0.81397150  1  -0.076173  0.003239  3.680491  0.004  -0.115857  0.001267  3.941118  0.002  -0.113826  0.001176  3.957168  0.001  -0.006561  -0.117155  0.001381  3.930551  0.002
C  C41  1  0.81564656  0.02061572  0.18602884  1  -0.076022  -0.003253  3.680366  -0.004  -0.115704  -0.001267  3.940971  -0.002  -0.113673  -0.001176  3.957021  -0.001  -0.006488  -0.117007  -0.001382  3.930415  -0.002
C  C42  1  0.01962377  0.20771252  0.82436716  1  0.174008  0.000691  3.797558  0.001  0.165527  0.000453  4.045905  0.001  0.171167  0.000358  4.068534  0.001  0.091649  0.161903  0.000531  4.030639  0.001
C  C43  1  0.98037778  0.79228368  0.17563778  1  0.17399  -0.000691  3.797668  -0.001  0.165464  -0.000456  4.046073  -0.001  0.171103  -0.00036  4.068705  -0.001  0.091641  0.161842  -0.000531  4.030802  -0.001
C  C44  1  0.04074363  0.19888819  0.94212930  1  -0.159446  1.9e-05  3.784157  0.0  -0.181182  3.8e-05  4.040429  0.0  -0.185172  1.2e-05  4.062048  0.0  -0.099258  -0.178529  8.6e-05  4.025621  0.0
C  C45  1  0.95925487  0.80111217  0.05787343  1  -0.159523  -2.2e-05  3.784144  0.0  -0.181252  -3.7e-05  4.040435  0.0  -0.185238  -1.1e-05  4.062049  0.0  -0.099285  -0.1786  -8.6e-05  4.025628  0.0
C  C46  1  0.95144627  0.29506434  0.99962920  1  -0.100533  2.5e-05  3.760417  0.0  -0.118791  1.3e-05  4.007849  0.0  -0.120334  1.4e-05  4.028766  0.0  -0.089022  -0.11765  3.9e-05  3.993551  0.0
C  C47  1  0.04855638  0.70493292  0.00037391  1  -0.100416  -2.2e-05  3.760377  0.0  -0.11867  -1.1e-05  4.007787  0.0  -0.120214  -1.2e-05  4.028704  0.0  -0.088989  -0.11753  -3.9e-05  3.993488  0.0
C  C48  1  0.83863387  0.40321552  0.94230165  1  0.043496  -4.6e-05  3.760294  0.0  0.055709  -4.6e-05  3.994811  0.0  0.05517  -3.8e-05  4.018738  0.0  -0.008615  0.055984  -3.5e-05  3.978435  0.0
C  C49  1  0.16136381  0.59678171  0.05770232  1  0.043392  4.9e-05  3.760292  0.0  0.055609  4.3e-05  3.994815  0.0  0.05507  3.4e-05  4.018745  0.0  -0.008677  0.055883  3.5e-05  3.978438  0.0
C  C50  1  0.82103373  0.41031820  0.82356749  1  -0.075816  9.4e-05  3.688789  0.0  -0.096107  8.2e-05  3.937189  0.0  -0.097197  5.5e-05  3.957065  0.0  -0.083221  -0.095286  0.000101  3.924012  0.0
C  C51  1  0.17896519  0.58967903  0.17643648  1  -0.07581  -9.6e-05  3.68884  0.0  -0.09609  -8e-05  3.937216  0.0  -0.097181  -5.4e-05  3.957092  0.0  -0.083153  -0.095268  -0.000101  3.924042  0.0
C  C52  1  0.90882291  0.31423130  0.76536680  1  -0.125332  -4.6e-05  3.717927  0.0  -0.147445  1.5e-05  3.972173  0.0  -0.151088  4e-06  3.993183  0.0  -0.087401  -0.145307  2.3e-05  3.958699  0.0
C  C53  1  0.09117574  0.68576803  0.23463607  1  -0.125257  4.8e-05  3.718047  0.0  -0.14738  -1.4e-05  3.972315  0.0  -0.151023  -2e-06  3.993329  0.0  -0.087419  -0.145239  -2.3e-05  3.958835  0.0
C  C54  1  0.74388752  0.50595162  0.00338033  1  0.041728  -0.000452  3.775787  -0.001  0.058594  -0.000192  4.004116  0.0  0.057911  -0.000165  4.028515  0.0  -0.008291  0.058989  -0.000259  3.987512  0.0
C  C55  1  0.25611045  0.49404356  0.99662138  1  0.041919  0.00044  3.775646  0.001  0.058758  0.000191  4.004007  0.0  0.058076  0.000162  4.028404  0.0  -0.008214  0.059155  0.000259  3.987401  0.0
C  C56  1  0.75450984  0.49763253  0.12255763  1  -0.084017  0.00027  3.720868  0.0  -0.104148  4e-05  3.966909  0.0  -0.105897  6.2e-05  3.988594  0.0  -0.083838  -0.102937  4.3e-05  3.952447  0.0
C  C57  1  0.24549032  0.50236474  0.87744381  1  -0.08413  -0.000262  3.720947  0.0  -0.104257  -4e-05  3.966991  0.0  -0.10601  -6e-05  3.988678  0.0  -0.083872  -0.103044  -4.3e-05  3.952525  0.0
C  C58  1  0.66673265  0.59594153  0.17877951  1  -0.146991  -0.000549  3.741877  -0.001  -0.166975  -0.000241  3.998502  0.0  -0.171593  -0.000196  4.021089  0.0  -0.094158  -0.16407  -0.000331  3.983771  0.0
C  C59  1  0.33326958  0.40405888  0.82122068  1  -0.147013  0.000542  3.741899  0.001  -0.166982  0.000242  3.998521  0.0  -0.171599  0.000198  4.021105  0.0  -0.094137  -0.16408  0.000331  3.983791  0.0
C  C60  1  0.56321475  0.70638956  0.11710732  1  0.176023  0.000931  3.781449  0.001  0.164937  0.000518  4.032139  0.001  0.171032  0.000436  4.053666  0.001  0.089966  0.160702  0.000584  4.017598  0.001
C  C61  1  0.43678996  0.29361085  0.88289370  1  0.176025  -0.00092  3.781325  -0.001  0.164912  -0.000519  4.032069  -0.001  0.171007  -0.000439  4.053594  -0.001  0.089903  0.160683  -0.000584  4.017533  -0.001
C  C62  1  0.54964676  0.71579069  0.99893327  1  -0.150346  -0.000298  3.768598  0.0  -0.169153  -5e-05  4.022471  0.0  -0.173297  -7.3e-05  4.043985  0.0  -0.096493  -0.166288  -3.4e-05  4.007786  0.0
C  C63  1  0.45035450  0.28420763  0.00106803  1  -0.150285  0.000288  3.768581  0.0  -0.169073  5e-05  4.022457  0.0  -0.173217  7.5e-05  4.043969  0.0  -0.096438  -0.166206  3.4e-05  4.007773  0.0
C  C64  1  0.63902048  0.61775947  0.94357036  1  -0.088322  0.000402  3.7267  0.001  -0.10875  0.000145  3.971229  0.0  -0.110495  0.000138  3.992199  0.0  -0.088107  -0.107313  0.000163  3.957035  0.0
C  C65  1  0.36097887  0.38223466  0.05643232  1  -0.088429  -0.000392  3.726772  -0.001  -0.108877  -0.000145  3.971321  0.0  -0.110617  -0.000137  3.9923  0.0  -0.088175  -0.107443  -0.000163  3.957132  0.0
C  C66  1  0.46484478  0.80856207  0.28756874  1  0.175692  -0.006946  3.626753  -0.008  0.117626  -0.001991  3.90229  -0.003  0.133538  -0.002195  3.915104  -0.003  0.144129  0.106619  -0.001989  3.893405  -0.002
C  C67  1  0.53516240  0.19143836  0.71243143  1  0.17569  0.006969  3.626769  0.008  0.117597  0.00199  3.902303  0.003  0.133512  0.002195  3.915121  0.003  0.144147  0.106598  0.001989  3.893428  0.002
C  C68  1  0.31662101  0.99669693  0.20646603  1  0.020709  -0.001791  3.716856  -0.003  -0.012059  -9.2e-05  3.992073  -0.001  -0.007664  -0.000504  4.009999  -0.001  0.002287  -0.01533  0.000229  3.980089  0.0
C  C69  1  0.68337281  0.00330140  0.79353109  1  0.020706  0.001782  3.716961  0.003  -0.012108  9.2e-05  3.99221  0.001  -0.007716  0.000504  4.010144  0.001  0.002274  -0.01537  -0.000229  3.980215  0.0
C  C70  1  0.37966204  0.92942123  0.12056558  1  -0.089122  0.00396  3.702666  0.005  -0.130835  0.001694  3.969898  0.002  -0.12976  0.001519  3.98775  0.002  -0.010251  -0.131477  0.001928  3.958128  0.002
C  C71  1  0.62033192  0.07057607  0.87943083  1  -0.089008  -0.003954  3.702589  -0.005  -0.130705  -0.001695  3.969828  -0.002  -0.129638  -0.001519  3.98766  -0.002  -0.010191  -0.131331  -0.001928  3.958048  -0.002
C  C72  1  0.19785021  0.67277938  0.55207383  1  0.629948  -0.001609  3.909505  -0.002  0.587168  0.001016  4.215635  0.001  0.621911  0.001076  4.207347  0.002  0.203758  0.562457  0.00103  4.220096  0.001
C  C73  1  0.80215130  0.32722627  0.44792149  1  0.629955  0.00161  3.909338  0.002  0.58715  -0.001015  4.215472  -0.001  0.621883  -0.001078  4.207201  -0.002  0.203824  0.56245  -0.001029  4.219924  -0.001
C  C74  1  0.34100036  0.47321303  0.47670028  1  -0.101513  5.9e-05  3.703482  0.0  -0.133345  0.000363  3.95904  0.001  -0.133865  8.4e-05  3.974815  0.0  -0.081769  -0.133223  0.000308  3.948818  0.0
C  C75  1  0.65899910  0.52678950  0.52329545  1  -0.101467  -7.4e-05  3.703528  0.0  -0.133352  -0.000363  3.959057  -0.001  -0.133866  -8.3e-05  3.974844  0.0  -0.081733  -0.133227  -0.000308  3.948846  0.0
C  C76  1  0.36007526  0.59176340  0.52499743  1  -0.060264  0.000769  3.717421  0.001  -0.050908  0.000228  3.961555  0.001  -0.052341  0.000135  3.97719  0.0  -0.011643  -0.049761  0.00011  3.950969  0.0
C  C77  1  0.63992763  0.40824124  0.47499717  1  -0.060271  -0.000766  3.717542  -0.001  -0.050813  -0.000229  3.961594  -0.001  -0.052243  -0.000135  3.977198  0.0  -0.011568  -0.049691  -0.00011  3.951033  0.0
C  C78  1  0.52342554  0.61894310  0.54855578  1  -0.070644  -0.004388  3.720559  -0.005  -0.059361  -0.002674  3.962459  -0.003  -0.062326  -0.001979  3.978454  -0.003  -0.01453  -0.057198  -0.003023  3.95177  -0.004
C  C79  1  0.47657750  0.38106047  0.45144064  1  -0.070597  0.004395  3.720401  0.005  -0.05943  0.002673  3.962388  0.003  -0.062354  0.001979  3.978319  0.003  -0.014532  -0.057258  0.003023  3.951705  0.004
C  C80  1  0.57673030  0.74084689  0.59623430  1  0.651516  0.000689  3.85012  0.002  0.60441  0.000778  4.155794  0.002  0.641885  0.000785  4.145381  0.002  0.219772  0.577437  0.000521  4.161675  0.002
C  C81  1  0.42327068  0.25915353  0.40376421  1  0.651456  -0.000691  3.849938  -0.002  0.604412  -0.000778  4.155561  -0.002  0.641875  -0.000785  4.145142  -0.002  0.219754  0.577439  -0.000521  4.161446  -0.002
N  N82  1  0.24139638  0.01586945  0.62707414  1  -0.337235  0.048429  3.289489  0.072  -0.299601  0.031912  3.58695  0.048  -0.327331  0.026277  3.607132  0.041  -0.346426  -0.279019  0.036009  3.573101  0.053
N  N83  1  0.75860570  0.98413198  0.37292676  1  -0.33727  -0.048434  3.289629  -0.072  -0.29961  -0.031911  3.587087  -0.048  -0.327348  -0.026276  3.60727  -0.041  -0.346493  -0.279026  -0.036009  3.57324  -0.053
N  N84  1  0.11284975  0.11072375  0.76548035  1  -0.082794  0.001178  3.588341  0.002  0.005807  0.000881  3.797977  0.001  -0.008814  0.000676  3.822212  0.001  -0.222537  0.015336  0.001059  3.781683  0.002
N  N85  1  0.88715137  0.88927559  0.23452166  1  -0.082829  -0.001176  3.588398  -0.002  0.00581  -0.000881  3.798023  -0.001  -0.00881  -0.000678  3.822258  -0.001  -0.222511  0.015339  -0.001059  3.781729  -0.002
N  N86  1  0.37055313  0.92017942  0.31033678  1  -0.329068  0.049168  3.273408  0.074  -0.296225  0.032445  3.585334  0.049  -0.323597  0.026569  3.602635  0.041  -0.346232  -0.275794  0.036945  3.573299  0.055
N  N87  1  0.62944757  0.07982309  0.68966146  1  -0.329094  -0.049173  3.273578  -0.074  -0.296222  -0.032442  3.585496  -0.049  -0.323616  -0.026567  3.602818  -0.041  -0.346284  -0.2758  -0.036942  3.573474  -0.055
N  N88  1  0.47465908  0.80933151  0.17271517  1  -0.087924  0.000902  3.601031  0.001  0.003419  0.000641  3.807303  0.001  -0.011573  0.000473  3.832658  0.001  -0.223823  0.013387  0.000805  3.790267  0.001
N  N89  1  0.52534204  0.19066785  0.82728600  1  -0.08787  -0.00091  3.600834  -0.002  0.003465  -0.000641  3.807123  -0.001  -0.011525  -0.000473  3.832475  -0.001  -0.223799  0.013413  -0.000805  3.790112  -0.001
O  O90  1  0.17094387  0.80478780  0.51290396  1  -0.639429  0.047695  2.155769  0.077  -0.60836  0.030737  2.430227  0.05  -0.647749  0.023289  2.421044  0.038  -0.316664  -0.577424  0.036496  2.435829  0.059
O  O91  1  0.82905874  0.19521891  0.48709122  1  -0.639347  -0.047694  2.155704  -0.077  -0.608259  -0.030736  2.430157  -0.05  -0.647658  -0.023287  2.420978  -0.038  -0.316636  -0.577324  -0.036495  2.43576  -0.059
O  O92  1  0.09177949  0.60505449  0.60611367  1  -0.571135  0.011611  1.853821  0.018  -0.534939  0.004793  2.06656  0.008  -0.558091  0.002478  2.059718  0.004  -0.31833  -0.516491  0.008565  2.070119  0.013
O  O93  1  0.90822519  0.39495534  0.39388111  1  -0.571191  -0.011612  1.853567  -0.018  -0.535013  -0.004793  2.066346  -0.008  -0.55815  -0.002478  2.059492  -0.004  -0.318443  -0.516564  -0.008566  2.069896  -0.013
O  O94  1  0.53023759  0.86556742  0.54444229  1  -0.623084  0.000553  2.244803  0.001  -0.606534  -0.000132  2.559422  0.0  -0.652222  0.000184  2.551429  0.0  -0.303375  -0.568748  -7.6e-05  2.563122  0.0
O  O95  1  0.46976215  0.13443297  0.45555876  1  -0.623104  -0.000557  2.244758  -0.001  -0.606564  0.000131  2.559345  0.0  -0.652261  -0.000184  2.551372  0.0  -0.303397  -0.568778  7.4e-05  2.563046  0.0
O  O96  1  0.68040407  0.71453685  0.67739204  1  -0.582146  0.005941  1.989076  0.009  -0.530248  0.00359  2.20892  0.005  -0.552575  0.002464  2.197974  0.004  -0.292696  -0.513619  0.004748  2.215888  0.007
O  O97  1  0.31959347  0.28546148  0.32260675  1  -0.582122  -0.005941  1.989048  -0.009  -0.530241  -0.003591  2.208874  -0.005  -0.552572  -0.002465  2.197937  -0.004  -0.292685  -0.513611  -0.004749  2.215846  -0.007
O  O98  1  0.10999278  0.09719795  0.38911946  1  -0.795683  0.045642  1.96982  0.071  -0.772164  0.032498  2.188561  0.051  -0.80217  0.02542  2.154888  0.041  -0.575439  -0.748122  0.038579  2.213089  0.059
O  O99  1  0.89000987  0.90279932  0.61088281  1  -0.79571  -0.045643  1.969832  -0.071  -0.772184  -0.032497  2.188566  -0.051  -0.8022  -0.025421  2.154893  -0.041  -0.575429  -0.74814  -0.038579  2.213095  -0.059
