# generated using pymatgen
data_CdH14(C7N5)2
_symmetry_space_group_name_H-M   'P 1'
_cell_length_a   8.82441913
_cell_length_b   9.89741925
_cell_length_c   11.40556789
_cell_angle_alpha   104.16380145
_cell_angle_beta   104.34610265
_cell_angle_gamma   109.78710873
_symmetry_Int_Tables_number   1
_chemical_formula_structural   CdH14(C7N5)2
_chemical_formula_sum   'Cd2 H28 C28 N20'
_cell_volume   847.06803874
_cell_formula_units_Z   2
loop_
 _symmetry_equiv_pos_site_id
 _symmetry_equiv_pos_as_xyz
  1  'x, y, z'
loop_
 _atom_site_type_symbol
 _atom_site_label
 _atom_site_symmetry_multiplicity
 _atom_site_fract_x
 _atom_site_fract_y
 _atom_site_fract_z
 _atom_site_occupancy
 _atom_site_hle17_bader_spin_density
 _atom_site_hle17_ddec_charge
 _atom_site_hle17_ddec_spin_density
 _atom_site_hle17_ddec_sum_bond_order
 _atom_site_hle17_magmom
 _atom_site_hse06_10hf_bader_spin_density
 _atom_site_hse06_10hf_ddec_charge
 _atom_site_hse06_10hf_ddec_spin_density
 _atom_site_hse06_10hf_ddec_sum_bond_order
 _atom_site_hse06_10hf_magmom
 _atom_site_hse06_bader_spin_density
 _atom_site_hse06_ddec_charge
 _atom_site_hse06_ddec_spin_density
 _atom_site_hse06_ddec_sum_bond_order
 _atom_site_hse06_magmom
 _atom_site_pbe_bader_spin_density
 _atom_site_pbe_cm5_charge
 _atom_site_pbe_ddec_charge
 _atom_site_pbe_ddec_spin_density
 _atom_site_pbe_ddec_sum_bond_order
 _atom_site_pbe_magmom
Cd  Cd0  1  0.02179430  0.29162946  0.24675447  1  0  1.146341  0  1.881934  0  0  0.962733  0  2.368917  0  0  1.00875  0  2.323406  0  0  0.827739  0.930321  0  2.400018  0
Cd  Cd1  1  0.97820311  0.70836955  0.75324539  1  0  1.146369  0  1.881863  0  0  0.96277  0  2.368833  0  0  1.008788  0  2.323319  0  0  0.827741  0.930358  0  2.399934  0
H  H2  1  0.32289178  0.94143231  0.39246271  1  0  0.065098  0  0.958844  0  0  0.079088  0  1.029529  0  0  0.07917  0  1.031566  0  0  0.086894  0.078918  0  1.028285  0
H  H3  1  0.67710968  0.05856782  0.60753729  1  0  0.065094  0  0.958852  0  0  0.079063  0  1.029548  0  0  0.079145  0  1.031585  0  0  0.086871  0.078893  0  1.028302  0
H  H4  1  0.37249379  0.03585248  0.55906996  1  0  0.075695  0  0.924967  0  0  0.096142  0  0.979975  0  0  0.09681  0  0.980835  0  0  0.094295  0.095593  0  0.979452  0
H  H5  1  0.62750823  0.96414880  0.44093039  1  0  0.075703  0  0.925012  0  0  0.096155  0  0.980004  0  0  0.096824  0  0.980863  0  0  0.094291  0.095605  0  0.979482  0
H  H6  1  0.38445580  0.21712588  0.44423922  1  0  0.073208  0  0.939558  0  0  0.087441  0  1.006854  0  0  0.087434  0  1.007508  0  0  0.107255  0.087281  0  1.006453  0
H  H7  1  0.61554450  0.78287425  0.55576056  1  0  0.073209  0  0.939561  0  0  0.087442  0  1.006861  0  0  0.087435  0  1.007516  0  0  0.107243  0.087281  0  1.006461  0
H  H8  1  0.59220959  0.27312508  0.55962946  1  0  0.078154  0  0.936965  0  0  0.096094  0  0.997028  0  0  0.096109  0  0.997973  0  0  0.111105  0.096018  0  0.99634  0
H  H9  1  0.40779071  0.72687506  0.44037032  1  0  0.078146  0  0.936946  0  0  0.096092  0  0.997019  0  0  0.096106  0  0.997965  0  0  0.111097  0.096014  0  0.996331  0
H  H10  1  0.83761279  0.31961864  0.48435123  1  0  0.102867  0  0.954507  0  0  0.109071  0  1.025667  0  0  0.111481  0  1.022991  0  0  0.131293  0.107179  0  1.027834  0
H  H11  1  0.16238807  0.68038266  0.51564977  1  0  0.102871  0  0.954531  0  0  0.109076  0  1.025689  0  0  0.111486  0  1.023013  0  0  0.131285  0.107184  0  1.027855  0
H  H12  1  0.58312876  0.11829337  0.07781455  1  0  0.097659  0  0.973618  0  0  0.108148  0  1.034869  0  0  0.110353  0  1.034141  0  0  0.111449  0.10664  0  1.035236  0
H  H13  1  0.41687215  0.88170561  0.92218511  1  0  0.097632  0  0.973599  0  0  0.108118  0  1.03486  0  0  0.110324  0  1.034131  0  0  0.111442  0.106611  0  1.035228  0
H  H14  1  0.33741832  0.05761876  0.19527831  1  0  0.11768  0  0.958983  0  0  0.128201  0  1.019321  0  0  0.130521  0  1.018692  0  0  0.121122  0.12651  0  1.01989  0
H  H15  1  0.66258253  0.94238253  0.80472182  1  0  0.117677  0  0.958961  0  0  0.128196  0  1.019305  0  0  0.130517  0  1.018676  0  0  0.121121  0.126506  0  1.019874  0
H  H16  1  0.52369774  0.64891460  0.97223284  1  0  0.067749  0  0.938663  0  0  0.086239  0  1.000206  0  0  0.086475  0  1.00155  0  0  0.089768  0.086173  0  0.999025  0
H  H17  1  0.47630251  0.35108785  0.02776740  1  0  0.067748  0  0.93872  0  0  0.086229  0  1.000268  0  0  0.086463  0  1.001615  0  0  0.089778  0.086162  0  0.999087  0
H  H18  1  0.52308996  0.62681449  0.12156059  1  0  0.072013  0  0.947626  0  0  0.085697  0  1.015147  0  0  0.087201  0  1.015026  0  0  0.088479  0.084671  0  1.015138  0
H  H19  1  0.47691090  0.37318680  0.87843953  1  0  0.072006  0  0.947651  0  0  0.085697  0  1.015161  0  0  0.087201  0  1.015039  0  0  0.088477  0.084671  0  1.015152  0
H  H20  1  0.77698986  0.55432020  0.13283067  1  0  0.082758  0  0.928243  0  0  0.097063  0  0.992416  0  0  0.097623  0  0.992756  0  0  0.111222  0.096589  0  0.99233  0
H  H21  1  0.22300928  0.44567995  0.86716889  1  0  0.082756  0  0.928311  0  0  0.097084  0  0.992449  0  0  0.09765  0  0.992792  0  0  0.111227  0.096612  0  0.992362  0
H  H22  1  0.78515760  0.60375345  0.99366143  1  0  0.074912  0  0.947545  0  0  0.088294  0  1.015155  0  0  0.087901  0  1.016815  0  0  0.105427  0.088498  0  1.014084  0
H  H23  1  0.21484098  0.39624553  0.00633690  1  0  0.074939  0  0.947504  0  0  0.088317  0  1.015116  0  0  0.087931  0  1.016778  0  0  0.105428  0.088523  0  1.014045  0
H  H24  1  0.84174073  0.90300676  0.02743505  1  0  0.101195  0  0.931896  0  0  0.110923  0  0.99647  0  0  0.113379  0  0.993426  0  0  0.135236  0.109303  0  0.998233  0
H  H25  1  0.15825724  0.09699340  0.97256428  1  0  0.101219  0  0.931877  0  0  0.110955  0  0.996439  0  0  0.113412  0  0.993395  0  0  0.135245  0.109333  0  0.998201  0
H  H26  1  0.07920863  0.08050044  0.43514493  1  0  0.095183  0  0.979913  0  0  0.105057  0  1.042394  0  0  0.106792  0  1.042556  0  0  0.110675  0.103929  0  1.04213  0
H  H27  1  0.92079462  0.91949852  0.56485519  1  0  0.095143  0  0.979989  0  0  0.105033  0  1.042454  0  0  0.10676  0  1.042618  0  0  0.110696  0.103905  0  1.04219  0
H  H28  1  0.92306415  0.75916514  0.34837896  1  0  0.117336  0  0.973036  0  0  0.125941  0  1.037992  0  0  0.128392  0  1.036918  0  0  0.120613  0.1241  0  1.039013  0
H  H29  1  0.07693793  0.24083380  0.65161829  1  0  0.117309  0  0.972999  0  0  0.12588  0  1.037999  0  0  0.128336  0  1.036921  0  0  0.120592  0.124039  0  1.03902  0
C  C30  1  0.42860276  0.02675197  0.48290941  1  0  -0.126887  0  3.688693  0  0  -0.169094  0  3.954176  0  0  -0.170506  0  3.967494  0  0  -0.165275  -0.168044  0  3.945021  0
C  C31  1  0.57139871  0.97324815  0.51708972  1  0  -0.126951  0  3.688761  0  0  -0.169121  0  3.954236  0  0  -0.170534  0  3.967554  0  0  -0.165263  -0.168075  0  3.945087  0
C  C32  1  0.49173680  0.18396794  0.46890324  1  0  2.8e-05  0  3.618313  0  0  -0.0624  0  3.875543  0  0  -0.057535  0  3.886607  0  0  -0.055495  -0.065523  0  3.867882  0
C  C33  1  0.50826639  0.81603333  0.53109734  1  0  0.000117  0  3.618245  0  0  -0.062329  0  3.87547  0  0  -0.057464  0  3.886535  0  0  -0.055415  -0.06545  0  3.867805  0
C  C34  1  0.73785444  0.25558446  0.38844578  1  0  0.154411  0  3.66996  0  0  0.094745  0  3.934378  0  0  0.107784  0  3.948255  0  0  0.134186  0.086311  0  3.924935  0
C  C35  1  0.26214642  0.74441682  0.61155434  1  0  0.15438  0  3.670043  0  0  0.094714  0  3.934453  0  0  0.107751  0  3.948332  0  0  0.13418  0.08628  0  3.925011  0
C  C36  1  0.59923687  0.14935100  0.17950934  1  0  -0.013337  0  3.779709  0  0  -0.047753  0  4.047703  0  0  -0.046126  0  4.067865  0  0  -0.014089  -0.048778  0  4.034011  0
C  C37  1  0.40076516  0.85065028  0.82049101  1  0  -0.013266  0  3.779674  0  0  -0.047676  0  4.047662  0  0  -0.046049  0  4.067825  0  0  -0.014055  -0.048704  0  4.033977  0
C  C38  1  0.47699689  0.11783834  0.23591264  1  0  -0.061311  0  3.685512  0  0  -0.102823  0  3.945655  0  0  -0.101078  0  3.964808  0  0  -0.003694  -0.104111  0  3.933048  0
C  C39  1  0.52300336  0.88216410  0.76408673  1  0  -0.061331  0  3.685573  0  0  -0.102846  0  3.945715  0  0  -0.101101  0  3.964869  0  0  -0.003705  -0.104134  0  3.933107  0
C  C40  1  0.55422003  0.58640601  0.03569233  1  0  -0.125333  0  3.686838  0  0  -0.165297  0  3.946772  0  0  -0.167018  0  3.960254  0  0  -0.165116  -0.163964  0  3.937174  0
C  C41  1  0.44577910  0.41359414  0.96430723  1  0  -0.125324  0  3.686886  0  0  -0.165299  0  3.946851  0  0  -0.167014  0  3.960347  0  0  -0.165134  -0.163963  0  3.937256  0
C  C42  1  0.74669921  0.62510931  0.07842345  1  0  -0.008584  0  3.632231  0  0  -0.071307  0  3.891454  0  0  -0.067058  0  3.903586  0  0  -0.058799  -0.074058  0  3.883122  0
C  C43  1  0.25329937  0.37488967  0.92157400  1  0  -0.008609  0  3.632237  0  0  -0.071329  0  3.89146  0  0  -0.06711  0  3.903632  0  0  -0.058797  -0.074084  0  3.883133  0
C  C44  1  0.88597002  0.91102128  0.12758402  1  0  0.168326  0  3.652553  0  0  0.109205  0  3.915257  0  0  0.122719  0  3.928288  0  0  0.139884  0.100708  0  3.905527  0
C  C45  1  0.11402856  0.08897770  0.87241432  1  0  0.168297  0  3.652623  0  0  0.109187  0  3.915316  0  0  0.1227  0  3.928346  0  0  0.139882  0.100692  0  3.905584  0
C  C46  1  0.00649142  0.99617586  0.33774175  1  0  -0.01332  0  3.792067  0  0  -0.044949  0  4.058584  0  0  -0.043191  0  4.078993  0  0  -0.013655  -0.046276  0  4.04478  0
C  C47  1  0.99350949  0.00382310  0.66225616  1  0  -0.013264  0  3.792054  0  0  -0.044907  0  4.058575  0  0  -0.043138  0  4.078976  0  0  -0.01369  -0.046233  0  4.044771  0
C  C48  1  0.92873172  0.83830267  0.29699310  1  0  -0.074177  0  3.690049  0  0  -0.115324  0  3.947888  0  0  -0.113508  0  3.966498  0  0  -0.00606  -0.116624  0  3.935749  0
C  C49  1  0.07127097  0.16169513  0.70300579  1  0  -0.074157  0  3.689989  0  0  -0.115265  0  3.947838  0  0  -0.113455  0  3.966441  0  0  -0.006011  -0.116567  0  3.935701  0
C  C50  1  0.14571002  0.62413267  0.21209335  1  0  0.49173  0  4.001562  0  0  0.450346  0  4.292597  0  0  0.476504  0  4.30377  0  0  0.299141  0.432361  0  4.28516  0
C  C51  1  0.85429028  0.37586750  0.78790906  1  0  0.491852  0  4.001541  0  0  0.450468  0  4.292568  0  0  0.47663  0  4.303736  0  0  0.299179  0.432477  0  4.285132  0
C  C52  1  0.17062413  0.74416598  0.06337967  1  0  0.507293  0  3.990239  0  0  0.4671  0  4.276436  0  0  0.493489  0  4.287678  0  0  0.306052  0.449182  0  4.268546  0
C  C53  1  0.82937733  0.25583418  0.93662297  1  0  0.507263  0  3.990246  0  0  0.467063  0  4.276453  0  0  0.493453  0  4.287692  0  0  0.305991  0.449138  0  4.268562  0
C  C54  1  0.43586536  0.43500274  0.27248954  1  0  0.514542  0  3.991377  0  0  0.471624  0  4.276431  0  0  0.498547  0  4.288203  0  0  0.30883  0.453326  0  4.267926  0
C  C55  1  0.56412911  0.56499747  0.72751263  1  0  0.514498  0  3.991478  0  0  0.471561  0  4.27653  0  0  0.498493  0  4.288301  0  0  0.308791  0.453265  0  4.268024  0
C  C56  1  0.71307700  0.57482976  0.42802940  1  0  0.499166  0  4.010204  0  0  0.45659  0  4.299045  0  0  0.483314  0  4.310067  0  0  0.305685  0.438621  0  4.290874  0
C  C57  1  0.28691985  0.42516811  0.57197100  1  0  0.499221  0  4.010071  0  0  0.456636  0  4.298902  0  0  0.483369  0  4.309922  0  0  0.305746  0.43867  0  4.290731  0
N  N58  1  0.56680151  0.18684054  0.36825146  1  0  -0.064334  0  3.569724  0  0  0.03322  0  3.783714  0  0  0.018056  0  3.810586  0  0  -0.243403  0.043287  0  3.765416  0
N  N59  1  0.43319874  0.81316191  0.63174966  1  0  -0.064402  0  3.569802  0  0  0.033153  0  3.783793  0  0  0.01799  0  3.810664  0  0  -0.243456  0.043219  0  3.765495  0
N  N60  1  0.76090258  0.23541698  0.27563497  1  0  -0.38948  0  3.279517  0  0  -0.314819  0  3.560848  0  0  -0.335205  0  3.579041  0  0  -0.359605  -0.30088  0  3.5483  0
N  N61  1  0.23909945  0.76458430  0.72436538  1  0  -0.389481  0  3.279482  0  0  -0.314821  0  3.560808  0  0  -0.335207  0  3.579002  0  0  -0.359607  -0.300882  0  3.548257  0
N  N62  1  0.85317171  0.78597392  0.16355944  1  0  -0.059846  0  3.572023  0  0  0.036502  0  3.785575  0  0  0.021332  0  3.812605  0  0  -0.242193  0.046666  0  3.76726  0
N  N63  1  0.14682804  0.21402506  0.83643912  1  0  -0.059805  0  3.572035  0  0  0.036517  0  3.785596  0  0  0.021357  0  3.812633  0  0  -0.242184  0.046682  0  3.767284  0
N  N64  1  0.97935529  0.04008508  0.23122926  1  0  -0.400565  0  3.257987  0  0  -0.329418  0  3.542482  0  0  -0.349094  0  3.559519  0  0  -0.362941  -0.315718  0  3.530253  0
N  N65  1  0.02064446  0.95991391  0.76877018  1  0  -0.400605  0  3.257992  0  0  -0.329467  0  3.542508  0  0  -0.349142  0  3.559539  0  0  -0.36296  -0.315766  0  3.530278  0
N  N66  1  0.23255686  0.70540427  0.15838212  1  0  -0.449971  0  3.279574  0  0  -0.393888  0  3.53863  0  0  -0.417673  0  3.543097  0  0  -0.304648  -0.377482  0  3.535078  0
N  N67  1  0.76744344  0.29459588  0.84161854  1  0  -0.45006  0  3.279655  0  0  -0.393964  0  3.538698  0  0  -0.417752  0  3.543163  0  0  -0.304638  -0.377542  0  3.535135  0
N  N68  1  0.08154427  0.55332708  0.27052132  1  0  -0.615789  0  2.756042  0  0  -0.573131  0  3.034211  0  0  -0.594433  0  3.038278  0  0  -0.389595  -0.55872  0  3.032133  0
N  N69  1  0.91845542  0.44667425  0.72948122  1  0  -0.615876  0  2.756037  0  0  -0.573235  0  3.03424  0  0  -0.59454  0  3.038302  0  0  -0.389637  -0.558826  0  3.032167  0
N  N70  1  0.13011397  0.78946146  0.97939098  1  0  -0.612976  0  2.764469  0  0  -0.56579  0  3.042191  0  0  -0.587873  0  3.046419  0  0  -0.385096  -0.550865  0  3.039136  0
N  N71  1  0.86988693  0.21053753  0.02060956  1  0  -0.612899  0  2.764452  0  0  -0.56571  0  3.042176  0  0  -0.587791  0  3.046403  0  0  -0.385046  -0.550786  0  3.039125  0
N  N72  1  0.59665787  0.52920466  0.31525797  1  0  -0.453934  0  3.322722  0  0  -0.394312  0  3.584725  0  0  -0.419296  0  3.590635  0  0  -0.303088  -0.377064  0  3.579747  0
N  N73  1  0.40333777  0.47079555  0.68474442  1  0  -0.453964  0  3.322816  0  0  -0.394314  0  3.584807  0  0  -0.419312  0  3.590716  0  0  -0.303147  -0.377072  0  3.579833  0
N  N74  1  0.28770180  0.34997535  0.22006150  1  0  -0.626632  0  2.806522  0  0  -0.578151  0  3.09283  0  0  -0.601241  0  3.097799  0  0  -0.391567  -0.562378  0  3.089135  0
N  N75  1  0.71229267  0.65002484  0.77993803  1  0  -0.626571  0  2.806424  0  0  -0.578089  0  3.092738  0  0  -0.60118  0  3.097706  0  0  -0.391508  -0.562313  0  3.089037  0
N  N76  1  0.83221263  0.62807175  0.52647434  1  0  -0.606849  0  2.777231  0  0  -0.556992  0  3.058993  0  0  -0.579289  0  3.062888  0  0  -0.382022  -0.541686  0  3.055984  0
N  N77  1  0.16778478  0.37192726  0.47352553  1  0  -0.606904  0  2.777186  0  0  -0.557048  0  3.058955  0  0  -0.579346  0  3.062849  0  0  -0.382061  -0.541739  0  3.055942  0
