# generated using pymatgen
data_AgH15C13(NO)3
_symmetry_space_group_name_H-M   'P 1'
_cell_length_a   8.66917330
_cell_length_b   9.40299855
_cell_length_c   17.70350000
_cell_angle_alpha   90.00000000
_cell_angle_beta   104.26427555
_cell_angle_gamma   90.00000000
_symmetry_Int_Tables_number   1
_chemical_formula_structural   AgH15C13(NO)3
_chemical_formula_sum   'Ag4 H60 C52 N12 O12'
_cell_volume   1398.63035409
_cell_formula_units_Z   4
loop_
 _symmetry_equiv_pos_site_id
 _symmetry_equiv_pos_as_xyz
  1  'x, y, z'
loop_
 _atom_site_type_symbol
 _atom_site_label
 _atom_site_symmetry_multiplicity
 _atom_site_fract_x
 _atom_site_fract_y
 _atom_site_fract_z
 _atom_site_occupancy
 _atom_site_hle17_bader_spin_density
 _atom_site_hle17_ddec_charge
 _atom_site_hle17_ddec_spin_density
 _atom_site_hle17_ddec_sum_bond_order
 _atom_site_hle17_magmom
 _atom_site_hse06_10hf_bader_spin_density
 _atom_site_hse06_10hf_ddec_charge
 _atom_site_hse06_10hf_ddec_spin_density
 _atom_site_hse06_10hf_ddec_sum_bond_order
 _atom_site_hse06_10hf_magmom
 _atom_site_hse06_bader_spin_density
 _atom_site_hse06_ddec_charge
 _atom_site_hse06_ddec_spin_density
 _atom_site_hse06_ddec_sum_bond_order
 _atom_site_hse06_magmom
 _atom_site_pbe_bader_charge
 _atom_site_pbe_bader_spin_density
 _atom_site_pbe_cm5_charge
 _atom_site_pbe_ddec_charge
 _atom_site_pbe_ddec_spin_density
 _atom_site_pbe_ddec_sum_bond_order
 _atom_site_pbe_magmom
Ag  Ag0  1  0.38798135  0.56445292  0.19022246  1  0  0.573919  0  1.425474  0  0  0.449704  0  1.857282  0  0  0.47726  0  1.809534  0  0.644325  0  0.487384  0.433815  0  1.887739  0
Ag  Ag1  1  0.61202118  0.06445284  0.30977779  1  0  0.573924  0  1.425465  0  0  0.449713  0  1.857262  0  0  0.477272  0  1.809517  0  0.644415  0  0.487382  0.433824  0  1.887719  0
Ag  Ag2  1  0.61201999  0.43554723  0.80977765  1  0  0.573935  0  1.425447  0  0  0.449727  0  1.857239  0  0  0.477282  0  1.809492  0  0.644378  0  0.487392  0.433836  0  1.887696  0
Ag  Ag3  1  0.38798016  0.93554731  0.69022231  1  0  0.573924  0  1.42551  0  0  0.44971  0  1.857325  0  0  0.477267  0  1.809576  0  0.644415  0  0.487387  0.433823  0  1.887781  0
H  H4  1  0.89500959  0.39592158  0.03082302  1  0  0.035297  0  0.935193  0  0  0.051727  0  0.995316  0  0  0.050818  0  0.997886  0  0.01255  0  0.085156  0.052173  0  0.993732  0
H  H5  1  0.10498936  0.89592272  0.46917736  1  0  0.035348  0  0.935192  0  0  0.051758  0  0.995327  0  0  0.05085  0  0.997895  0  0.012555  0  0.085166  0.052195  0  0.993753  0
H  H6  1  0.10498936  0.60407752  0.96917736  1  0  0.035333  0  0.935191  0  0  0.051742  0  0.995302  0  0  0.05083  0  0.997871  0  0.012566  0  0.085164  0.052187  0  0.993719  0
H  H7  1  0.89500959  0.10407744  0.53082246  1  0  0.035319  0  0.935158  0  0  0.051734  0  0.995298  0  0  0.050825  0  0.997867  0  0.012559  0  0.085157  0.052181  0  0.993714  0
H  H8  1  0.13729992  0.27338620  0.02142164  1  0  0.065346  0  0.948169  0  0  0.083242  0  1.012741  0  0  0.083283  0  1.01399  0  0.000595  0  0.087363  0.083119  0  1.011862  0
H  H9  1  0.86270023  0.77338627  0.47857832  1  0  0.065325  0  0.948177  0  0  0.083226  0  1.012742  0  0  0.083269  0  1.013991  0  0.000596  0  0.087362  0.083104  0  1.011862  0
H  H10  1  0.86270023  0.72661396  0.97857832  1  0  0.065323  0  0.948179  0  0  0.083225  0  1.012749  0  0  0.083267  0  1.013999  0  0.000594  0  0.087358  0.083102  0  1.01187  0
H  H11  1  0.13729992  0.22661388  0.52142164  1  0  0.065345  0  0.948173  0  0  0.083238  0  1.012749  0  0  0.083279  0  1.013998  0  0.000594  0  0.087362  0.083115  0  1.011869  0
H  H12  1  0.25673244  0.42135176  0.05979385  1  0  0.062177  0  0.957308  0  0  0.076768  0  1.030781  0  0  0.07817  0  1.029051  0  0.013853  0  0.082888  0.075611  0  1.031869  0
H  H13  1  0.74326770  0.92135078  0.44020611  1  0  0.062187  0  0.957306  0  0  0.076775  0  1.030777  0  0  0.078181  0  1.029043  0  0.013864  0  0.0829  0.07562  0  1.031863  0
H  H14  1  0.74326770  0.57864839  0.94020611  1  0  0.062189  0  0.957289  0  0  0.076779  0  1.030769  0  0  0.078182  0  1.02904  0  0.013862  0  0.082896  0.075622  0  1.031857  0
H  H15  1  0.25673363  0.07864832  0.55979400  1  0  0.062188  0  0.957283  0  0  0.076779  0  1.030754  0  0  0.078183  0  1.029022  0  0.014195  0  0.082883  0.075623  0  1.031841  0
H  H16  1  0.06779182  0.23227484  0.14675606  1  0  0.049465  0  0.937353  0  0  0.067472  0  1.004739  0  0  0.067111  0  1.005779  0  0.020188  0  0.092301  0.067914  0  1.003581  0
H  H17  1  0.93220952  0.73227386  0.35324461  1  0  0.049438  0  0.937349  0  0  0.067456  0  1.004742  0  0  0.067095  0  1.005779  0  0.020171  0  0.092295  0.0679  0  1.003579  0
H  H18  1  0.93220952  0.76772531  0.85324461  1  0  0.049452  0  0.937357  0  0  0.067458  0  1.004746  0  0  0.067097  0  1.005786  0  0.020179  0  0.092301  0.067901  0  1.003584  0
H  H19  1  0.06779182  0.26772524  0.64675606  1  0  0.049465  0  0.937357  0  0  0.06747  0  1.004747  0  0  0.067109  0  1.005787  0  0.020187  0  0.0923  0.067913  0  1.003585  0
H  H20  1  0.27773603  0.23682339  0.16084136  1  0  0.07975  0  0.937896  0  0  0.098003  0  0.997844  0  0  0.098394  0  0.997807  0  0.076323  0  0.104526  0.097262  0  0.998574  0
H  H21  1  0.72226531  0.73682347  0.33915875  1  0  0.079737  0  0.937914  0  0  0.098014  0  0.997837  0  0  0.098405  0  0.997796  0  0.076337  0  0.104517  0.097253  0  0.998591  0
H  H22  1  0.72226531  0.76317676  0.83915875  1  0  0.079746  0  0.937933  0  0  0.098017  0  0.997849  0  0  0.098409  0  0.99781  0  0.076329  0  0.104521  0.097256  0  0.998602  0
H  H23  1  0.27773603  0.26317562  0.66084136  1  0  0.079751  0  0.937931  0  0  0.098017  0  0.997852  0  0  0.09841  0  0.997811  0  0.076312  0  0.10452  0.097252  0  0.998609  0
H  H24  1  0.02457064  0.44049034  0.37808308  1  0  0.112856  0  0.96222  0  0  0.119366  0  1.028655  0  0  0.123549  0  1.025878  0  0.110211  0  0.104743  0.11628  0  1.030826  0
H  H25  1  0.97542832  0.94049148  0.12191617  1  0  0.112877  0  0.96222  0  0  0.119385  0  1.028657  0  0  0.123571  0  1.025874  0  0.110224  0  0.104749  0.116299  0  1.030828  0
H  H26  1  0.97542951  0.55950875  0.62191631  1  0  0.112898  0  0.96217  0  0  0.119391  0  1.028622  0  0  0.123576  0  1.02584  0  0.110209  0  0.104736  0.116305  0  1.030793  0
H  H27  1  0.02457183  0.05950868  0.87808379  1  0  0.112887  0  0.962208  0  0  0.119396  0  1.028643  0  0  0.123582  0  1.02586  0  0.110232  0  0.104755  0.116311  0  1.030814  0
H  H28  1  0.48502608  0.49120714  0.33057049  1  0  0.094714  0  0.991928  0  0  0.10259  0  1.0605  0  0  0.105781  0  1.058321  0  0.101832  0  0.099168  0.099969  0  1.062731  0
H  H29  1  0.51497526  0.99120615  0.16943075  1  0  0.094725  0  0.991899  0  0  0.102598  0  1.060463  0  0  0.105791  0  1.058285  0  0.101824  0  0.099169  0.099979  0  1.062697  0
H  H30  1  0.51497526  0.50879408  0.66943075  1  0  0.094717  0  0.991918  0  0  0.102585  0  1.060488  0  0  0.105777  0  1.058309  0  0.101827  0  0.099158  0.099964  0  1.062722  0
H  H31  1  0.48502608  0.00879400  0.83056879  1  0  0.09472  0  0.991897  0  0  0.102593  0  1.060462  0  0  0.105788  0  1.058281  0  0.101805  0  0.099172  0.099972  0  1.062695  0
H  H32  1  0.04018496  0.58088385  0.22961599  1  0  0.068783  0  0.940157  0  0  0.083958  0  1.007397  0  0  0.084557  0  1.007136  0  0.065918  0  0.100767  0.083604  0  1.007134  0
H  H33  1  0.95981637  0.08088271  0.27038412  1  0  0.068774  0  0.940142  0  0  0.083955  0  1.007392  0  0  0.084555  0  1.00713  0  0.065923  0  0.10077  0.083602  0  1.00713  0
H  H34  1  0.95981637  0.41911630  0.77038412  1  0  0.068772  0  0.940139  0  0  0.083954  0  1.00739  0  0  0.084555  0  1.007128  0  0.06592  0  0.100768  0.083601  0  1.007128  0
H  H35  1  0.04018496  0.91911638  0.72961599  1  0  0.068768  0  0.94015  0  0  0.083954  0  1.007395  0  0  0.084553  0  1.007135  0  0.06592  0  0.100766  0.083601  0  1.007132  0
H  H36  1  0.93238805  0.42787521  0.18774972  1  0  0.057521  0  0.933418  0  0  0.072579  0  1.00038  0  0  0.072675  0  1.000748  0  0.035111  0  0.094058  0.072732  0  0.999226  0
H  H37  1  0.06761329  0.92787423  0.31225038  1  0  0.057503  0  0.933399  0  0  0.072564  0  1.00038  0  0  0.07266  0  1.000748  0  0.035094  0  0.094044  0.072716  0  0.999226  0
H  H38  1  0.06761329  0.57212494  0.81225038  1  0  0.057494  0  0.933408  0  0  0.072561  0  1.000381  0  0  0.072657  0  1.000749  0  0.035081  0  0.094047  0.072714  0  0.999227  0
H  H39  1  0.93238805  0.07212486  0.68774972  1  0  0.057499  0  0.933418  0  0  0.072566  0  1.000388  0  0  0.072661  0  1.000758  0  0.035104  0  0.094053  0.072718  0  0.999236  0
H  H40  1  0.56054948  0.66794650  0.43721273  1  0  0.105854  0  0.936165  0  0  0.120879  0  0.988707  0  0  0.123167  0  0.988525  0  0.13598  0  0.112031  0.119317  0  0.988863  0
H  H41  1  0.43944947  0.16794643  0.06278878  1  0  0.105836  0  0.936177  0  0  0.120858  0  0.988733  0  0  0.12315  0  0.988545  0  0.13597  0  0.112031  0.119298  0  0.988885  0
H  H42  1  0.43944947  0.33205471  0.56278878  1  0  0.10584  0  0.936179  0  0  0.12086  0  0.988736  0  0  0.123153  0  0.988546  0  0.135975  0  0.112036  0.119303  0  0.988882  0
H  H43  1  0.56055186  0.83205479  0.93721132  1  0  0.105812  0  0.936243  0  0  0.120868  0  0.988746  0  0  0.123162  0  0.988556  0  0.13596  0  0.11203  0.119308  0  0.9889  0
H  H44  1  0.30288392  0.27165802  0.28702245  1  0  0.10126  0  0.930062  0  0  0.115088  0  0.994619  0  0  0.116083  0  0.993861  0  0.091156  0  0.112178  0.114152  0  0.995498  0
H  H45  1  0.69711742  0.77165810  0.21297766  1  0  0.101273  0  0.930061  0  0  0.1151  0  0.994619  0  0  0.116094  0  0.99386  0  0.091187  0  0.112182  0.114163  0  0.995498  0
H  H46  1  0.69711742  0.72834213  0.71297766  1  0  0.101271  0  0.930059  0  0  0.115104  0  0.994633  0  0  0.116098  0  0.993874  0  0.091374  0  0.112184  0.114167  0  0.995511  0
H  H47  1  0.30288392  0.22834205  0.78702245  1  0  0.101262  0  0.930065  0  0  0.115089  0  0.994622  0  0  0.116083  0  0.993864  0  0.091156  0  0.112177  0.114152  0  0.9955  0
H  H48  1  0.09712566  0.29191114  0.28446998  1  0  0.079649  0  0.935624  0  0  0.095388  0  1.000019  0  0  0.095977  0  0.999863  0  0.078671  0  0.105135  0.094929  0  0.999968  0
H  H49  1  0.90287567  0.79191121  0.21553013  1  0  0.079641  0  0.935632  0  0  0.095383  0  1.000023  0  0  0.095973  0  0.999866  0  0.078664  0  0.105123  0.094924  0  0.999974  0
H  H50  1  0.90287686  0.70808902  0.71553027  1  0  0.079622  0  0.935696  0  0  0.095375  0  1.000095  0  0  0.095966  0  0.99994  0  0.078793  0  0.105126  0.094916  0  1.000045  0
H  H51  1  0.09712447  0.20808894  0.78446983  1  0  0.079639  0  0.935633  0  0  0.095382  0  1.000022  0  0  0.09597  0  0.999867  0  0.078664  0  0.105124  0.094923  0  0.999972  0
H  H52  1  0.09548556  0.64946197  0.10637393  1  0  0.063862  0  0.976566  0  0  0.077418  0  1.053558  0  0  0.078497  0  1.052757  0  0.026322  0  0.082255  0.076264  0  1.054558  0
H  H53  1  0.90451578  0.14946190  0.39362617  1  0  0.063869  0  0.976572  0  0  0.077423  0  1.05357  0  0  0.078503  0  1.052767  0  0.02629  0  0.08226  0.07627  0  1.05457  0
H  H54  1  0.90451459  0.35053818  0.89362603  1  0  0.063848  0  0.976579  0  0  0.077405  0  1.053576  0  0  0.078483  0  1.052776  0  0.026322  0  0.082251  0.076251  0  1.054576  0
H  H55  1  0.09548556  0.85053826  0.60637393  1  0  0.06385  0  0.976575  0  0  0.077403  0  1.053569  0  0  0.078484  0  1.052765  0  0.02632  0  0.082251  0.07625  0  1.054567  0
H  H56  1  0.88849916  0.62452525  0.09369836  1  0  0.07824  0  0.928605  0  0  0.101621  0  0.980217  0  0  0.101778  0  0.981538  0  0.019767  0  0.093809  0.10141  0  0.979423  0
H  H57  1  0.11150218  0.12452517  0.40630175  1  0  0.078216  0  0.928633  0  0  0.10161  0  0.98023  0  0  0.101765  0  0.981552  0  0.019748  0  0.093802  0.101397  0  0.979442  0
H  H58  1  0.11150099  0.37547384  0.90630160  1  0  0.078213  0  0.928636  0  0  0.101596  0  0.980248  0  0  0.101751  0  0.981571  0  0.019774  0  0.093802  0.101383  0  0.979459  0
H  H59  1  0.88849916  0.87547392  0.59369836  1  0  0.078219  0  0.928632  0  0  0.1016  0  0.980242  0  0  0.101755  0  0.981565  0  0.019761  0  0.093803  0.101387  0  0.979452  0
H  H60  1  0.10345757  0.61151557  0.48970878  1  0  0.099856  0  0.94429  0  0  0.114115  0  0.999205  0  0  0.116592  0  0.9984  0  0.073691  0  0.108723  0.112421  0  0.999814  0
H  H61  1  0.89653901  0.11151655  0.01029018  1  0  0.099836  0  0.944319  0  0  0.114106  0  0.999222  0  0  0.116582  0  0.998421  0  0.073661  0  0.108726  0.112412  0  0.999833  0
H  H62  1  0.89653901  0.38848352  0.51029018  1  0  0.099854  0  0.944295  0  0  0.114111  0  0.999211  0  0  0.116587  0  0.998409  0  0.073652  0  0.108727  0.112417  0  0.999821  0
H  H63  1  0.10346233  0.88848254  0.98970992  1  0  0.099841  0  0.94433  0  0  0.114108  0  0.999238  0  0  0.116585  0  0.998436  0  0.073672  0  0.108728  0.112414  0  0.999849  0
C  C64  1  0.00336353  0.46198348  0.03894058  1  0  0.004182  0  3.609077  0  0  0.005704  0  3.842085  0  0  0.004585  0  3.861297  0  0.009905  0  -0.090672  0.006251  0  3.829179  0
C  C65  1  0.99663781  0.96198356  0.46105952  1  0  0.00407  0  3.609138  0  0  0.005635  0  3.842145  0  0  0.004517  0  3.861356  0  -0.013118  0  -0.090698  0.00619  0  3.829239  0
C  C66  1  0.99663662  0.53801561  0.96105938  1  0  0.004067  0  3.609166  0  0  0.005713  0  3.842056  0  0  0.004602  0  3.861266  0  -0.013115  0  -0.090676  0.00626  0  3.829152  0
C  C67  1  0.00336353  0.03801660  0.53894058  1  0  0.004172  0  3.609031  0  0  0.005726  0  3.84204  0  0  0.004611  0  3.861252  0  0.009902  0  -0.090655  0.006272  0  3.829134  0
C  C68  1  0.14797845  0.36261305  0.06264737  1  0  -0.162348  0  3.698051  0  0  -0.210298  0  3.960921  0  0  -0.211432  0  3.974691  0  -0.013541  0  -0.169806  -0.209393  0  3.951402  0
C  C69  1  0.85202288  0.86261313  0.43735273  1  0  -0.162308  0  3.698027  0  0  -0.210249  0  3.960903  0  0  -0.211387  0  3.97467  0  -0.013538  0  -0.169787  -0.209343  0  3.951374  0
C  C70  1  0.85202288  0.63738710  0.93735273  1  0  -0.162305  0  3.698033  0  0  -0.210292  0  3.960894  0  0  -0.211429  0  3.974665  0  -0.013535  0  -0.169799  -0.209385  0  3.951368  0
C  C71  1  0.14797845  0.13738703  0.56264737  1  0  -0.16235  0  3.698046  0  0  -0.210295  0  3.960899  0  0  -0.211431  0  3.974668  0  -0.013883  0  -0.169796  -0.209389  0  3.951373  0
C  C72  1  0.16955810  0.30171014  0.14424056  1  0  -0.012787  0  3.651491  0  0  -0.071966  0  3.911381  0  0  -0.067689  0  3.924275  0  0.271072  0  -0.079562  -0.074434  0  3.902313  0
C  C73  1  0.83044323  0.80171022  0.35575955  1  0  -0.012706  0  3.651519  0  0  -0.07193  0  3.911415  0  0  -0.067665  0  3.92434  0  0.271074  0  -0.079532  -0.074383  0  3.902348  0
C  C74  1  0.83044204  0.69829002  0.85575940  1  0  -0.012744  0  3.651581  0  0  -0.071927  0  3.911446  0  0  -0.067649  0  3.924339  0  0.271069  0  -0.079535  -0.074382  0  3.902379  0
C  C75  1  0.16955810  0.19828994  0.64424056  1  0  -0.012786  0  3.651535  0  0  -0.071972  0  3.911408  0  0  -0.067696  0  3.924301  0  0.271085  0  -0.079549  -0.074424  0  3.902342  0
C  C76  1  0.14274868  0.48899295  0.39256569  1  0  -0.118582  0  3.719181  0  0  -0.138597  0  3.971464  0  0  -0.143133  0  3.991492  0  -0.057291  0  -0.085024  -0.135587  0  3.957911  0
C  C77  1  0.85725146  0.98899409  0.10743370  1  0  -0.118601  0  3.719152  0  0  -0.138614  0  3.971442  0  0  -0.143152  0  3.991471  0  -0.057289  0  -0.085006  -0.135604  0  3.957888  0
C  C78  1  0.85725146  0.51100614  0.60743370  1  0  -0.118649  0  3.719143  0  0  -0.13864  0  3.971409  0  0  -0.143176  0  3.991437  0  -0.057289  0  -0.085007  -0.135629  0  3.957855  0
C  C79  1  0.14274987  0.01100606  0.89256640  1  0  -0.118607  0  3.719189  0  0  -0.138621  0  3.971482  0  0  -0.143158  0  3.991512  0  -0.057323  0  -0.085017  -0.13561  0  3.957929  0
C  C80  1  0.24944957  0.45505803  0.34715361  1  0  0.110442  0  3.70388  0  0  0.126425  0  3.942637  0  0  0.129167  0  3.965083  0  -0.008738  0  0.005582  0.124712  0  3.927579  0
C  C81  1  0.75055058  0.95505811  0.15284635  1  0  0.110479  0  3.703839  0  0  0.126453  0  3.942609  0  0  0.129193  0  3.965053  0  -0.008733  0  0.005571  0.12474  0  3.927551  0
C  C82  1  0.75055058  0.54494425  0.65284578  1  0  0.110504  0  3.703819  0  0  0.1265  0  3.942577  0  0  0.12924  0  3.965024  0  -0.008677  0  0.005601  0.124786  0  3.927519  0
C  C83  1  0.24944957  0.04494311  0.84715361  1  0  0.110428  0  3.703875  0  0  0.126387  0  3.942659  0  0  0.129128  0  3.965107  0  -0.008692  0  0.005558  0.124674  0  3.927602  0
C  C84  1  0.40002743  0.51957043  0.36436830  1  0  -0.110957  0  3.733394  0  0  -0.132166  0  3.989731  0  0  -0.136423  0  4.009842  0  -0.035031  0  -0.087591  -0.12936  0  3.976452  0
C  C85  1  0.59997271  0.01957035  0.13563279  1  0  -0.110967  0  3.73336  0  0  -0.132175  0  3.989725  0  0  -0.136434  0  4.009839  0  -0.034998  0  -0.087591  -0.129373  0  3.97645  0
C  C86  1  0.59997271  0.48043079  0.63563223  1  0  -0.111006  0  3.733401  0  0  -0.132212  0  3.989765  0  0  -0.13647  0  4.009879  0  -0.035037  0  -0.087608  -0.129408  0  3.976489  0
C  C87  1  0.40002862  0.98042980  0.86436788  1  0  -0.11091  0  3.733367  0  0  -0.132108  0  3.989722  0  0  -0.136366  0  4.009835  0  -0.034969  0  -0.087591  -0.129302  0  3.976443  0
C  C88  1  0.03198444  0.49920246  0.18453752  1  0  -0.007325  0  3.643654  0  0  -0.063537  0  3.902596  0  0  -0.059651  0  3.915708  0  0.258402  0  -0.079472  -0.065946  0  3.893027  0
C  C89  1  0.96801690  0.99920254  0.31546258  1  0  -0.007283  0  3.64356  0  0  -0.063546  0  3.902574  0  0  -0.059657  0  3.915681  0  0.258403  0  -0.079479  -0.065955  0  3.893006  0
C  C90  1  0.96801690  0.50079770  0.81546258  1  0  -0.007268  0  3.643546  0  0  -0.06353  0  3.902563  0  0  -0.059645  0  3.915674  0  0.258419  0  -0.079471  -0.06594  0  3.892994  0
C  C91  1  0.03198325  0.00079762  0.68453738  1  0  -0.007264  0  3.643549  0  0  -0.063524  0  3.902561  0  0  -0.059638  0  3.915673  0  0.258404  0  -0.079468  -0.065934  0  3.892993  0
C  C92  1  0.33639420  0.65049675  0.46983823  1  0  0.004042  0  3.906025  0  0  0.025979  0  4.140029  0  0  0.021487  0  4.161759  0  0.098172  0  -0.002233  0.028848  0  4.125551  0
C  C93  1  0.66360238  0.15049667  0.03016243  1  0  0.003898  0  3.906199  0  0  0.025906  0  4.140114  0  0  0.021416  0  4.161843  0  0.098178  0  -0.002275  0.028774  0  4.125637  0
C  C94  1  0.66360357  0.34950340  0.53016257  1  0  0.00405  0  3.905935  0  0  0.025952  0  4.13998  0  0  0.021462  0  4.16171  0  0.098178  0  -0.00226  0.028819  0  4.125503  0
C  C95  1  0.33639777  0.84950348  0.96983753  1  0  0.003942  0  3.906152  0  0  0.025948  0  4.140067  0  0  0.021459  0  4.161796  0  0.098182  0  -0.002265  0.028816  0  4.125589  0
C  C96  1  0.44372113  0.61783377  0.42431133  1  0  -0.059412  0  3.708322  0  0  -0.083826  0  3.953488  0  0  -0.083461  0  3.973698  0  -0.050897  0  -0.071116  -0.083856  0  3.93967  0
C  C97  1  0.55627783  0.11783262  0.07568905  1  0  -0.059378  0  3.708317  0  0  -0.083812  0  3.953457  0  0  -0.083455  0  3.97367  0  -0.050953  0  -0.071125  -0.083841  0  3.93964  0
C  C98  1  0.55627783  0.38216745  0.57568905  1  0  -0.059402  0  3.708313  0  0  -0.083801  0  3.953472  0  0  -0.083446  0  3.973685  0  -0.05096  0  -0.07111  -0.083831  0  3.939655  0
C  C99  1  0.44372351  0.88216753  0.92431105  1  0  -0.059379  0  3.708365  0  0  -0.08384  0  3.95349  0  0  -0.083484  0  3.973702  0  -0.050986  0  -0.071094  -0.08387  0  3.939672  0
C  C100  1  0.20623433  0.34947575  0.28134689  1  0  -0.0702  0  3.643982  0  0  -0.130659  0  3.888804  0  0  -0.127495  0  3.900986  0  0.260666  0  -0.068252  -0.133256  0  3.881224  0
C  C101  1  0.79376581  0.84947583  0.21865308  1  0  -0.070249  0  3.644026  0  0  -0.130713  0  3.888853  0  0  -0.127547  0  3.901033  0  0.26066  0  -0.068263  -0.133309  0  3.881273  0
C  C102  1  0.79376700  0.65052546  0.71865322  1  0  -0.070195  0  3.643986  0  0  -0.13073  0  3.888922  0  0  -0.127568  0  3.901106  0  0.260311  0  -0.068288  -0.133326  0  3.881341  0
C  C103  1  0.20623433  0.15052432  0.78134689  1  0  -0.070234  0  3.644019  0  0  -0.130689  0  3.888841  0  0  -0.127527  0  3.901025  0  0.260662  0  -0.06826  -0.133286  0  3.881261  0
C  C104  1  0.00307311  0.56826554  0.10463944  1  0  -0.160885  0  3.681764  0  0  -0.208384  0  3.937276  0  0  -0.209691  0  3.951122  0  -0.008813  0  -0.17178  -0.20713  0  3.927884  0
C  C105  1  0.99692822  0.06826652  0.39536067  1  0  -0.160882  0  3.68177  0  0  -0.208372  0  3.937279  0  0  -0.209678  0  3.951122  0  -0.008777  0  -0.171781  -0.207124  0  3.927893  0
C  C106  1  0.99692703  0.43173356  0.89536052  1  0  -0.160829  0  3.681808  0  0  -0.208342  0  3.93732  0  0  -0.20965  0  3.951167  0  -0.008835  0  -0.171764  -0.20709  0  3.927929  0
C  C107  1  0.00307311  0.93173363  0.60463887  1  0  -0.160865  0  3.681732  0  0  -0.208344  0  3.93725  0  0  -0.209652  0  3.951095  0  -0.008816  0  -0.171772  -0.207094  0  3.927862  0
C  C108  1  0.18562947  0.58518780  0.45405777  1  0  -0.080638  0  3.726792  0  0  -0.10518  0  3.975991  0  0  -0.104406  0  3.995335  0  -0.035879  0  -0.076603  -0.105562  0  3.962834  0
C  C109  1  0.81436830  0.08518772  0.04594190  1  0  -0.080583  0  3.726869  0  0  -0.105153  0  3.976041  0  0  -0.10438  0  3.99539  0  -0.035825  0  -0.076618  -0.105534  0  3.962883  0
C  C110  1  0.81436949  0.41481236  0.54594204  1  0  -0.080642  0  3.726792  0  0  -0.105168  0  3.975987  0  0  -0.104397  0  3.995334  0  -0.035826  0  -0.076614  -0.10555  0  3.962829  0
C  C111  1  0.18563185  0.91481244  0.95405806  1  0  -0.080599  0  3.726892  0  0  -0.105168  0  3.976062  0  0  -0.104396  0  3.995409  0  -0.035827  0  -0.076615  -0.105551  0  3.962904  0
C  C112  1  0.38333478  0.74739669  0.53271941  1  0  0.307638  0  3.726705  0  0  0.289142  0  3.988807  0  0  0.303652  0  4.005368  0  0.817942  0  0.208256  0.279164  0  3.978431  0
C  C113  1  0.61665942  0.24739768  0.96727927  1  0  0.307605  0  3.726888  0  0  0.289081  0  3.988969  0  0  0.303591  0  4.005522  0  0.818081  0  0.208237  0.279102  0  3.978596  0
C  C114  1  0.61665942  0.25260240  0.46727984  1  0  0.307591  0  3.726752  0  0  0.289103  0  3.988856  0  0  0.303612  0  4.00541  0  0.818075  0  0.20823  0.279125  0  3.978483  0
C  C115  1  0.38334192  0.75260248  0.03272027  1  0  0.307619  0  3.726797  0  0  0.289093  0  3.988877  0  0  0.303602  0  4.005431  0  0.818079  0  0.20823  0.279115  0  3.978504  0
N  N116  1  0.18200529  0.41609812  0.20306891  1  0  -0.210588  0  3.247626  0  0  -0.097832  0  3.483291  0  0  -0.118792  0  3.505837  0  -0.964494  0  -0.342391  -0.084399  0  3.468095  0
N  N117  1  0.81799605  0.91609713  0.29693063  1  0  -0.210627  0  3.24769  0  0  -0.097837  0  3.483346  0  0  -0.118802  0  3.505892  0  -0.964482  0  -0.342396  -0.084401  0  3.468139  0
N  N118  1  0.81799605  0.58390310  0.79693063  1  0  -0.210626  0  3.247668  0  0  -0.097828  0  3.483327  0  0  -0.118788  0  3.505872  0  -0.964474  0  -0.342389  -0.084392  0  3.46812  0
N  N119  1  0.18200410  0.08390196  0.70306933  1  0  -0.21058  0  3.2476  0  0  -0.097813  0  3.483272  0  0  -0.118774  0  3.505818  0  -0.964484  0  -0.342385  -0.084377  0  3.468067  0
N  N120  1  0.68151976  0.37605025  0.26013290  1  0  0.678431  0  4.162853  0  0  0.713401  0  4.44677  0  0  0.74162  0  4.45412  0  0.811051  0  0.087011  0.694573  0  4.440838  0
N  N121  1  0.31848158  0.87605033  0.23986721  1  0  0.678418  0  4.162916  0  0  0.713409  0  4.446811  0  0  0.741627  0  4.454162  0  0.811045  0  0.086991  0.694585  0  4.440874  0
N  N122  1  0.31848039  0.62394990  0.73986706  1  0  0.678436  0  4.162848  0  0  0.713404  0  4.44677  0  0  0.741622  0  4.45412  0  0.811052  0  0.087013  0.694576  0  4.440837  0
N  N123  1  0.68151976  0.12394982  0.76013290  1  0  0.678437  0  4.162845  0  0  0.713403  0  4.446773  0  0  0.741622  0  4.454122  0  0.811054  0  0.087016  0.694576  0  4.44084  0
N  N124  1  0.42353640  0.82666077  0.58468835  1  0  -0.414402  0  2.880561  0  0  -0.369375  0  3.170417  0  0  -0.382881  0  3.17265  0  -1.197825  0  -0.337263  -0.361391  0  3.169633  0
N  N125  1  0.57645898  0.32665750  0.91531216  1  0  -0.414282  0  2.880647  0  0  -0.369252  0  3.170493  0  0  -0.38276  0  3.172734  0  -1.197928  0  -0.337197  -0.361267  0  3.169711  0
N  N126  1  0.57645898  0.17334151  0.41531216  1  0  -0.414327  0  2.880606  0  0  -0.3693  0  3.170452  0  0  -0.382807  0  3.17269  0  -1.197954  0  -0.337205  -0.361316  0  3.169669  0
N  N127  1  0.42353998  0.67334159  0.08468822  1  0  -0.414316  0  2.880584  0  0  -0.369285  0  3.170435  0  0  -0.382794  0  3.172678  0  -1.197876  0  -0.337204  -0.3613  0  3.169653  0
O  O128  1  0.67575439  0.50983524  0.24821520  1  0  -0.469888  0  1.789774  0  0  -0.451817  0  2.022909  0  0  -0.469055  0  2.01428  0  -0.557155  0  -0.202316  -0.439458  0  2.026937  0
O  O129  1  0.32424694  0.00983516  0.25178491  1  0  -0.469876  0  1.789759  0  0  -0.45182  0  2.022895  0  0  -0.46906  0  2.014267  0  -0.557141  0  -0.202318  -0.439465  0  2.026928  0
O  O130  1  0.32424575  0.49016492  0.75178476  1  0  -0.469886  0  1.789771  0  0  -0.451813  0  2.022905  0  0  -0.469052  0  2.014275  0  -0.557139  0  -0.202311  -0.439455  0  2.026934  0
O  O131  1  0.67575439  0.99016499  0.74821520  1  0  -0.469888  0  1.78978  0  0  -0.451813  0  2.022916  0  0  -0.469054  0  2.014286  0  -0.557139  0  -0.202311  -0.439455  0  2.026944  0
O  O132  1  0.55502692  0.30203025  0.23685142  1  0  -0.491848  0  1.831518  0  0  -0.472747  0  2.079446  0  0  -0.491221  0  2.071054  0  -0.556129  0  -0.201971  -0.460808  0  2.084551  0
O  O133  1  0.44497323  0.80203033  0.26314910  1  0  -0.491841  0  1.831563  0  0  -0.472738  0  2.079473  0  0  -0.49121  0  2.071081  0  -0.556157  0  -0.201956  -0.4608  0  2.084575  0
O  O134  1  0.44497323  0.69796990  0.76314910  1  0  -0.491865  0  1.831518  0  0  -0.472764  0  2.079449  0  0  -0.49124  0  2.071057  0  -0.556149  0  -0.201981  -0.460825  0  2.084552  0
O  O135  1  0.55502692  0.19796983  0.73685086  1  0  -0.491868  0  1.831533  0  0  -0.472758  0  2.079451  0  0  -0.491232  0  2.071058  0  -0.556133  0  -0.201977  -0.460818  0  2.084552  0
O  O136  1  0.80989193  0.31762634  0.29512699  1  0  -0.463416  0  1.79344  0  0  -0.454206  0  2.018888  0  0  -0.468886  0  2.012355  0  -0.536501  0  -0.187283  -0.443957  0  2.022327  0
O  O137  1  0.19010941  0.81762642  0.20487255  1  0  -0.463433  0  1.79348  0  0  -0.454218  0  2.018909  0  0  -0.468898  0  2.012378  0  -0.53648  0  -0.187284  -0.443969  0  2.022346  0
O  O138  1  0.19010822  0.68237382  0.70487297  1  0  -0.463416  0  1.793439  0  0  -0.4542  0  2.018885  0  0  -0.46888  0  2.012351  0  -0.536496  0  -0.187281  -0.443951  0  2.022323  0
O  O139  1  0.80989193  0.18237374  0.79512756  1  0  -0.463411  0  1.793408  0  0  -0.454205  0  2.018865  0  0  -0.468885  0  2.012333  0  -0.536505  0  -0.187294  -0.443957  0  2.022304  0
