# generated using pymatgen
data_SrH13C5NO7
_symmetry_space_group_name_H-M   'P 1'
_cell_length_a   7.27065152
_cell_length_b   8.25933331
_cell_length_c   15.87382448
_cell_angle_alpha   89.99959534
_cell_angle_beta   90.00049009
_cell_angle_gamma   89.99999629
_symmetry_Int_Tables_number   1
_chemical_formula_structural   SrH13C5NO7
_chemical_formula_sum   'Sr4 H52 C20 N4 O28'
_cell_volume   953.23481500
_cell_formula_units_Z   4
loop_
 _symmetry_equiv_pos_site_id
 _symmetry_equiv_pos_as_xyz
  1  'x, y, z'
loop_
 _atom_site_type_symbol
 _atom_site_label
 _atom_site_symmetry_multiplicity
 _atom_site_fract_x
 _atom_site_fract_y
 _atom_site_fract_z
 _atom_site_occupancy
 _atom_site_hle17_bader_spin_density
 _atom_site_hle17_ddec_charge
 _atom_site_hle17_ddec_spin_density
 _atom_site_hle17_ddec_sum_bond_order
 _atom_site_hle17_magmom
 _atom_site_hse06_10hf_bader_spin_density
 _atom_site_hse06_10hf_ddec_charge
 _atom_site_hse06_10hf_ddec_spin_density
 _atom_site_hse06_10hf_ddec_sum_bond_order
 _atom_site_hse06_10hf_magmom
 _atom_site_hse06_bader_spin_density
 _atom_site_hse06_ddec_charge
 _atom_site_hse06_ddec_spin_density
 _atom_site_hse06_ddec_sum_bond_order
 _atom_site_hse06_magmom
 _atom_site_pbe_bader_spin_density
 _atom_site_pbe_cm5_charge
 _atom_site_pbe_ddec_charge
 _atom_site_pbe_ddec_spin_density
 _atom_site_pbe_ddec_sum_bond_order
 _atom_site_pbe_magmom
Sr  Sr0  1  0.53762006  0.24959407  0.92774612  1  0  1.633791  0  1.022721  0  0  1.488844  0  1.383957  0  0  1.527497  0  1.33895  0  0  0.930875  1.460009  0  1.416931  0
Sr  Sr1  1  0.96237226  0.75041012  0.42774912  1  0  1.633705  0  1.022754  0  0  1.488808  0  1.383937  0  0  1.527444  0  1.338933  0  0  0.930873  1.459978  0  1.41691  0
Sr  Sr2  1  0.46237998  0.74960343  0.57225306  1  0  1.633712  0  1.022851  0  0  1.488803  0  1.384025  0  0  1.527448  0  1.339022  0  0  0.930885  1.459969  0  1.416997  0
Sr  Sr3  1  0.03762275  0.25039454  0.07225350  1  0  1.633746  0  1.022805  0  0  1.488865  0  1.38392  0  0  1.527512  0  1.338913  0  0  0.930866  1.460035  0  1.416891  0
H  H4  1  0.51867565  0.98728452  0.22636681  1  0  0.062625  0  0.918203  0  0  0.075991  0  0.97644  0  0  0.077776  0  0.974939  0  0  0.115464  0.074771  0  0.977665  0
H  H5  1  0.98132882  0.01271608  0.72637356  1  0  0.062521  0  0.918084  0  0  0.075942  0  0.976211  0  0  0.07773  0  0.974701  0  0  0.115428  0.074724  0  0.977429  0
H  H6  1  0.48133103  0.48730050  0.27363517  1  0  0.062509  0  0.918315  0  0  0.07591  0  0.976487  0  0  0.077698  0  0.97498  0  0  0.115418  0.074692  0  0.977705  0
H  H7  1  0.01867468  0.51269137  0.77362877  1  0  0.062547  0  0.918136  0  0  0.075927  0  0.976371  0  0  0.07771  0  0.974871  0  0  0.11545  0.074708  0  0.977592  0
H  H8  1  0.83292193  0.03075576  0.24243467  1  0  0.299924  0  0.905932  0  0  0.292124  0  0.958282  0  0  0.297929  0  0.953739  0  0  0.301661  0.287749  0  0.96193  0
H  H9  1  0.66708102  0.96924741  0.74243911  1  0  0.299996  0  0.905967  0  0  0.292235  0  0.958269  0  0  0.298019  0  0.953749  0  0  0.301696  0.287857  0  0.961922  0
H  H10  1  0.16708315  0.53076889  0.25756184  1  0  0.29988  0  0.905849  0  0  0.292077  0  0.958229  0  0  0.297885  0  0.953678  0  0  0.301604  0.287703  0  0.961877  0
H  H11  1  0.33291995  0.46923373  0.75756177  1  0  0.299865  0  0.905998  0  0  0.29215  0  0.958271  0  0  0.29793  0  0.953759  0  0  0.301673  0.287786  0  0.961906  0
H  H12  1  0.88950870  0.93586236  0.15320530  1  0  0.289387  0  0.944284  0  0  0.272143  0  1.015569  0  0  0.279425  0  1.009049  0  0  0.29091  0.26677  0  1.020597  0
H  H13  1  0.61048343  0.06413947  0.65321180  1  0  0.289407  0  0.944347  0  0  0.272146  0  1.015665  0  0  0.279429  0  1.009142  0  0  0.290894  0.266772  0  1.020689  0
H  H14  1  0.11050698  0.43587417  0.34679487  1  0  0.289421  0  0.944244  0  0  0.272175  0  1.015567  0  0  0.279462  0  1.009034  0  0  0.290925  0.266801  0  1.020595  0
H  H15  1  0.38951520  0.56412737  0.84679108  1  0  0.289313  0  0.944347  0  0  0.272109  0  1.015618  0  0  0.279394  0  1.009093  0  0  0.290885  0.266735  0  1.020648  0
H  H16  1  0.40027083  0.82420688  0.10648897  1  0  0.084999  0  0.974466  0  0  0.099129  0  1.036371  0  0  0.100733  0  1.03681  0  0  0.097209  0.097955  0  1.036205  0
H  H17  1  0.09972179  0.17578761  0.60648628  1  0  0.085  0  0.974336  0  0  0.09911  0  1.036269  0  0  0.100715  0  1.036706  0  0  0.097153  0.097932  0  1.036115  0
H  H18  1  0.59975336  0.32421744  0.39351065  1  0  0.085038  0  0.974232  0  0  0.099038  0  1.036365  0  0  0.100653  0  1.036775  0  0  0.097163  0.097861  0  1.036216  0
H  H19  1  0.90027383  0.67577691  0.89350897  1  0  0.084845  0  0.974371  0  0  0.098967  0  1.036306  0  0  0.100568  0  1.036748  0  0  0.097095  0.097789  0  1.036154  0
H  H20  1  0.53390970  0.70920688  0.17762808  1  0  0.070094  0  0.94822  0  0  0.086291  0  1.012799  0  0  0.08786  0  1.011856  0  0  0.09349  0.085042  0  1.013732  0
H  H21  1  0.96610350  0.29080180  0.67762854  1  0  0.070185  0  0.948101  0  0  0.086372  0  1.01267  0  0  0.08793  0  1.011749  0  0  0.09349  0.08512  0  1.013609  0
H  H22  1  0.46611479  0.20922914  0.32237662  1  0  0.070046  0  0.948258  0  0  0.086254  0  1.012804  0  0  0.087821  0  1.01186  0  0  0.093517  0.085019  0  1.013732  0
H  H23  1  0.03388632  0.79077402  0.82237170  1  0  0.070194  0  0.948076  0  0  0.086388  0  1.01261  0  0  0.087943  0  1.011682  0  0  0.093513  0.085138  0  1.013549  0
H  H24  1  0.70668312  0.86524620  0.02149690  1  0  0.092541  0  0.995443  0  0  0.106202  0  1.058126  0  0  0.108645  0  1.057529  0  0  0.104084  0.104152  0  1.059191  0
H  H25  1  0.79329393  0.13475346  0.52150164  1  0  0.092377  0  0.995606  0  0  0.106087  0  1.058276  0  0  0.108535  0  1.057675  0  0  0.104062  0.104037  0  1.05934  0
H  H26  1  0.29334872  0.36526707  0.47850694  1  0  0.092373  0  0.995408  0  0  0.106035  0  1.058123  0  0  0.108472  0  1.057539  0  0  0.104018  0.103985  0  1.059182  0
H  H27  1  0.20669128  0.63474390  0.97849947  1  0  0.092507  0  0.995459  0  0  0.106061  0  1.058267  0  0  0.108508  0  1.057665  0  0  0.104032  0.104008  0  1.059333  0
H  H28  1  0.80157644  0.71234487  0.08526842  1  0  0.109097  0  0.950954  0  0  0.124562  0  1.008862  0  0  0.126964  0  1.008257  0  0  0.107976  0.122451  0  1.00986  0
H  H29  1  0.69840147  0.28766389  0.58528350  1  0  0.109054  0  0.950859  0  0  0.124549  0  1.008839  0  0  0.126916  0  1.008277  0  0  0.107917  0.122431  0  1.009835  0
H  H30  1  0.19841500  0.21236527  0.41472623  1  0  0.109055  0  0.950778  0  0  0.124552  0  1.008673  0  0  0.126945  0  1.008074  0  0  0.107908  0.122432  0  1.009683  0
H  H31  1  0.30159664  0.78765598  0.91470978  1  0  0.109104  0  0.950871  0  0  0.12457  0  1.008806  0  0  0.126956  0  1.008221  0  0  0.107939  0.122448  0  1.0098  0
H  H32  1  0.68119213  0.22747068  0.74935745  1  0  0.384374  0  0.930874  0  0  0.348736  0  1.010511  0  0  0.359884  0  0.995326  0  0  0.27748  0.341026  0  1.020967  0
H  H33  1  0.81880879  0.77252840  0.24935924  1  0  0.384441  0  0.930869  0  0  0.348767  0  1.010503  0  0  0.359916  0  0.995316  0  0  0.277476  0.341057  0  1.020959  0
H  H34  1  0.31879861  0.72745691  0.75064212  1  0  0.384325  0  0.931001  0  0  0.348671  0  1.010629  0  0  0.35982  0  0.995442  0  0  0.27748  0.34096  0  1.021085  0
H  H35  1  0.18119827  0.27254012  0.25064550  1  0  0.384357  0  0.930928  0  0  0.348703  0  1.010578  0  0  0.359851  0  0.995392  0  0  0.277474  0.340992  0  1.021035  0
H  H36  1  0.77360351  0.35989501  0.81354434  1  0  0.390789  0  0.924441  0  0  0.359172  0  0.993805  0  0  0.36971  0  0.978474  0  0  0.288317  0.35165  0  1.004724  0
H  H37  1  0.72639823  0.64011070  0.31354973  1  0  0.390799  0  0.924422  0  0  0.359175  0  0.993826  0  0  0.369713  0  0.978496  0  0  0.288281  0.35165  0  1.004749  0
H  H38  1  0.22638943  0.85988567  0.68645852  1  0  0.390728  0  0.924531  0  0  0.359102  0  0.993875  0  0  0.369641  0  0.978543  0  0  0.288295  0.351582  0  1.004791  0
H  H39  1  0.27359564  0.14011440  0.18645676  1  0  0.390797  0  0.924392  0  0  0.359153  0  0.993782  0  0  0.369692  0  0.978448  0  0  0.288325  0.351634  0  1.004697  0
H  H40  1  0.32457653  0.99132528  0.79948627  1  0  0.427928  0  0.870201  0  0  0.400232  0  0.92803  0  0  0.410689  0  0.91268  0  0  0.288782  0.39282  0  0.938976  0
H  H41  1  0.17541986  0.00867698  0.29948355  1  0  0.427946  0  0.870158  0  0  0.400227  0  0.928028  0  0  0.410688  0  0.912672  0  0  0.288759  0.392808  0  0.938986  0
H  H42  1  0.67541999  0.49133134  0.70051358  1  0  0.428021  0  0.870065  0  0  0.400331  0  0.927882  0  0  0.410788  0  0.912533  0  0  0.288836  0.392918  0  0.93883  0
H  H43  1  0.82456767  0.50866977  0.20051336  1  0  0.428063  0  0.870013  0  0  0.400357  0  0.927855  0  0  0.410815  0  0.912504  0  0  0.2888  0.392938  0  0.938813  0
H  H44  1  0.20183004  0.05082116  0.87758552  1  0  0.414087  0  0.892508  0  0  0.381666  0  0.960305  0  0  0.392504  0  0.944363  0  0  0.292245  0.373997  0  0.971605  0
H  H45  1  0.29816997  0.94917350  0.37758421  1  0  0.41401  0  0.892621  0  0  0.38158  0  0.960431  0  0  0.392416  0  0.944493  0  0  0.292179  0.373909  0  0.971733  0
H  H46  1  0.79816465  0.55082973  0.62241343  1  0  0.414009  0  0.892624  0  0  0.381613  0  0.960383  0  0  0.392439  0  0.944457  0  0  0.292199  0.373943  0  0.971684  0
H  H47  1  0.70181938  0.44917535  0.12241485  1  0  0.414207  0  0.892368  0  0  0.381791  0  0.960144  0  0  0.392634  0  0.944194  0  0  0.292283  0.374118  0  0.971449  0
H  H48  1  0.83459171  0.98485545  0.90933449  1  0  0.418512  0  0.884479  0  0  0.388486  0  0.948161  0  0  0.398509  0  0.933545  0  0  0.29815  0.381455  0  0.958393  0
H  H49  1  0.66541473  0.01514996  0.40933156  1  0  0.418461  0  0.88458  0  0  0.388443  0  0.948248  0  0  0.398464  0  0.933633  0  0  0.29811  0.38141  0  0.958484  0
H  H50  1  0.16540490  0.48485945  0.59066718  1  0  0.418482  0  0.884531  0  0  0.388486  0  0.948162  0  0  0.398496  0  0.933563  0  0  0.298144  0.381454  0  0.958396  0
H  H51  1  0.33458233  0.51513245  0.09066352  1  0  0.418579  0  0.884401  0  0  0.388535  0  0.948102  0  0  0.398563  0  0.933478  0  0  0.298167  0.381501  0  0.958341  0
H  H52  1  0.66589312  0.86694839  0.89442524  1  0  0.418707  0  0.876928  0  0  0.387335  0  0.945638  0  0  0.398107  0  0.929797  0  0  0.293465  0.379672  0  0.956905  0
H  H53  1  0.83410785  0.13306164  0.39442759  1  0  0.418606  0  0.877137  0  0  0.387219  0  0.945821  0  0  0.397991  0  0.929979  0  0  0.293413  0.379555  0  0.95709  0
H  H54  1  0.33410246  0.36694723  0.60557960  1  0  0.418693  0  0.87693  0  0  0.387269  0  0.945707  0  0  0.39804  0  0.929865  0  0  0.293449  0.379608  0  0.956969  0
H  H55  1  0.16588887  0.63304852  0.10557190  1  0  0.418728  0  0.876885  0  0  0.387338  0  0.945637  0  0  0.39811  0  0.929794  0  0  0.293483  0.379674  0  0.956904  0
C  C56  1  0.57612010  0.09775700  0.10574860  1  0  0.661987  0  3.835197  0  0  0.61648  0  4.128164  0  0  0.649291  0  4.121008  0  0  0.224068  0.594222  0  4.132486  0
C  C57  1  0.92386963  0.90223465  0.60575439  1  0  0.661967  0  3.834814  0  0  0.616451  0  4.127694  0  0  0.64923  0  4.120586  0  0  0.224178  0.594212  0  4.131988  0
C  C58  1  0.42387988  0.59777120  0.39425807  1  0  0.661875  0  3.835177  0  0  0.61641  0  4.128039  0  0  0.64921  0  4.120903  0  0  0.22411  0.594152  0  4.132358  0
C  C59  1  0.07612269  0.40222356  0.89425397  1  0  0.661983  0  3.835037  0  0  0.616509  0  4.127904  0  0  0.649293  0  4.120788  0  0  0.224232  0.594251  0  4.132226  0
C  C60  1  0.60675994  0.96286477  0.17144163  1  0  0.066799  0  3.62655  0  0  0.047846  0  3.872503  0  0  0.047294  0  3.884984  0  0  0.007858  0.04797  0  3.863724  0
C  C61  1  0.89324147  0.03713705  0.67143361  1  0  0.066771  0  3.626905  0  0  0.047964  0  3.872489  0  0  0.047425  0  3.88497  0  0  0.007971  0.048086  0  3.863705  0
C  C62  1  0.39325948  0.46288096  0.32855884  1  0  0.066938  0  3.626559  0  0  0.048004  0  3.872438  0  0  0.047452  0  3.884927  0  0  0.007888  0.048128  0  3.863666  0
C  C63  1  0.10675480  0.53712663  0.82856206  1  0  0.066816  0  3.626698  0  0  0.047847  0  3.872638  0  0  0.047306  0  3.885121  0  0  0.007792  0.047972  0  3.863863  0
C  C64  1  0.54051453  0.80486756  0.12968686  1  0  -0.124435  0  3.64801  0  0  -0.167167  0  3.899854  0  0  -0.16797  0  3.912561  0  0  -0.162801  -0.166367  0  3.891108  0
C  C65  1  0.95947019  0.19513703  0.62968802  1  0  -0.124693  0  3.648225  0  0  -0.167416  0  3.900049  0  0  -0.168214  0  3.912756  0  0  -0.162839  -0.166598  0  3.891263  0
C  C66  1  0.45950031  0.30488414  0.37031571  1  0  -0.124519  0  3.64781  0  0  -0.167208  0  3.899642  0  0  -0.168006  0  3.912346  0  0  -0.162849  -0.166403  0  3.890861  0
C  C67  1  0.04053065  0.69511826  0.87031247  1  0  -0.124513  0  3.648118  0  0  -0.167184  0  3.899875  0  0  -0.167994  0  3.912615  0  0  -0.162758  -0.166372  0  3.891092  0
C  C68  1  0.67205666  0.75773732  0.05838047  1  0  -0.292953  0  3.693028  0  0  -0.327543  0  3.932736  0  0  -0.334582  0  3.942638  0  0  -0.178529  -0.322389  0  3.926288  0
C  C69  1  0.82791554  0.24227080  0.55838542  1  0  -0.292536  0  3.692697  0  0  -0.327385  0  3.932664  0  0  -0.334417  0  3.942607  0  0  -0.178383  -0.322219  0  3.9262  0
C  C70  1  0.32795612  0.25774891  0.44161719  1  0  -0.292607  0  3.692486  0  0  -0.327242  0  3.932209  0  0  -0.334272  0  3.942113  0  0  -0.178353  -0.322073  0  3.925752  0
C  C71  1  0.17208736  0.74225966  0.94161305  1  0  -0.292854  0  3.692611  0  0  -0.327481  0  3.932456  0  0  -0.334511  0  3.942359  0  0  -0.17842  -0.322294  0  3.925991  0
C  C72  1  0.60092322  0.62863111  0.99971087  1  0  0.706454  0  3.849087  0  0  0.655222  0  4.156765  0  0  0.687661  0  4.149758  0  0  0.217162  0.633132  0  4.160684  0
C  C73  1  0.89909944  0.37135257  0.49971188  1  0  0.706556  0  3.84873  0  0  0.65535  0  4.15646  0  0  0.687754  0  4.149465  0  0  0.217279  0.633263  0  4.160378  0
C  C74  1  0.39909234  0.12863403  0.50029144  1  0  0.706396  0  3.849229  0  0  0.655173  0  4.156889  0  0  0.68759  0  4.149896  0  0  0.217148  0.633085  0  4.160805  0
C  C75  1  0.10090756  0.87135781  0.00028950  1  0  0.706754  0  3.848723  0  0  0.655482  0  4.156426  0  0  0.687912  0  4.149411  0  0  0.217446  0.633372  0  4.160376  0
N  N76  1  0.79520671  0.94175296  0.20136382  1  0  -0.634676  0  3.088434  0  0  -0.595647  0  3.31302  0  0  -0.611074  0  3.310417  0  0  -0.609164  -0.584144  0  3.314744  0
N  N77  1  0.70478911  0.05823962  0.70137412  1  0  -0.634672  0  3.088523  0  0  -0.595748  0  3.312988  0  0  -0.611148  0  3.310407  0  0  -0.609197  -0.584245  0  3.314714  0
N  N78  1  0.20481026  0.44176418  0.29863642  1  0  -0.634571  0  3.088395  0  0  -0.595598  0  3.312978  0  0  -0.611024  0  3.310369  0  0  -0.609063  -0.584096  0  3.314704  0
N  N79  1  0.29520410  0.55822603  0.79863122  1  0  -0.634441  0  3.088377  0  0  -0.595576  0  3.312937  0  0  -0.610973  0  3.310365  0  0  -0.60914  -0.584089  0  3.314648  0
O  O80  1  0.71220454  0.14541318  0.06188292  1  0  -0.752858  0  2.073067  0  0  -0.687482  0  2.33145  0  0  -0.714856  0  2.321384  0  0  -0.410931  -0.668014  0  2.338801  0
O  O81  1  0.78778108  0.85458864  0.56188192  1  0  -0.752776  0  2.072807  0  0  -0.687414  0  2.331155  0  0  -0.714781  0  2.321116  0  0  -0.410975  -0.667957  0  2.338497  0
O  O82  1  0.28778512  0.64542537  0.43812300  1  0  -0.752793  0  2.072905  0  0  -0.687404  0  2.331215  0  0  -0.714781  0  2.321169  0  0  -0.410976  -0.667933  0  2.338562  0
O  O83  1  0.21221468  0.35457254  0.93812027  1  0  -0.75286  0  2.072958  0  0  -0.687455  0  2.331262  0  0  -0.714825  0  2.321217  0  0  -0.411038  -0.667987  0  2.338612  0
O  O84  1  0.41162483  0.14531122  0.09191941  1  0  -0.705147  0  1.941361  0  0  -0.642061  0  2.170628  0  0  -0.668465  0  2.161697  0  0  -0.333304  -0.623457  0  2.176181  0
O  O85  1  0.08835953  0.85468059  0.59191289  1  0  -0.705178  0  1.940881  0  0  -0.642062  0  2.170075  0  0  -0.668454  0  2.161161  0  0  -0.333469  -0.623466  0  2.175618  0
O  O86  1  0.58837445  0.64532392  0.40808713  1  0  -0.705174  0  1.941528  0  0  -0.642026  0  2.170694  0  0  -0.668426  0  2.161772  0  0  -0.333336  -0.623419  0  2.176245  0
O  O87  1  0.91163485  0.35467431  0.90808740  1  0  -0.70526  0  1.941402  0  0  -0.642085  0  2.170542  0  0  -0.668476  0  2.161618  0  0  -0.333439  -0.623484  0  2.176096  0
O  O88  1  0.55159053  0.49284927  0.03311380  1  0  -0.74286  0  2.01451  0  0  -0.670137  0  2.248384  0  0  -0.696538  0  2.236833  0  0  -0.358805  -0.651933  0  2.256509  0
O  O89  1  0.94836893  0.50716052  0.53311859  1  0  -0.742689  0  2.014038  0  0  -0.670149  0  2.248082  0  0  -0.69641  0  2.236435  0  0  -0.358862  -0.651959  0  2.256223  0
O  O90  1  0.44839269  0.99284682  0.46688006  1  0  -0.742774  0  2.014468  0  0  -0.670116  0  2.248397  0  0  -0.696466  0  2.236821  0  0  -0.358873  -0.651926  0  2.256535  0
O  O91  1  0.05162640  0.00714797  0.96686920  1  0  -0.742927  0  2.014159  0  0  -0.670245  0  2.248109  0  0  -0.696599  0  2.236525  0  0  -0.35895  -0.652054  0  2.256269  0
O  O92  1  0.59533989  0.65560559  0.92118984  1  0  -0.641713  0  1.941457  0  0  -0.580621  0  2.157472  0  0  -0.604987  0  2.147907  0  0  -0.302896  -0.563363  0  2.163696  0
O  O93  1  0.90465030  0.34436271  0.42119576  1  0  -0.641842  0  1.94169  0  0  -0.580611  0  2.157606  0  0  -0.605013  0  2.148118  0  0  -0.302929  -0.563376  0  2.163877  0
O  O94  1  0.40465053  0.15559247  0.57880708  1  0  -0.641772  0  1.941758  0  0  -0.580617  0  2.157696  0  0  -0.605002  0  2.148186  0  0  -0.302844  -0.563373  0  2.163948  0
O  O95  1  0.09535296  0.84436873  0.07879715  1  0  -0.641744  0  1.941794  0  0  -0.580597  0  2.157777  0  0  -0.604987  0  2.148273  0  0  -0.30295  -0.56335  0  2.164048  0
O  O96  1  0.66112565  0.33918560  0.77975435  1  0  -0.874552  0  1.859833  0  0  -0.807932  0  2.044159  0  0  -0.830346  0  2.013104  0  0  -0.613515  -0.792018  0  2.066183  0
O  O97  1  0.83886552  0.66081752  0.27975299  1  0  -0.874604  0  1.859897  0  0  -0.807969  0  2.04414  0  0  -0.830387  0  2.013095  0  0  -0.613459  -0.792045  0  2.066174  0
O  O98  1  0.33886621  0.83917164  0.72024830  1  0  -0.874447  0  1.860113  0  0  -0.807789  0  2.044442  0  0  -0.830203  0  2.013389  0  0  -0.613487  -0.791876  0  2.066461  0
O  O99  1  0.16112666  0.16083103  0.22024994  1  0  -0.874607  0  1.859997  0  0  -0.807876  0  2.044365  0  0  -0.83029  0  2.013307  0  0  -0.613544  -0.791961  0  2.066389  0
O  O100  1  0.30861701  0.07923928  0.84164181  1  0  -0.890014  0  1.781041  0  0  -0.833371  0  1.950828  0  0  -0.853246  0  1.91986  0  0  -0.641713  -0.819042  0  1.972969  0
O  O101  1  0.19138640  0.92075655  0.34164291  1  0  -0.889931  0  1.781103  0  0  -0.833295  0  1.950903  0  0  -0.853169  0  1.91993  0  0  -0.641602  -0.818962  0  1.97305  0
O  O102  1  0.69137727  0.57924186  0.65835367  1  0  -0.890028  0  1.781108  0  0  -0.833373  0  1.950828  0  0  -0.85325  0  1.919876  0  0  -0.64171  -0.819044  0  1.972973  0
O  O103  1  0.80861437  0.42075962  0.15835144  1  0  -0.890229  0  1.780854  0  0  -0.833629  0  1.950689  0  0  -0.853499  0  1.919703  0  0  -0.641751  -0.819298  0  1.972846  0
O  O104  1  0.70866880  0.98009486  0.88562389  1  0  -0.872924  0  1.823988  0  0  -0.818563  0  2.002781  0  0  -0.838483  0  1.972232  0  0  -0.617502  -0.804167  0  2.024106  0
O  O105  1  0.79132750  0.01991697  0.38562007  1  0  -0.872766  0  1.824156  0  0  -0.818406  0  2.002907  0  0  -0.838327  0  1.972368  0  0  -0.617445  -0.804006  0  2.024236  0
O  O106  1  0.29132238  0.48009990  0.61437585  1  0  -0.872885  0  1.824092  0  0  -0.818482  0  2.002963  0  0  -0.8384  0  1.972435  0  0  -0.61745  -0.804086  0  2.024289  0
O  O107  1  0.20866536  0.51989890  0.11437632  1  0  -0.872977  0  1.823805  0  0  -0.818586  0  2.002648  0  0  -0.838505  0  1.972097  0  0  -0.617547  -0.804187  0  2.023981  0
