# generated using pymatgen
data_ZnCrH40C20(NO)4
_symmetry_space_group_name_H-M   'P 1'
_cell_length_a   9.87233107
_cell_length_b   10.99012475
_cell_length_c   13.42000000
_cell_angle_alpha   115.10671533
_cell_angle_beta   100.43913669
_cell_angle_gamma   91.40245536
_symmetry_Int_Tables_number   1
_chemical_formula_structural   ZnCrH40C20(NO)4
_chemical_formula_sum   'Zn2 Cr2 H80 C40 N8 O8'
_cell_volume   1288.22753428
_cell_formula_units_Z   2
loop_
 _symmetry_equiv_pos_site_id
 _symmetry_equiv_pos_as_xyz
  1  'x, y, z'
loop_
 _atom_site_type_symbol
 _atom_site_label
 _atom_site_symmetry_multiplicity
 _atom_site_fract_x
 _atom_site_fract_y
 _atom_site_fract_z
 _atom_site_occupancy
 _atom_site_hle17_bader_spin_density
 _atom_site_hle17_ddec_charge
 _atom_site_hle17_ddec_spin_density
 _atom_site_hle17_ddec_sum_bond_order
 _atom_site_hle17_magmom
 _atom_site_hse06_10hf_bader_spin_density
 _atom_site_hse06_10hf_ddec_charge
 _atom_site_hse06_10hf_ddec_spin_density
 _atom_site_hse06_10hf_ddec_sum_bond_order
 _atom_site_hse06_10hf_magmom
 _atom_site_hse06_bader_spin_density
 _atom_site_hse06_ddec_charge
 _atom_site_hse06_ddec_spin_density
 _atom_site_hse06_ddec_sum_bond_order
 _atom_site_hse06_magmom
 _atom_site_pbe_bader_charge
 _atom_site_pbe_bader_spin_density
 _atom_site_pbe_cm5_charge
 _atom_site_pbe_ddec_charge
 _atom_site_pbe_ddec_spin_density
 _atom_site_pbe_ddec_sum_bond_order
 _atom_site_pbe_magmom
Zn  Zn0  1  0.99999944  0.00007788  0.00008861  1  0  0.949223  0  1.907476  0  0  0.793795  0  2.319214  0  0  0.833442  0  2.278713  0  1.216338  0  0.692674  0.767033  0  2.346292  0
Zn  Zn1  1  0.00000351  0.50002320  0.50001267  1  0  0.948559  0  1.958781  0  0  0.797833  0  2.377429  0  0  0.836569  0  2.337099  0  1.234379  0  0.69538  0.77176  0  2.404458  0
Cr  Cr2  1  0.07165472  0.18781541  0.30116838  1  0  1.729739  0  3.707308  0  0  1.793367  0  4.180047  0  0  1.878609  0  4.149911  0  1.979737  0  1.22087  1.737717  0  4.198613  0
Cr  Cr3  1  0.92836073  0.81219155  0.69884489  1  0  1.729727  0  3.707565  0  0  1.79338  0  4.180313  0  0  1.878656  0  4.150128  0  1.979783  0  1.220758  1.737708  0  4.198893  0
H  H4  1  0.22274328  0.93366193  0.93948311  1  0  0.255077  0  0.891104  0  0  0.25274  0  0.935853  0  0  0.257973  0  0.932437  0  0.432462  0  0.298929  0.248699  0  0.938997  0
H  H5  1  0.77712540  0.06633188  0.06051274  1  0  0.254942  0  0.891169  0  0  0.252606  0  0.935968  0  0  0.257832  0  0.932568  0  0.432089  0  0.29884  0.248578  0  0.939085  0
H  H6  1  0.02166834  0.93160370  0.16053258  1  0  0.265173  0  0.978457  0  0  0.253379  0  1.041607  0  0  0.259866  0  1.037716  0  0.463489  0  0.279185  0.248804  0  1.044347  0
H  H7  1  0.97833244  0.06836584  0.83950747  1  0  0.265261  0  0.97849  0  0  0.253444  0  1.041643  0  0  0.259932  0  1.03775  0  0.463903  0  0.279221  0.248867  0  1.044387  0
H  H8  1  0.26071269  0.02185979  0.18363806  1  0  0.06434  0  0.925514  0  0  0.074917  0  0.990432  0  0  0.075098  0  0.99101  0  0.074241  0  0.116624  0.074571  0  0.990253  0
H  H9  1  0.73930890  0.97813807  0.81637510  1  0  0.064324  0  0.925529  0  0  0.074855  0  0.990392  0  0  0.075026  0  0.990994  0  0.074445  0  0.116617  0.074524  0  0.99018  0
H  H10  1  0.48287398  0.98738446  0.11647067  1  0  0.070185  0  0.933167  0  0  0.0914  0  0.987744  0  0  0.092162  0  0.988221  0  0.012828  0  0.0917  0.090666  0  0.987642  0
H  H11  1  0.51711715  0.01260835  0.88350985  1  0  0.070097  0  0.93312  0  0  0.091346  0  0.987715  0  0  0.092111  0  0.988187  0  0.012802  0  0.091744  0.090612  0  0.987616  0
H  H12  1  0.41177087  0.82277605  0.01301801  1  0  0.055295  0  0.944902  0  0  0.072017  0  1.014685  0  0  0.072959  0  1.014392  0  -0.020807  0  0.084418  0.071335  0  1.014746  0
H  H13  1  0.58820861  0.17722283  0.98696083  1  0  0.05523  0  0.944973  0  0  0.071959  0  1.01481  0  0  0.0729  0  1.014518  0  -0.020574  0  0.08439  0.071289  0  1.01486  0
H  H14  1  0.45319044  0.92262938  0.26911067  1  0  0.073293  0  0.911894  0  0  0.097746  0  0.959329  0  0  0.098315  0  0.960098  0  0.039441  0  0.09638  0.097386  0  0.958784  0
H  H15  1  0.54683088  0.07735736  0.73087251  1  0  0.073106  0  0.911934  0  0  0.097713  0  0.959265  0  0  0.098285  0  0.960029  0  0.038837  0  0.096335  0.097321  0  0.958762  0
H  H16  1  0.55767221  0.81496688  0.18341886  1  0  0.058601  0  0.957607  0  0  0.075151  0  1.023314  0  0  0.075966  0  1.023505  0  0.020788  0  0.086562  0.074271  0  1.023496  0
H  H17  1  0.44232963  0.18501176  0.81654401  1  0  0.05853  0  0.957548  0  0  0.075106  0  1.023282  0  0  0.075913  0  1.023472  0  0.021261  0  0.086537  0.074232  0  1.023448  0
H  H18  1  0.35528415  0.63898203  0.07681495  1  0  0.051801  0  0.943065  0  0  0.073764  0  1.002922  0  0  0.073825  0  1.004274  0  0.002071  0  0.083839  0.073688  0  1.002007  0
H  H19  1  0.64470687  0.36100976  0.92316595  1  0  0.051659  0  0.943136  0  0  0.073588  0  1.003087  0  0  0.073643  0  1.004444  0  0.002354  0  0.083785  0.073512  0  1.002171  0
H  H20  1  0.37757087  0.68311732  0.22183628  1  0  0.057927  0  0.962108  0  0  0.077176  0  1.023671  0  0  0.077795  0  1.02408  0  0.008129  0  0.087831  0.07668  0  1.023618  0
H  H21  1  0.62244507  0.31686740  0.77814175  1  0  0.057939  0  0.96218  0  0  0.07721  0  1.023756  0  0  0.077829  0  1.024167  0  0.008565  0  0.08787  0.076714  0  1.023702  0
H  H22  1  0.12883710  0.67075070  0.13410552  1  0  0.062687  0  0.9658  0  0  0.077814  0  1.036504  0  0  0.078553  0  1.036847  0  -0.006954  0  0.087049  0.077404  0  1.036176  0
H  H23  1  0.87117248  0.32925020  0.86590114  1  0  0.062687  0  0.965844  0  0  0.077839  0  1.036513  0  0  0.078581  0  1.036855  0  -0.00711  0  0.087036  0.077426  0  1.036191  0
H  H24  1  0.19239700  0.83530044  0.24019032  1  0  0.093381  0  0.934452  0  0  0.114747  0  0.988453  0  0  0.115892  0  0.988468  0  0.05087  0  0.098957  0.113807  0  0.98857  0
H  H25  1  0.80762915  0.16469236  0.75981722  1  0  0.093429  0  0.934491  0  0  0.114702  0  0.9886  0  0  0.115858  0  0.988597  0  0.050701  0  0.098964  0.113763  0  0.988716  0
H  H26  1  0.15589331  0.74522753  0.98664171  1  0  0.037204  0  0.93353  0  0  0.054094  0  0.993512  0  0  0.054336  0  0.993632  0  0.030782  0  0.102663  0.0538  0  0.993684  0
H  H27  1  0.84408038  0.25478348  0.01336442  1  0  0.037249  0  0.933722  0  0  0.054116  0  0.993719  0  0  0.054355  0  0.993839  0  0.030559  0  0.102689  0.05382  0  0.993891  0
H  H28  1  0.91182068  0.72365093  0.11248226  1  0  0.013516  0  0.920863  0  0  0.029525  0  0.98168  0  0  0.029496  0  0.981612  0  0.014962  0  0.094385  0.02942  0  0.982042  0
H  H29  1  0.08815347  0.27632872  0.88751229  1  0  0.013501  0  0.92104  0  0  0.029556  0  0.981815  0  0  0.029513  0  0.981767  0  0.014906  0  0.094426  0.029477  0  0.982142  0
H  H30  1  0.68284184  0.74013605  0.03375654  1  0  0.073966  0  0.937746  0  0  0.095262  0  0.994577  0  0  0.095405  0  0.996079  0  0.003183  0  0.095094  0.095103  0  0.99341  0
H  H31  1  0.31714708  0.25984664  0.96622017  1  0  0.074004  0  0.93781  0  0  0.095299  0  0.994615  0  0  0.095421  0  0.996133  0  0.002886  0  0.095074  0.095143  0  0.993459  0
H  H32  1  0.76639164  0.90293807  0.12677857  1  0  0.084432  0  0.916104  0  0  0.103118  0  0.972534  0  0  0.104315  0  0.97231  0  0.050511  0  0.101471  0.102391  0  0.972419  0
H  H33  1  0.23357874  0.09704462  0.87320536  1  0  0.084526  0  0.916053  0  0  0.103086  0  0.972587  0  0  0.104281  0  0.97235  0  0.050202  0  0.101506  0.102371  0  0.972482  0
H  H34  1  0.26553599  0.20501257  0.13022752  1  0  0.080823  0  0.928785  0  0  0.099968  0  0.987675  0  0  0.100306  0  0.988379  0  0.086319  0  0.110877  0.099639  0  0.987346  0
H  H35  1  0.73453396  0.79500249  0.86977049  1  0  0.081059  0  0.928661  0  0  0.100129  0  0.987679  0  0  0.100471  0  0.988365  0  0.086629  0  0.11092  0.099801  0  0.987358  0
H  H36  1  0.39971068  0.13322712  0.06007259  1  0  0.031835  0  0.958625  0  0  0.044969  0  1.033006  0  0  0.045581  0  1.032358  0  0.006801  0  0.087818  0.044199  0  1.033947  0
H  H37  1  0.60029345  0.86671815  0.93986856  1  0  0.032034  0  0.958533  0  0  0.045148  0  1.032942  0  0  0.045755  0  1.03229  0  0.00695  0  0.087915  0.044382  0  1.033885  0
H  H38  1  0.99133363  0.57918088  0.94358750  1  0  0.093649  0  0.966358  0  0  0.113074  0  1.03661  0  0  0.114277  0  1.036573  0  0.013017  0  0.084928  0.111889  0  1.037126  0
H  H39  1  0.00866874  0.42082001  0.05641744  1  0  0.093681  0  0.966421  0  0  0.113087  0  1.036675  0  0  0.114288  0  1.036641  0  0.01314  0  0.084932  0.111903  0  1.037191  0
H  H40  1  0.90904053  0.66631461  0.86793068  1  0  0.124813  0  0.977176  0  0  0.144367  0  1.04142  0  0  0.146738  0  1.040402  0  0.070513  0  0.092587  0.142484  0  1.042417  0
H  H41  1  0.09098822  0.33370044  0.13207749  1  0  0.124827  0  0.977273  0  0  0.144414  0  1.041474  0  0  0.146791  0  1.040441  0  0.070295  0  0.092568  0.142531  0  1.042471  0
H  H42  1  0.80802968  0.56592523  0.91020574  1  0  0.099457  0  0.959989  0  0  0.123511  0  1.021287  0  0  0.124354  0  1.022063  0  0.023804  0  0.088125  0.122613  0  1.021186  0
H  H43  1  0.19197764  0.43408274  0.08978370  1  0  0.09946  0  0.959879  0  0  0.12348  0  1.021236  0  0  0.124324  0  1.02201  0  0.023956  0  0.088073  0.122576  0  1.021145  0
H  H44  1  0.75960681  0.57959759  0.52964380  1  0  0.266792  0  0.943915  0  0  0.259566  0  0.999277  0  0  0.265479  0  0.995559  0  0.46432  0  0.283176  0.255203  0  1.002322  0
H  H45  1  0.24039410  0.42040836  0.47036420  1  0  0.266855  0  0.943904  0  0  0.259612  0  0.999283  0  0  0.265521  0  0.995568  0  0.46408  0  0.2832  0.25525  0  1.002329  0
H  H46  1  0.97625753  0.43040421  0.29456822  1  0  0.250277  0  0.915661  0  0  0.239703  0  0.978214  0  0  0.244703  0  0.975107  0  0.418643  0  0.293951  0.236092  0  0.980555  0
H  H47  1  0.02374567  0.56960376  0.70544750  1  0  0.250248  0  0.915668  0  0  0.239658  0  0.978247  0  0  0.244657  0  0.975142  0  0.418743  0  0.293918  0.236046  0  0.980589  0
H  H48  1  0.74285004  0.35338568  0.30496356  1  0  0.051825  0  0.902807  0  0  0.067939  0  0.958562  0  0  0.068607  0  0.958201  0  0.052888  0  0.109776  0.067261  0  0.959099  0
H  H49  1  0.25714595  0.64662229  0.69503779  1  0  0.051857  0  0.902794  0  0  0.067937  0  0.958549  0  0  0.068602  0  0.958192  0  0.052797  0  0.109774  0.06726  0  0.959083  0
H  H50  1  0.56339317  0.58621631  0.38576018  1  0  0.071872  0  0.923214  0  0  0.091312  0  0.982551  0  0  0.0923  0  0.982453  0  0.035089  0  0.092737  0.090653  0  0.982372  0
H  H51  1  0.43661454  0.41380380  0.61424321  1  0  0.071794  0  0.923054  0  0  0.091247  0  0.982457  0  0  0.092238  0  0.982363  0  0.035009  0  0.092684  0.090585  0  0.982282  0
H  H52  1  0.51192362  0.41553433  0.35256892  1  0  0.085332  0  0.92986  0  0  0.105942  0  0.983914  0  0  0.107048  0  0.98395  0  0.041305  0  0.096108  0.10517  0  0.983753  0
H  H53  1  0.48807862  0.58449185  0.64744853  1  0  0.085346  0  0.929787  0  0  0.105986  0  0.983842  0  0  0.107099  0  0.98388  0  0.04142  0  0.096137  0.105213  0  0.98368  0
H  H54  1  0.41609322  0.46608808  0.19117782  1  0  0.059044  0  0.956895  0  0  0.076745  0  1.022395  0  0  0.077145  0  1.023509  0  0.002667  0  0.086993  0.076112  0  1.022113  0
H  H55  1  0.58390492  0.53391180  0.80882546  1  0  0.058977  0  0.956901  0  0  0.076728  0  1.022401  0  0  0.077126  0  1.023516  0  0.00276  0  0.086977  0.076092  0  1.022121  0
H  H56  1  0.53335908  0.34384902  0.15402513  1  0  0.049951  0  0.952065  0  0  0.069888  0  1.015678  0  0  0.070464  0  1.015899  0  -0.008349  0  0.083032  0.069409  0  1.015694  0
H  H57  1  0.46663506  0.65615188  0.84598692  1  0  0.049862  0  0.95208  0  0  0.069866  0  1.01566  0  0  0.070446  0  1.015875  0  -0.008443  0  0.083006  0.069382  0  1.015679  0
H  H58  1  0.58021371  0.51849879  0.08700682  1  0  0.052371  0  0.951489  0  0  0.069952  0  1.017419  0  0  0.071157  0  1.016885  0  0.017629  0  0.082503  0.069171  0  1.017764  0
H  H59  1  0.41978322  0.48148187  0.91298814  1  0  0.052396  0  0.951534  0  0  0.069989  0  1.017415  0  0  0.071194  0  1.016878  0  0.017463  0  0.082504  0.069209  0  1.017756  0
H  H60  1  0.60133464  0.64693280  0.22560148  1  0  0.061973  0  0.949208  0  0  0.083775  0  1.006613  0  0  0.084106  0  1.007538  0  0.037124  0  0.09045  0.083502  0  1.006166  0
H  H61  1  0.39866394  0.35306203  0.77438893  1  0  0.06202  0  0.949227  0  0  0.083765  0  1.006692  0  0  0.084096  0  1.007616  0  0.036987  0  0.090437  0.083491  0  1.006247  0
H  H62  1  0.83094358  0.58852639  0.18127735  1  0  0.066119  0  0.952642  0  0  0.082821  0  1.017902  0  0  0.084006  0  1.017537  0  0.022289  0  0.088872  0.081942  0  1.018407  0
H  H63  1  0.16905223  0.41146236  0.81871580  1  0  0.06616  0  0.952593  0  0  0.082881  0  1.017824  0  0  0.084067  0  1.017456  0  0.022433  0  0.08892  0.082001  0  1.018333  0
H  H64  1  0.78443474  0.41718497  0.14823649  1  0  0.062658  0  0.946306  0  0  0.08074  0  1.011698  0  0  0.081702  0  1.011658  0  0.004956  0  0.087412  0.07985  0  1.012047  0
H  H65  1  0.21556428  0.58280480  0.85176936  1  0  0.062661  0  0.946279  0  0  0.080729  0  1.011705  0  0  0.081688  0  1.011672  0  0.005271  0  0.087423  0.079841  0  1.012054  0
H  H66  1  0.81104514  0.65595870  0.38041106  1  0  0.057907  0  0.902682  0  0  0.076797  0  0.954636  0  0  0.076631  0  0.955503  0  0.079966  0  0.118046  0.076794  0  0.954168  0
H  H67  1  0.18894832  0.34404523  0.61958406  1  0  0.057887  0  0.902743  0  0  0.076757  0  0.954717  0  0  0.076582  0  0.955596  0  0.079877  0  0.118047  0.076754  0  0.954248  0
H  H68  1  0.05659162  0.59825220  0.24849419  1  0  0.003739  0  0.950425  0  0  0.018237  0  1.020281  0  0  0.017739  0  1.020999  0  -0.008774  0  0.089652  0.018508  0  1.020036  0
H  H69  1  0.94340766  0.40174870  0.75150438  1  0  0.003753  0  0.950391  0  0  0.018239  0  1.020269  0  0  0.017742  0  1.020987  0  -0.008753  0  0.089655  0.018506  0  1.020029  0
H  H70  1  0.22351595  0.47654312  0.31935486  1  0  0.085735  0  0.947705  0  0  0.101636  0  1.012223  0  0  0.102862  0  1.012259  0  0.055276  0  0.096241  0.100946  0  1.011844  0
H  H71  1  0.77648266  0.52346081  0.68063872  1  0  0.085772  0  0.947649  0  0  0.101694  0  1.012139  0  0  0.102916  0  1.012178  0  0.055298  0  0.096253  0.101003  0  1.011759  0
H  H72  1  0.28816154  0.64089058  0.34647311  1  0  0.071966  0  0.944293  0  0  0.09073  0  1.003301  0  0  0.090932  0  1.004539  0  -0.008241  0  0.092827  0.090597  0  1.0022  0
H  H73  1  0.71183466  0.35911031  0.65352133  1  0  0.071978  0  0.944385  0  0  0.090757  0  1.003367  0  0  0.090958  0  1.004605  0  -0.008626  0  0.09284  0.090625  0  1.002265  0
H  H74  1  0.61191140  0.37470437  0.49043320  1  0  0.041353  0  0.936723  0  0  0.057609  0  1.00222  0  0  0.058254  0  1.001574  0  0.005016  0  0.092565  0.056749  0  1.003191  0
H  H75  1  0.38809304  0.62529653  0.50956233  1  0  0.041393  0  0.936682  0  0  0.057581  0  1.002267  0  0  0.058227  0  1.00162  0  0.004975  0  0.092551  0.05672  0  1.003239  0
H  H76  1  0.75452268  0.28418441  0.44911053  1  0  0.072388  0  0.926694  0  0  0.092906  0  0.982209  0  0  0.093807  0  0.981755  0  0.069543  0  0.106763  0.092238  0  0.982593  0
H  H77  1  0.24548484  0.71581648  0.55088989  1  0  0.072396  0  0.926743  0  0  0.092906  0  0.982264  0  0  0.093805  0  0.981816  0  0.069523  0  0.106777  0.092237  0  0.982649  0
H  H78  1  0.96111413  0.79802157  0.36490759  1  0  0.105005  0  0.941128  0  0  0.12671  0  1.000461  0  0  0.128208  0  1.000046  0  0.041271  0  0.088204  0.125473  0  1.000942  0
H  H79  1  0.03888734  0.20198033  0.63508790  1  0  0.10487  0  0.941261  0  0  0.126624  0  1.000546  0  0  0.128121  0  1.00013  0  0.041585  0  0.088156  0.125385  0  1.001028  0
H  H80  1  0.14247173  0.83146818  0.40380316  1  0  0.110413  0  0.941448  0  0  0.134848  0  0.996695  0  0  0.136035  0  0.996818  0  0.025524  0  0.091509  0.133908  0  0.996681  0
H  H81  1  0.85752597  0.16853676  0.59619661  1  0  0.11039  0  0.941418  0  0  0.134826  0  0.996676  0  0  0.136015  0  0.996797  0  0.025575  0  0.091484  0.133885  0  0.996663  0
H  H82  1  0.04891936  0.79360774  0.49137067  1  0  0.131419  0  0.977888  0  0  0.151312  0  1.03877  0  0  0.153618  0  1.038094  0  0.108189  0  0.094038  0.149594  0  1.039333  0
H  H83  1  0.95107775  0.20639214  0.50862875  1  0  0.131398  0  0.977916  0  0  0.151279  0  1.038823  0  0  0.153585  0  1.038143  0  0.108086  0  0.094024  0.149564  0  1.03938  0
C  C84  1  0.26242220  0.94241981  0.09911770  1  0  0.098293  0  3.574389  0  0  0.077656  0  3.816876  0  0  0.080434  0  3.833517  0  0.296226  0  0.003362  0.07561  0  3.805581  0
C  C85  1  0.73757126  0.05758412  0.90088786  1  0  0.098117  0  3.574391  0  0  0.077899  0  3.816315  0  0  0.080674  0  3.832956  0  0.296279  0  0.003316  0.075856  0  3.805021  0
C  C86  1  0.40900891  0.90031445  0.09842369  1  0  -0.147041  0  3.675411  0  0  -0.192266  0  3.940577  0  0  -0.19377  0  3.955154  0  0.004054  0  -0.163776  -0.19083  0  3.929539  0
C  C87  1  0.59098452  0.09968038  0.90155933  1  0  -0.146817  0  3.675095  0  0  -0.192219  0  3.940394  0  0  -0.193718  0  3.954965  0  0.003363  0  -0.163777  -0.190792  0  3.929351  0
C  C88  1  0.45166107  0.84320671  0.18389553  1  0  -0.106547  0  3.698024  0  0  -0.147209  0  3.961715  0  0  -0.148058  0  3.976267  0  -0.034605  0  -0.165921  -0.146263  0  3.951181  0
C  C89  1  0.54834527  0.15678407  0.81608334  1  0  -0.106314  0  3.697452  0  0  -0.147117  0  3.961431  0  0  -0.147957  0  3.975974  0  -0.03433  0  -0.165857  -0.146152  0  3.950892  0
C  C90  1  0.34934015  0.72210549  0.15870663  1  0  -0.101967  0  3.711023  0  0  -0.143072  0  3.976909  0  0  -0.144029  0  3.992139  0  -0.009382  0  -0.168015  -0.142277  0  3.96625  0
C  C91  1  0.65066619  0.27788529  0.84127521  1  0  -0.101739  0  3.710979  0  0  -0.142878  0  3.977049  0  0  -0.14383  0  3.992279  0  -0.009812  0  -0.167986  -0.142081  0  3.966381  0
C  C92  1  0.20163841  0.76002965  0.15612924  1  0  -0.168815  0  3.667472  0  0  -0.213526  0  3.923947  0  0  -0.215445  0  3.938439  0  -0.004746  0  -0.168301  -0.211913  0  3.913534  0
C  C93  1  0.79837197  0.23996922  0.84387384  1  0  -0.168986  0  3.667867  0  0  -0.213665  0  3.924512  0  0  -0.215587  0  3.938991  0  -0.004344  0  -0.168368  -0.212048  0  3.914091  0
C  C94  1  0.15745517  0.82086750  0.07335974  1  0  0.119625  0  3.57726  0  0  0.101042  0  3.812701  0  0  0.104169  0  3.829138  0  0.295342  0  0.000675  0.098927  0  3.801169  0
C  C95  1  0.84253623  0.17913643  0.92664927  1  0  0.119582  0  3.577761  0  0  0.100918  0  3.813121  0  0  0.104045  0  3.829564  0  0.295553  0  0.000661  0.098803  0  3.801589  0
C  C96  1  0.90164578  0.75805030  0.04509623  1  0  0.224678  0  3.592775  0  0  0.211607  0  3.838602  0  0  0.216316  0  3.854635  0  0.299621  0  0.003445  0.207864  0  3.827906  0
C  C97  1  0.09834650  0.24194351  0.95490715  1  0  0.224491  0  3.593147  0  0  0.211304  0  3.839044  0  0  0.216011  0  3.855069  0  0.299838  0  0.00329  0.207566  0  3.828361  0
C  C98  1  0.76261474  0.81833187  0.04333824  1  0  -0.184314  0  3.632184  0  0  -0.227951  0  3.892897  0  0  -0.230268  0  3.906623  0  -0.016405  0  -0.156561  -0.226134  0  3.882682  0
C  C99  1  0.23737604  0.18165790  0.95664863  1  0  -0.184441  0  3.63232  0  0  -0.227979  0  3.892887  0  0  -0.230263  0  3.906613  0  -0.015971  0  -0.156555  -0.226222  0  3.882743  0
C  C100  1  0.28632538  0.13487877  0.04847355  1  0  0.044537  0  3.632105  0  0  -0.016844  0  3.900554  0  0  -0.012654  0  3.913083  0  0.274612  0  -0.07127  -0.019273  0  3.891621  0
C  C101  1  0.71368747  0.86510595  0.95150706  1  0  0.044052  0  3.631948  0  0  -0.017421  0  3.900805  0  0  -0.013191  0  3.913289  0  0.274223  0  -0.071512  -0.019899  0  3.89193  0
C  C102  1  0.90287371  0.63532272  0.93492312  1  0  -0.353097  0  3.671144  0  0  -0.43877  0  3.917938  0  0  -0.441658  0  3.927273  0  -0.082667  0  -0.25072  -0.436243  0  3.911985  0
C  C103  1  0.09713532  0.36468222  0.06507966  1  0  -0.353122  0  3.671337  0  0  -0.438775  0  3.918127  0  0  -0.441658  0  3.927455  0  -0.082593  0  -0.250684  -0.436252  0  3.912183  0
C  C104  1  0.72926575  0.45990629  0.35671054  1  0  0.111398  0  3.574801  0  0  0.092601  0  3.816207  0  0  0.095556  0  3.832396  0  0.310211  0  0.004321  0.090407  0  3.805278  0
C  C105  1  0.27073436  0.54010169  0.64329359  1  0  0.111239  0  3.574809  0  0  0.092608  0  3.816009  0  0  0.095566  0  3.832196  0  0.310257  0  0.004336  0.090418  0  3.805078  0
C  C106  1  0.57597364  0.48043202  0.33108533  1  0  -0.160017  0  3.660341  0  0  -0.205584  0  3.922113  0  0  -0.207408  0  3.936623  0  -0.039193  0  -0.164029  -0.203903  0  3.911054  0
C  C107  1  0.42402868  0.51958607  0.66892410  1  0  -0.159913  0  3.660133  0  0  -0.205609  0  3.922103  0  0  -0.207453  0  3.936635  0  -0.039303  0  -0.164045  -0.203924  0  3.911036  0
C  C108  1  0.52621854  0.45127181  0.20758683  1  0  -0.100886  0  3.700122  0  0  -0.141303  0  3.964885  0  0  -0.14236  0  3.980391  0  -0.005528  0  -0.167153  -0.140202  0  3.953852  0
C  C109  1  0.47377801  0.54873212  0.79241840  1  0  -0.100577  0  3.699941  0  0  -0.141104  0  3.964869  0  0  -0.142164  0  3.98039  0  -0.005446  0  -0.167044  -0.139998  0  3.953827  0
C  C110  1  0.61465502  0.54018058  0.17626715  1  0  -0.108907  0  3.714733  0  0  -0.151408  0  3.982396  0  0  -0.152503  0  3.997578  0  -0.049526  0  -0.169071  -0.150513  0  3.971754  0
C  C111  1  0.38534630  0.45981122  0.82373002  1  0  -0.109092  0  3.714677  0  0  -0.15152  0  3.982377  0  0  -0.152613  0  3.997556  0  -0.049255  0  -0.169088  -0.150624  0  3.971732  0
C  C112  1  0.76768947  0.52192244  0.20178158  1  0  -0.155951  0  3.681437  0  0  -0.201676  0  3.946756  0  0  -0.203189  0  3.960938  0  -0.029981  0  -0.166508  -0.200374  0  3.93675  0
C  C113  1  0.23231129  0.47807339  0.79821543  1  0  -0.156035  0  3.681314  0  0  -0.201772  0  3.946641  0  0  -0.203284  0  3.960816  0  -0.030443  0  -0.166558  -0.200472  0  3.93664  0
C  C114  1  0.81951019  0.54963026  0.32502391  1  0  0.111564  0  3.571059  0  0  0.088924  0  3.813601  0  0  0.09203  0  3.829966  0  0.267632  0  0.003926  0.086943  0  3.802048  0
C  C115  1  0.18049036  0.45037265  0.67497852  1  0  0.111726  0  3.571216  0  0  0.089069  0  3.813734  0  0  0.092184  0  3.8301  0  0.267758  0  0.003901  0.087089  0  3.802178  0
C  C116  1  0.07083598  0.61972158  0.33830384  1  0  0.216777  0  3.594485  0  0  0.199308  0  3.84593  0  0  0.203607  0  3.863059  0  0.327195  0  8.3e-05  0.195949  0  3.834616  0
C  C117  1  0.92916263  0.38028234  0.66169496  1  0  0.216823  0  3.594416  0  0  0.199366  0  3.845867  0  0  0.203661  0  3.862996  0  0.327211  0  0.00011  0.196007  0  3.834555  0
C  C118  1  0.21732726  0.58472649  0.37089565  1  0  -0.191233  0  3.631138  0  0  -0.231468  0  3.886376  0  0  -0.234223  0  3.900964  0  -0.00144  0  -0.160692  -0.2293  0  3.875617  0
C  C119  1  0.78267088  0.41527339  0.62910168  1  0  -0.191311  0  3.631287  0  0  -0.23159  0  3.886561  0  0  -0.234336  0  3.901131  0  -0.001115  0  -0.160738  -0.229416  0  3.875795  0
C  C120  1  0.72618841  0.38230316  0.50517915  1  0  0.05303  0  3.621817  0  0  -0.006193  0  3.885372  0  0  -0.001887  0  3.897369  0  0.286322  0  -0.071676  -0.008895  0  3.877174  0
C  C121  1  0.27381752  0.61770178  0.49482098  1  0  0.053037  0  3.621692  0  0  -0.00615  0  3.885244  0  0  -0.001851  0  3.897249  0  0.286314  0  -0.071696  -0.008849  0  3.877043  0
C  C122  1  0.05425134  0.76877033  0.40395686  1  0  -0.351848  0  3.662728  0  0  -0.432642  0  3.901638  0  0  -0.435783  0  3.911065  0  -0.123077  0  -0.247895  -0.430155  0  3.895302  0
C  C123  1  0.94574680  0.23122955  0.59604047  1  0  -0.351652  0  3.662624  0  0  -0.432486  0  3.901536  0  0  -0.435626  0  3.910957  0  -0.123292  0  -0.247823  -0.429997  0  3.895198  0
N  N124  1  0.21642833  0.00066754  0.01940275  1  0  -0.426887  0  3.258078  0  0  -0.354552  0  3.507118  0  0  -0.371859  0  3.516516  0  -1.104678  0  -0.486776  -0.342567  0  3.500829  0
N  N125  1  0.78354377  0.99934752  0.98061650  1  0  -0.426669  0  3.258147  0  0  -0.354371  0  3.507057  0  0  -0.371699  0  3.516465  0  -1.104904  0  -0.486542  -0.342382  0  3.500778  0
N  N126  1  0.01726206  0.86477825  0.07627323  1  0  -0.482033  0  3.152892  0  0  -0.411063  0  3.389856  0  0  -0.429514  0  3.398442  0  -1.073582  0  -0.48711  -0.397918  0  3.383482  0
N  N127  1  0.98273049  0.13522669  0.92376013  1  0  -0.481798  0  3.153155  0  0  -0.41077  0  3.390115  0  0  -0.429213  0  3.398697  0  -1.073968  0  -0.486983  -0.397627  0  3.383745  0
N  N128  1  0.78106758  0.48529796  0.47484449  1  0  -0.442252  0  3.215027  0  0  -0.371786  0  3.461396  0  0  -0.389146  0  3.470121  0  -1.108748  0  -0.488346  -0.359771  0  3.455561  0
N  N129  1  0.21893630  0.51470698  0.52515685  1  0  -0.44232  0  3.21482  0  0  -0.371856  0  3.461121  0  0  -0.389197  0  3.469807  0  -1.108519  0  -0.488358  -0.359843  0  3.455289  0
N  N130  1  0.96657393  0.52797376  0.34883362  1  0  -0.457593  0  3.170955  0  0  -0.388134  0  3.412406  0  0  -0.405102  0  3.421483  0  -1.072016  0  -0.479298  -0.376108  0  3.40586  0
N  N131  1  0.03342927  0.47203421  0.65117167  1  0  -0.457616  0  3.171041  0  0  -0.388143  0  3.412474  0  0  -0.405121  0  3.421572  0  -1.072183  0  -0.479217  -0.376124  0  3.405934  0
O  O132  1  0.06309166  0.03936948  0.30362619  1  0  -0.753849  0  1.336517  0  0  -0.761151  0  1.571587  0  0  -0.786052  0  1.560529  0  -0.865234  0  -0.549585  -0.744555  0  1.578807  0
O  O133  1  0.93691602  0.96064153  0.69639192  1  0  -0.754058  0  1.336563  0  0  -0.761347  0  1.571635  0  0  -0.786267  0  1.560573  0  -0.865363  0  -0.54969  -0.744743  0  1.57886  0
O  O134  1  0.23403097  0.25742935  0.33984920  1  0  -0.779408  0  1.301171  0  0  -0.788413  0  1.538362  0  0  -0.812454  0  1.525931  0  -0.88435  0  -0.563729  -0.772588  0  1.546893  0
O  O135  1  0.76598291  0.74255536  0.66016507  1  0  -0.779493  0  1.301089  0  0  -0.788519  0  1.53831  0  0  -0.812582  0  1.525872  0  -0.884345  0  -0.563741  -0.772683  0  1.546845  0
O  O136  1  0.97942208  0.28900584  0.38843751  1  0  -0.829859  0  1.582787  0  0  -0.825639  0  1.892751  0  0  -0.857601  0  1.880878  0  -0.931541  0  -0.551336  -0.804395  0  1.9005  0
O  O137  1  0.02059408  0.71100719  0.61156530  1  0  -0.829926  0  1.582862  0  0  -0.825743  0  1.892921  0  0  -0.857692  0  1.880987  0  -0.931585  0  -0.55139  -0.804485  0  1.900668  0
O  O138  1  0.00522666  0.16759311  0.16987963  1  0  -0.861614  0  1.48578  0  0  -0.857429  0  1.786736  0  0  -0.88865  0  1.773299  0  -0.962149  0  -0.567152  -0.836496  0  1.795588  0
O  O139  1  0.99479045  0.83240172  0.83011847  1  0  -0.861377  0  1.485068  0  0  -0.857213  0  1.785808  0  0  -0.888421  0  1.772384  0  -0.962267  0  -0.567026  -0.836284  0  1.794644  0
