# generated using pymatgen
data_NiH9C6S(NO2)3
_symmetry_space_group_name_H-M   'P 1'
_cell_length_a   8.62203910
_cell_length_b   8.23829444
_cell_length_c   8.47539751
_cell_angle_alpha   102.28330045
_cell_angle_beta   98.47024146
_cell_angle_gamma   108.45846996
_symmetry_Int_Tables_number   1
_chemical_formula_structural   NiH9C6S(NO2)3
_chemical_formula_sum   'Ni2 H18 C12 S2 N6 O12'
_cell_volume   542.80047610
_cell_formula_units_Z   2
loop_
 _symmetry_equiv_pos_site_id
 _symmetry_equiv_pos_as_xyz
  1  'x, y, z'
loop_
 _atom_site_type_symbol
 _atom_site_label
 _atom_site_symmetry_multiplicity
 _atom_site_fract_x
 _atom_site_fract_y
 _atom_site_fract_z
 _atom_site_occupancy
 _atom_site_hle17_bader_spin_density
 _atom_site_hle17_ddec_charge
 _atom_site_hle17_ddec_spin_density
 _atom_site_hle17_ddec_sum_bond_order
 _atom_site_hle17_magmom
 _atom_site_hse06_10hf_bader_spin_density
 _atom_site_hse06_10hf_ddec_charge
 _atom_site_hse06_10hf_ddec_spin_density
 _atom_site_hse06_10hf_ddec_sum_bond_order
 _atom_site_hse06_10hf_magmom
 _atom_site_hse06_bader_spin_density
 _atom_site_hse06_ddec_charge
 _atom_site_hse06_ddec_spin_density
 _atom_site_hse06_ddec_sum_bond_order
 _atom_site_hse06_magmom
 _atom_site_pbe_bader_spin_density
 _atom_site_pbe_cm5_charge
 _atom_site_pbe_ddec_charge
 _atom_site_pbe_ddec_spin_density
 _atom_site_pbe_ddec_sum_bond_order
 _atom_site_pbe_magmom
Ni  Ni0  1  0.79343853  0.79396959  0.72618504  1  0  0.627429  0  2.305766  0  0  0.583817  0  2.795298  0  0  0.657747  0  2.715618  0  0  0.610878  0.547592  0  2.842075  0
Ni  Ni1  1  0.20656431  0.20602140  0.27381114  1  0  0.627371  0  2.305741  0  0  0.583771  0  2.795219  0  0  0.657684  0  2.715534  0  0  0.610846  0.5475  0  2.841996  0
H  H2  1  0.92404204  0.65179506  0.54105959  1  0  0.416176  0  0.879557  0  0  0.387715  0  0.951636  0  0  0.398582  0  0.936495  0  0  0.298831  0.380255  0  0.961017  0
H  H3  1  0.07596032  0.34820136  0.45894346  1  0  0.416258  0  0.87948  0  0  0.387789  0  0.951537  0  0  0.398653  0  0.936399  0  0  0.298865  0.380342  0  0.960919  0
H  H4  1  0.06005628  0.78607636  0.70666136  1  0  0.420986  0  0.879564  0  0  0.392836  0  0.948129  0  0  0.405374  0  0.930375  0  0  0.287651  0.384108  0  0.960483  0
H  H5  1  0.93994444  0.21391872  0.29334000  1  0  0.420984  0  0.879541  0  0  0.392839  0  0.948129  0  0  0.405379  0  0.930369  0  0  0.287644  0.384111  0  0.96048  0
H  H6  1  0.08736197  0.64430480  0.84793862  1  0  0.375002  0  0.940368  0  0  0.332746  0  1.035134  0  0  0.342673  0  1.020783  0  0  0.280468  0.325818  0  1.045194  0
H  H7  1  0.91263311  0.35569433  0.15206268  1  0  0.375006  0  0.940307  0  0  0.332754  0  1.035108  0  0  0.342681  0  1.020756  0  0  0.280488  0.325826  0  1.045167  0
H  H8  1  0.26712588  0.78915284  0.90207574  1  0  0.437987  0  0.848295  0  0  0.410644  0  0.905069  0  0  0.422741  0  0.887475  0  0  0.296081  0.402086  0  0.917457  0
H  H9  1  0.73287133  0.21084222  0.09792273  1  0  0.437948  0  0.84834  0  0  0.410611  0  0.905111  0  0  0.422707  0  0.887519  0  0  0.29607  0.40205  0  0.917504  0
H  H10  1  0.21330321  0.41875998  0.92402062  1  0  0.100794  0  0.949151  0  0  0.106964  0  1.011195  0  0  0.110288  0  1.010175  0  0  0.124872  0.104215  0  1.012539  0
H  H11  1  0.78669298  0.58124568  0.07597385  1  0  0.100792  0  0.949197  0  0  0.10696  0  1.01124  0  0  0.110287  0  1.010224  0  0  0.12488  0.104212  0  1.012587  0
H  H12  1  0.12075735  0.08423966  0.88478467  1  0  0.115844  0  0.933311  0  0  0.120914  0  0.998555  0  0  0.12451  0  0.99395  0  0  0.134039  0.11759  0  1.00328  0
H  H13  1  0.87924936  0.91576588  0.11520784  1  0  0.115764  0  0.933316  0  0  0.120854  0  0.998549  0  0  0.124448  0  0.993949  0  0  0.134039  0.117528  0  1.003279  0
H  H14  1  0.64415795  0.02291934  0.62863812  1  0  0.136895  0  0.948025  0  0  0.138942  0  1.014256  0  0  0.143237  0  1.009301  0  0  0.136138  0.135334  0  1.018726  0
H  H15  1  0.35583739  0.97707711  0.37136269  1  0  0.136883  0  0.948041  0  0  0.138918  0  1.014291  0  0  0.143224  0  1.009319  0  0  0.136129  0.13531  0  1.018758  0
H  H16  1  0.54427018  0.43279551  0.86267748  1  0  0.104432  0  0.965602  0  0  0.117512  0  1.028312  0  0  0.118712  0  1.028435  0  0  0.108941  0.116825  0  1.027963  0
H  H17  1  0.45573002  0.56721165  0.13733087  1  0  0.104423  0  0.965654  0  0  0.117526  0  1.028315  0  0  0.118725  0  1.028436  0  0  0.108941  0.116831  0  1.027972  0
H  H18  1  0.41594856  0.43815204  0.68085524  1  0  0.107632  0  0.922139  0  0  0.118699  0  0.987857  0  0  0.120106  0  0.986363  0  0  0.112558  0.117579  0  0.989156  0
H  H19  1  0.58405095  0.56184972  0.31914724  1  0  0.107721  0  0.922082  0  0  0.118746  0  0.987836  0  0  0.120154  0  0.986338  0  0  0.112585  0.117621  0  0.989139  0
C  C20  1  0.08712080  0.32845182  0.85577645  1  0  0.100383  0  3.634659  0  0  0.074919  0  3.890927  0  0  0.075796  0  3.902092  0  0  0.067223  0.073227  0  3.886456  0
C  C21  1  0.91287916  0.67155114  0.14421808  1  0  0.100307  0  3.634723  0  0  0.074844  0  3.891021  0  0  0.075715  0  3.902193  0  0  0.067177  0.073147  0  3.886563  0
C  C22  1  0.03651367  0.14538925  0.83548786  1  0  0.091697  0  3.581245  0  0  0.057107  0  3.836546  0  0  0.067813  0  3.845502  0  0  0.070183  0.04808  0  3.83469  0
C  C23  1  0.96348932  0.85461233  0.16450450  1  0  0.091863  0  3.580885  0  0  0.057216  0  3.836264  0  0  0.067926  0  3.845223  0  0  0.070179  0.048184  0  3.834418  0
C  C24  1  0.77172912  0.11135473  0.69260166  1  0  0.09289  0  3.571236  0  0  0.054732  0  3.813227  0  0  0.06557  0  3.82244  0  0  0.070592  0.04606  0  3.810722  0
C  C25  1  0.22827180  0.88864426  0.30739460  1  0  0.092829  0  3.571331  0  0  0.054673  0  3.813371  0  0  0.065501  0  3.822559  0  0  0.070561  0.045999  0  3.810866  0
C  C26  1  0.83018947  0.29293710  0.70594362  1  0  0.022892  0  3.669818  0  0  0.031007  0  3.929225  0  0  0.029478  0  3.942326  0  0  0.123327  0.030514  0  3.92297  0
C  C27  1  0.16980933  0.70706597  0.29405664  1  0  0.022918  0  3.669732  0  0  0.030972  0  3.929224  0  0  0.029481  0  3.942276  0  0  0.123302  0.030476  0  3.92297  0
C  C28  1  0.53551649  0.51157782  0.77383596  1  0  -0.131565  0  3.72511  0  0  -0.187453  0  3.987144  0  0  -0.187195  0  3.997676  0  0  -0.084008  -0.187365  0  3.979992  0
C  C29  1  0.46449069  0.48842914  0.22616280  1  0  -0.1317  0  3.725099  0  0  -0.187515  0  3.987029  0  0  -0.187262  0  3.997559  0  0  -0.084052  -0.187413  0  3.97986  0
C  C30  1  0.52949039  0.68742096  0.86378725  1  0  0.673298  0  3.815999  0  0  0.631644  0  4.119546  0  0  0.668567  0  4.113276  0  0  0.215448  0.605725  0  4.123447  0
C  C31  1  0.47049791  0.31258232  0.13622090  1  0  0.673459  0  3.815622  0  0  0.631731  0  4.119259  0  0  0.668657  0  4.112984  0  0  0.215467  0.605806  0  4.123158  0
S  S32  1  0.70035410  0.37937646  0.58462170  1  0  1.163921  0  5.500889  0  0  1.074022  0  6.001688  0  0  1.120009  0  5.99109  0  0  0.555724  1.043192  0  6.007839  0
S  S33  1  0.29963564  0.62061738  0.41537893  1  0  1.16401  0  5.500977  0  0  1.074088  0  6.001779  0  0  1.120049  0  5.99119  0  0  0.555727  1.043259  0  6.00793  0
N  N34  1  0.67988895  0.54791946  0.69592767  1  0  -0.596554  0  3.244877  0  0  -0.551485  0  3.604855  0  0  -0.589266  0  3.610767  0  0  -0.455942  -0.528211  0  3.600521  0
N  N35  1  0.32011616  0.45208495  0.30407736  1  0  -0.596605  0  3.244768  0  0  -0.551526  0  3.604721  0  0  -0.589297  0  3.610629  0  0  -0.455918  -0.528244  0  3.600358  0
N  N36  1  0.98488882  0.40239878  0.79057923  1  0  -0.245049  0  3.138052  0  0  -0.20062  0  3.387549  0  0  -0.202738  0  3.398284  0  0  -0.27977  -0.200537  0  3.38257  0
N  N37  1  0.01510742  0.59760025  0.20941633  1  0  -0.245012  0  3.137993  0  0  -0.200549  0  3.387482  0  0  -0.202676  0  3.398203  0  0  -0.279713  -0.20047  0  3.382513  0
N  N38  1  0.87783851  0.03907330  0.75619038  1  0  -0.158231  0  3.370162  0  0  -0.098632  0  3.653496  0  0  -0.120733  0  3.664314  0  0  -0.321037  -0.087788  0  3.648832  0
N  N39  1  0.12216847  0.96092967  0.24380875  1  0  -0.158208  0  3.369989  0  0  -0.098576  0  3.653343  0  0  -0.120681  0  3.664157  0  0  -0.321031  -0.087723  0  3.648666  0
O  O40  1  0.64270095  0.82943137  0.85054065  1  0  -0.519033  0  2.09882  0  0  -0.487436  0  2.388115  0  0  -0.532429  0  2.377952  0  0  -0.299515  -0.457944  0  2.393984  0
O  O41  1  0.35730532  0.17057296  0.14945982  1  0  -0.518902  0  2.099003  0  0  -0.487244  0  2.388269  0  0  -0.532241  0  2.378129  0  0  -0.299398  -0.457755  0  2.394133  0
O  O42  1  0.42298388  0.69547772  0.94696462  1  0  -0.590848  0  1.958388  0  0  -0.548309  0  2.174429  0  0  -0.576547  0  2.165524  0  0  -0.302861  -0.526502  0  2.178975  0
O  O43  1  0.57702517  0.30452783  0.05303061  1  0  -0.591082  0  1.957815  0  0  -0.548511  0  2.173855  0  0  -0.576757  0  2.164955  0  0  -0.30296  -0.5267  0  2.178403  0
O  O44  1  0.54132573  0.23170424  0.52019204  1  0  -0.580182  0  1.974836  0  0  -0.534563  0  2.221651  0  0  -0.557645  0  2.208911  0  0  -0.299839  -0.51813  0  2.229447  0
O  O45  1  0.45867030  0.76829767  0.47981820  1  0  -0.580199  0  1.974704  0  0  -0.534589  0  2.221515  0  0  -0.557672  0  2.208787  0  0  -0.299827  -0.518163  0  2.229319  0
O  O46  1  0.80066833  0.43516579  0.46726636  1  0  -0.60704  0  2.017205  0  0  -0.549696  0  2.260123  0  0  -0.572324  0  2.248843  0  0  -0.307729  -0.533977  0  2.267315  0
O  O47  1  0.19932701  0.56483064  0.53273327  1  0  -0.607136  0  2.017409  0  0  -0.54973  0  2.260294  0  0  -0.572341  0  2.249004  0  0  -0.30775  -0.534001  0  2.267444  0
O  O48  1  0.96490999  0.77745584  0.61114475  1  0  -0.743112  0  2.005759  0  0  -0.705911  0  2.242143  0  0  -0.741528  0  2.207581  0  0  -0.560551  -0.682146  0  2.263579  0
O  O49  1  0.03509515  0.22254183  0.38885425  1  0  -0.74314  0  2.005696  0  0  -0.705955  0  2.242064  0  0  -0.741571  0  2.2075  0  0  -0.560537  -0.682199  0  2.263478  0
O  O50  1  0.14721672  0.77540002  0.87372247  1  0  -0.816615  0  1.898532  0  0  -0.770114  0  2.086474  0  0  -0.790795  0  2.053721  0  0  -0.581685  -0.755578  0  2.109382  0
O  O51  1  0.85277980  0.22459650  0.12628326  1  0  -0.816583  0  1.89851  0  0  -0.770098  0  2.08648  0  0  -0.790778  0  2.053723  0  0  -0.58173  -0.755558  0  2.109392  0
