# generated using pymatgen
data_MnH2(CO2)2
_symmetry_space_group_name_H-M   'P 1'
_cell_length_a   10.03887099
_cell_length_b   11.67198374
_cell_length_c   14.70980000
_cell_angle_alpha   91.51062188
_cell_angle_beta   90.00000000
_cell_angle_gamma   90.00000000
_symmetry_Int_Tables_number   1
_chemical_formula_structural   MnH2(CO2)2
_chemical_formula_sum   'Mn12 H24 C24 O48'
_cell_volume   1723.00029550
_cell_formula_units_Z   12
loop_
 _symmetry_equiv_pos_site_id
 _symmetry_equiv_pos_as_xyz
  1  'x, y, z'
loop_
 _atom_site_type_symbol
 _atom_site_label
 _atom_site_symmetry_multiplicity
 _atom_site_fract_x
 _atom_site_fract_y
 _atom_site_fract_z
 _atom_site_occupancy
 _atom_site_hle17_ddec_charge
 _atom_site_hle17_ddec_spin_density
 _atom_site_hle17_ddec_sum_bond_order
 _atom_site_hle17_magmom
 _atom_site_hse06_10hf_ddec_charge
 _atom_site_hse06_10hf_ddec_spin_density
 _atom_site_hse06_10hf_ddec_sum_bond_order
 _atom_site_hse06_10hf_magmom
 _atom_site_hse06_ddec_charge
 _atom_site_hse06_ddec_spin_density
 _atom_site_hse06_ddec_sum_bond_order
 _atom_site_hse06_magmom
 _atom_site_pbe_bader_charge
 _atom_site_pbe_bader_spin_density
 _atom_site_pbe_cm5_charge
 _atom_site_pbe_ddec_charge
 _atom_site_pbe_ddec_spin_density
 _atom_site_pbe_ddec_sum_bond_order
 _atom_site_pbe_magmom
Mn  Mn0  1  0.08279915  0.24072742  0.86853267  1  1.219664  -4.803697  1.75246  -4.691  1.053097  -4.715179  2.253088  -4.556  1.115877  -4.760327  2.178116  -4.613  1.518913  -4.566194  0.605726  1.002727  -4.668882  2.308385  -4.498
Mn  Mn1  1  0.58844466  0.25451821  0.63589208  1  0.974374  1.009362  2.424055  0.997  0.830734  0.99416  3.007104  0.967  0.904467  0.986845  2.912085  0.963  1.411208  0.962631  0.560009  0.789732  0.985007  3.063492  0.955
Mn  Mn2  1  0.91440561  0.75809609  0.13075951  1  1.22102  4.808181  1.751935  4.691  1.055054  4.709962  2.251811  4.556  1.117439  4.761425  2.17728  4.613  1.52114  4.565132  0.606568  1.005315  4.659315  2.30681  4.497
Mn  Mn3  1  0.41498093  0.74167672  0.37071843  1  1.222322  -4.801947  1.749099  -4.693  1.055815  -4.716286  2.248466  -4.561  1.117972  -4.758702  2.174443  -4.616  1.520177  -4.576934  0.606726  1.006696  -4.67498  2.302523  -4.507
Mn  Mn4  1  0.90519342  0.26202769  0.68122312  1  1.197006  4.798586  1.795798  4.679  1.041693  4.694582  2.295478  4.54  1.103758  4.751474  2.222344  4.603  1.517934  4.53663  0.604226  0.990055  4.633637  2.350889  4.473
Mn  Mn5  1  0.40299950  0.23732150  0.81692707  1  1.19568  -4.793446  1.78618  -4.681  1.042928  -4.705777  2.27937  -4.547  1.103107  -4.752677  2.208148  -4.606  1.518619  -4.553201  0.606902  0.994855  -4.656621  2.332444  -4.486
Mn  Mn6  1  0.09670510  0.73916385  0.31975966  1  1.202515  4.798291  1.779951  4.684  1.04629  4.699541  2.276648  4.549  1.107259  4.752735  2.204094  4.608  1.523405  4.556344  0.599828  0.998373  4.648638  2.329908  4.49
Mn  Mn7  1  0.59658203  0.76265646  0.18216083  1  1.200805  -4.800129  1.78239  -4.685  1.044797  -4.711476  2.278427  -4.55  1.105652  -4.757945  2.206315  -4.608  1.522739  -4.558043  0.598729  0.997014  -4.665732  2.331338  -4.492
Mn  Mn8  1  0.99893903  0.50153381  0.00011298  1  1.223855  -4.819267  1.727415  -4.695  1.066061  -4.728283  2.232466  -4.559  1.126512  -4.773812  2.157333  -4.616  1.536283  -4.567598  0.596174  1.01845  -4.681948  2.287685  -4.5
Mn  Mn9  1  0.50180942  0.00224376  0.50058467  1  1.220528  -4.808109  1.739101  -4.692  1.065404  -4.714855  2.243376  -4.554  1.124974  -4.761734  2.169148  -4.613  1.537064  -4.556346  0.601343  1.01837  -4.663151  2.298799  -4.491
Mn  Mn10  1  0.00021118  0.00105246  0.99913485  1  1.2258  4.825269  1.748346  4.695  1.068674  4.723244  2.255533  4.557  1.128863  4.775532  2.179449  4.615  1.539952  4.564279  0.600855  1.021696  4.672873  2.311231  4.499
Mn  Mn11  1  0.50017676  0.49711915  0.50024294  1  1.224038  -4.809123  1.760003  -4.692  1.067812  -4.716511  2.267472  -4.555  1.128052  -4.762386  2.191658  -4.613  1.53869  -4.558096  0.601966  1.018945  -4.668002  2.324412  -4.495
H  H12  1  0.26877425  0.12880351  0.62757093  1  0.026277  0.000557  0.943298  0.0  0.033128  0.000525  1.014846  0.0  0.032896  0.000577  1.010346  0.0  0.120816  -0.000141  0.122703  0.033002  0.00046  1.018473  0.0
H  H13  1  0.76754049  0.36919582  0.86529739  1  0.026132  -0.001292  0.939545  -0.002  0.033581  -0.001511  1.01132  -0.002  0.031609  -0.001077  1.007818  -0.001  0.135308  -0.003873  0.124246  0.035406  -0.002045  1.013672  -0.002
H  H14  1  0.73146871  0.87071507  0.37273444  1  0.023477  0.002985  0.941984  0.002  0.029565  0.003569  1.015214  0.002  0.028975  0.00306  1.01113  0.002  0.134061  0.004895  0.121067  0.030008  0.004077  1.018182  0.002
H  H15  1  0.23126903  0.63086698  0.12872899  1  0.023096  -0.002191  0.941955  -0.002  0.029767  -0.002802  1.014771  -0.002  0.029419  -0.00222  1.010495  -0.002  0.143906  -0.004998  0.120288  0.029936  -0.003421  1.018026  -0.002
H  H16  1  0.98017197  0.52859946  0.72074332  1  0.028524  -0.002545  0.888017  -0.002  0.039377  -0.003554  0.947641  -0.002  0.039617  -0.002828  0.942785  -0.002  0.11081  -0.0063  0.12593  0.038851  -0.004296  0.951712  -0.003
H  H17  1  0.47802188  0.98233129  0.77711072  1  0.031291  -0.000928  0.899231  -0.001  0.04246  -0.001814  0.960106  -0.001  0.041804  -0.00127  0.954522  -0.001  0.116088  -0.004086  0.126789  0.043056  -0.002291  0.964575  -0.002
H  H18  1  0.02109002  0.47233754  0.27836057  1  0.027627  -0.000405  0.889118  0.0  0.03863  -0.000336  0.949269  0.0  0.038832  -0.000364  0.944343  0.0  0.117413  0.000107  0.124857  0.038157  -0.000295  0.953365  0.0
H  H19  1  0.51851747  0.02883031  0.22236068  1  0.026047  -0.001493  0.889256  -0.002  0.036931  -0.002534  0.949667  -0.002  0.03745  -0.001788  0.944456  -0.002  0.114524  -0.006161  0.123998  0.036237  -0.003357  0.953911  -0.002
H  H20  1  0.40177028  0.43760043  0.96718172  1  0.02213  -0.001629  0.905622  -0.002  0.030947  -0.00261  0.972368  -0.002  0.031354  -0.001863  0.966432  -0.002  0.106435  -0.005948  0.121326  0.03035  -0.003128  0.977152  -0.002
H  H21  1  0.89653309  0.06589174  0.53901514  1  0.022642  -0.001917  0.911699  -0.001  0.032285  -0.002751  0.979199  -0.001  0.031893  -0.002075  0.972224  -0.001  0.099799  -0.004259  0.122097  0.032511  -0.003134  0.985048  -0.002
H  H22  1  0.59641966  0.56435474  0.03044174  1  0.023091  0.000169  0.904324  0.0  0.031635  3.2e-05  0.97143  0.0  0.032134  0.000154  0.965315  0.0  0.092301  -0.000267  0.121742  0.031114  0.000192  0.976261  0.0
H  H23  1  0.09923825  0.94163512  0.46914310  1  0.023161  -0.002446  0.901293  -0.002  0.032371  -0.003505  0.967  -0.002  0.032613  -0.002797  0.961388  -0.002  0.115203  -0.005872  0.122539  0.032093  -0.003983  0.971359  -0.002
H  H24  1  0.79362211  0.02410368  0.75762938  1  0.015147  -0.000302  0.903363  0.0  0.026521  -0.000287  0.966994  0.0  0.025762  -0.000269  0.962367  0.0  0.096655  -0.000327  0.119357  0.026639  -0.000308  0.971039  0.0
H  H25  1  0.29550733  0.45753199  0.73565532  1  0.014552  -0.001575  0.910597  -0.002  0.02554  -0.002089  0.976191  -0.001  0.023886  -0.001496  0.971354  -0.001  0.087988  -0.004597  0.118452  0.026894  -0.002581  0.979907  -0.002
H  H26  1  0.20600823  0.97543461  0.24070492  1  0.014003  0.002271  0.903138  0.002  0.025088  0.003273  0.966983  0.002  0.024466  0.002516  0.962607  0.002  0.067491  0.006467  0.11815  0.025348  0.004039  0.970402  0.003
H  H27  1  0.70767420  0.52648512  0.25977236  1  0.013875  -0.002146  0.904528  -0.002  0.024752  -0.003194  0.968942  -0.002  0.024328  -0.002419  0.964374  -0.002  0.07017  -0.00659  0.117265  0.024821  -0.003987  0.972578  -0.003
H  H28  1  0.82969888  0.30983224  0.07850585  1  0.025514  0.000438  0.900596  0.0  0.035734  0.000465  0.962215  0.0  0.035512  0.000492  0.957442  0.0  0.105824  -9e-05  0.124538  0.035626  0.000389  0.966115  0.0
H  H29  1  0.33837570  0.18485460  0.43314251  1  0.024245  -0.001019  0.916922  -0.001  0.034057  -0.002518  0.980908  -0.002  0.03236  -0.001942  0.976138  -0.001  0.110603  -0.004903  0.123972  0.035739  -0.002997  0.984381  -0.002
H  H30  1  0.17176932  0.69040198  0.92240049  1  0.025082  0.002085  0.899004  0.002  0.035685  0.002793  0.960116  0.002  0.035444  0.002239  0.95551  0.001  0.144658  0.004902  0.124976  0.035613  0.00339  0.963876  0.002
H  H31  1  0.67172095  0.80812726  0.57905823  1  0.023632  -0.00144  0.898207  -0.001  0.033665  -0.002403  0.960455  -0.002  0.033419  -0.001669  0.955664  -0.001  0.11384  -0.005788  0.123462  0.033665  -0.003134  0.96432  -0.002
H  H32  1  0.30226606  0.99059068  0.99428169  1  0.030349  -0.002079  0.905342  -0.002  0.038947  -0.002597  0.969476  -0.002  0.038815  -0.002083  0.964601  -0.001  0.117342  -0.004848  0.126412  0.038849  -0.00325  0.973357  -0.002
H  H33  1  0.78590909  0.49865069  0.50339466  1  0.028689  0.000759  0.917294  0.001  0.037889  0.000359  0.98176  0.0  0.035619  0.000175  0.97823  0.0  0.13262  0.000904  0.126894  0.039846  0.000606  0.984465  0.0
H  H34  1  0.69844906  0.00960068  0.00470803  1  0.028718  -0.000231  0.906195  0.0  0.036992  -3e-05  0.970978  0.0  0.036948  -8.5e-05  0.96598  0.0  0.129599  0.000211  0.12471  0.03685  -7.5e-05  0.974904  0.0
H  H35  1  0.19817368  0.48938255  0.49456641  1  0.02915  0.000262  0.904804  0.0  0.037869  1e-05  0.969251  0.0  0.0378  8.9e-05  0.964166  0.0  0.120941  -0.000389  0.125853  0.037748  2.3e-05  0.973143  0.0
C  C36  1  0.18609364  0.16461879  0.66872991  1  0.625985  0.001428  3.8133  0.0  0.553146  0.001561  4.112799  0.0  0.590117  0.001761  4.104366  0.0  1.537644  0.000799  0.177032  0.526796  0.001551  4.117925  0.0
C  C37  1  0.68272618  0.33498323  0.82537046  1  0.613311  -0.000128  3.798529  0.0  0.541716  -0.00321  4.092868  -0.002  0.580744  -0.003201  4.086473  -0.003  1.518669  -0.004181  0.1783  0.513671  -0.004362  4.096139  -0.003
C  C38  1  0.81403178  0.83416959  0.33177840  1  0.625837  0.00381  3.818537  0.004  0.55381  0.008211  4.11743  0.007  0.590698  0.006347  4.109459  0.006  1.524634  0.01037  0.175359  0.527773  0.009962  4.121898  0.008
C  C39  1  0.31385203  0.66760787  0.16958714  1  0.623463  -0.003725  3.824159  -0.004  0.550594  -0.00814  4.123545  -0.007  0.587468  -0.006189  4.115386  -0.006  1.515951  -0.010667  0.173788  0.524549  -0.010006  4.12826  -0.008
C  C40  1  0.99918208  0.48363946  0.78487239  1  0.615147  -0.002487  3.854346  -0.003  0.540264  -0.005592  4.162172  -0.005  0.576601  -0.004257  4.153535  -0.004  1.553214  -0.007633  0.176635  0.514163  -0.006701  4.167647  -0.006
C  C41  1  0.50516039  0.02326634  0.71274314  1  0.59048  -0.014527  3.83587  -0.014  0.513153  -0.015801  4.146039  -0.012  0.554956  -0.010551  4.134002  -0.008  1.53068  -0.021449  0.168242  0.482244  -0.020172  4.154786  -0.016
C  C42  1  0.00090847  0.51771835  0.21459312  1  0.61372  0.000146  3.857046  0.001  0.538181  0.001184  4.165942  0.002  0.574476  0.000325  4.157479  0.001  1.56319  0.00242  0.175478  0.512223  0.002194  4.171284  0.003
C  C43  1  0.49985601  0.98392541  0.28657384  1  0.615575  -0.008097  3.857452  -0.01  0.54016  -0.016664  4.166157  -0.016  0.576182  -0.012025  4.157746  -0.013  1.533859  -0.023224  0.176116  0.514654  -0.021525  4.171214  -0.02
C  C44  1  0.29379897  0.42150674  0.95729701  1  0.616787  -0.006162  3.850475  -0.008  0.546867  -0.014378  4.146305  -0.014  0.582617  -0.010125  4.139069  -0.011  1.553847  -0.020536  0.179691  0.521542  -0.01864  4.150661  -0.017
C  C45  1  0.78855581  0.08468514  0.54276385  1  0.598306  -0.012004  3.832046  -0.011  0.524874  -0.007476  4.132359  -0.006  0.566612  -0.003535  4.121005  -0.002  1.516139  -0.012641  0.171249  0.493228  -0.01154  4.141756  -0.009
C  C46  1  0.70456429  0.57845750  0.04112370  1  0.616778  -0.001893  3.848069  -0.002  0.546525  -0.004716  4.14445  -0.005  0.582272  -0.00355  4.137218  -0.004  1.563659  -0.005727  0.179911  0.521099  -0.005682  4.148838  -0.005
C  C47  1  0.20701033  0.92488321  0.45906991  1  0.619086  -0.004063  3.845858  -0.005  0.548458  -0.007797  4.14249  -0.007  0.584331  -0.005862  4.135109  -0.006  1.550487  -0.011456  0.181097  0.523071  -0.009971  4.146722  -0.009
C  C48  1  0.86691721  0.05013401  0.81069058  1  0.616756  0.001895  3.8643  0.002  0.546944  0.004569  4.162855  0.004  0.583017  0.003406  4.155409  0.003  1.548266  0.005799  0.175125  0.521359  0.005681  4.167362  0.005
C  C49  1  0.37473238  0.43960593  0.68476844  1  0.59845  -0.005236  3.850837  -0.006  0.525294  -0.012135  4.154462  -0.01  0.566166  -0.009377  4.144436  -0.008  1.534023  -0.015036  0.167718  0.495483  -0.014227  4.16134  -0.012
C  C50  1  0.13161440  0.94987223  0.18819125  1  0.616886  0.005334  3.867544  0.007  0.547851  0.012898  4.164779  0.013  0.583472  0.00925  4.157908  0.01  1.587395  0.017945  0.174661  0.522887  0.016485  4.168448  0.015
C  C51  1  0.63271358  0.55092305  0.31221424  1  0.61667  -0.005401  3.866652  -0.007  0.546686  -0.013023  4.164875  -0.013  0.582352  -0.009376  4.157802  -0.01  1.585096  -0.018105  0.17481  0.521611  -0.016549  4.168853  -0.016
C  C52  1  0.89269102  0.25712879  0.03219000  1  0.633336  0.001183  3.827918  0.001  0.558281  8.2e-05  4.129831  0.0  0.59555  0.000573  4.120665  0.0  1.529122  -0.000286  0.181039  0.531774  -0.000233  4.135632  0.0
C  C53  1  0.39886059  0.24331400  0.47637274  1  0.610916  -0.006754  3.811763  -0.005  0.534358  -0.013446  4.117391  -0.011  0.576924  -0.010367  4.105671  -0.009  1.491793  -0.017849  0.172181  0.502868  -0.016661  4.125275  -0.013
C  C54  1  0.10683373  0.74353738  0.96710060  1  0.635056  0.005711  3.825553  0.006  0.559822  0.010052  4.128166  0.009  0.59669  0.007808  4.119325  0.008  1.498524  0.013226  0.182419  0.533901  0.012252  4.133468  0.011
C  C55  1  0.60749760  0.75615401  0.53294869  1  0.632967  -0.00717  3.830353  -0.009  0.558861  -0.015533  4.132736  -0.015  0.595313  -0.011149  4.124128  -0.012  1.532087  -0.021954  0.180344  0.53292  -0.019874  4.137962  -0.019
C  C56  1  0.28748751  0.06321603  0.94873428  1  0.632437  -0.005026  3.816882  -0.005  0.557967  -0.009657  4.117326  -0.009  0.594877  -0.00734  4.109064  -0.007  1.552268  -0.013121  0.183895  0.531879  -0.012131  4.12191  -0.011
C  C57  1  0.77742208  0.42670304  0.55016836  1  0.612678  0.004312  3.804338  0.004  0.539863  0.006496  4.100096  0.006  0.57871  0.004629  4.094005  0.004  1.525151  0.00774  0.180413  0.511211  0.006978  4.104101  0.006
C  C58  1  0.71308118  0.93641054  0.04973783  1  0.627526  -0.001241  3.822869  0.0  0.553821  -0.000427  4.123505  0.001  0.59063  -0.000938  4.115351  0.0  1.536433  0.000787  0.180861  0.527869  -6.2e-05  4.127986  0.001
C  C59  1  0.21297315  0.56350454  0.45049901  1  0.627057  0.001125  3.824862  0.0  0.553276  4.6e-05  4.12571  -0.001  0.590087  0.00076  4.117548  0.0  1.543776  -0.001494  0.181975  0.527312  -0.000581  4.130219  -0.001
O  O60  1  0.21085638  0.18913728  0.75272795  1  -0.667648  -0.054968  2.189499  -0.032  -0.584636  -0.065958  2.478429  -0.037  -0.621475  -0.061064  2.4634  -0.033  -1.227473  -0.093679  -0.303964  -0.556742  -0.070179  2.487789  -0.041
O  O61  1  0.70746003  0.30999508  0.74101861  1  -0.61335  0.023803  2.264635  0.007  -0.530679  0.028212  2.557568  0.007  -0.574451  0.028779  2.54509  0.009  -1.186228  0.038617  -0.295277  -0.498752  0.029045  2.563476  0.008
O  O62  1  0.78957684  0.81009933  0.24771292  1  -0.667001  0.003595  2.184869  0.004  -0.584101  0.004978  2.471844  0.006  -0.621192  0.003886  2.457351  0.005  -1.225365  0.00913  -0.303974  -0.55623  0.006243  2.480859  0.008
O  O63  1  0.28961922  0.69150671  0.25367487  1  -0.667338  -0.003791  2.189561  -0.004  -0.583575  -0.005302  2.476545  -0.006  -0.620767  -0.004093  2.462182  -0.005  -1.230101  -0.009801  -0.303329  -0.555653  -0.00665  2.485441  -0.008
O  O64  1  0.07558021  0.17752425  0.62978655  1  -0.595223  0.029988  2.05181  0.016  -0.53295  0.032436  2.319518  0.013  -0.564438  0.030098  2.303248  0.011  -1.193048  0.05094  -0.305499  -0.509188  0.034428  2.330169  0.015
O  O65  1  0.57300866  0.32457693  0.86543001  1  -0.586129  -0.029291  2.06371  -0.017  -0.52342  -0.031526  2.327303  -0.014  -0.555726  -0.028585  2.312023  -0.011  -1.191047  -0.051795  -0.301269  -0.499373  -0.034158  2.337524  -0.016
O  O66  1  0.92394254  0.82027423  0.37130405  1  -0.594735  0.031933  2.050159  0.02  -0.532188  0.036657  2.315057  0.02  -0.563863  0.032863  2.299532  0.016  -1.194256  0.059682  -0.305843  -0.508803  0.040264  2.325147  0.023
O  O67  1  0.42353966  0.68184519  0.12984363  1  -0.593745  -0.031669  2.049195  -0.02  -0.531779  -0.036814  2.314878  -0.02  -0.563199  -0.032893  2.299345  -0.017  -1.191332  -0.060142  -0.305702  -0.508692  -0.040642  2.325123  -0.024
O  O68  1  0.00603056  0.37356764  0.77790839  1  -0.669523  0.00308  2.205948  0.0  -0.58867  0.002058  2.511068  -0.002  -0.624453  0.002607  2.492776  -0.001  -1.238366  0.001818  -0.308489  -0.561081  0.001277  2.522636  -0.003
O  O69  1  0.51868183  0.13341016  0.71938098  1  -0.615636  -0.02538  2.302779  -0.014  -0.534801  -0.039313  2.616109  -0.031  -0.575735  -0.035736  2.596864  -0.029  -1.215641  -0.054884  -0.303438  -0.505602  -0.041648  2.627716  -0.032
O  O70  1  0.99422535  0.62762904  0.22191066  1  -0.66473  0.05838  2.206957  0.034  -0.583558  0.069874  2.509766  0.039  -0.619362  0.064702  2.492589  0.035  -1.255562  0.10002  -0.305843  -0.556434  0.074446  2.520549  0.043
O  O71  1  0.49480166  0.87386730  0.28007036  1  -0.666417  -0.06084  2.206634  -0.036  -0.585395  -0.075887  2.50957  -0.046  -0.621159  -0.069182  2.492654  -0.04  -1.226776  -0.110165  -0.30659  -0.558436  -0.082052  2.520066  -0.051
O  O72  1  0.01195951  0.54162662  0.85711012  1  -0.5875  -0.025016  2.083852  -0.013  -0.527078  -0.030481  2.352686  -0.015  -0.557071  -0.027893  2.338218  -0.013  -1.198025  -0.04734  -0.294767  -0.505329  -0.032929  2.362577  -0.017
O  O73  1  0.51975665  0.96279826  0.64185801  1  -0.582177  -0.032762  2.093246  -0.022  -0.523699  -0.04043  2.365176  -0.026  -0.552384  -0.035263  2.348205  -0.021  -1.192049  -0.065543  -0.297829  -0.502605  -0.045323  2.377393  -0.031
O  O74  1  0.98650237  0.45991288  0.14228509  1  -0.591518  -0.023952  2.086133  -0.012  -0.53123  -0.026882  2.357072  -0.011  -0.561209  -0.025261  2.342288  -0.009  -1.197801  -0.041578  -0.296379  -0.509287  -0.028324  2.367115  -0.012
O  O75  1  0.48552472  0.04252855  0.35844308  1  -0.590252  -0.032523  2.085023  -0.021  -0.530221  -0.042455  2.355004  -0.027  -0.559832  -0.037337  2.339899  -0.023  -1.194759  -0.068011  -0.29634  -0.508588  -0.047649  2.365294  -0.032
O  O76  1  0.26386234  0.34463276  0.89605729  1  -0.663957  -0.060997  2.173276  -0.035  -0.583667  -0.077692  2.471991  -0.046  -0.619352  -0.070857  2.454345  -0.04  -1.235904  -0.113184  -0.303762  -0.55655  -0.084079  2.483142  -0.051
O  O77  1  0.75657611  0.16409427  0.60175745  1  -0.61405  0.033454  2.280559  0.021  -0.536389  0.033991  2.596709  0.014  -0.576503  0.031872  2.576455  0.011  -1.192759  0.045608  -0.298046  -0.50782  0.03438  2.609281  0.015
O  O78  1  0.73551896  0.65359338  0.10345964  1  -0.665254  -0.00288  2.173118  -0.003  -0.584162  -0.004998  2.472092  -0.005  -0.619898  -0.004285  2.454151  -0.004  -1.231054  -0.007891  -0.303285  -0.556835  -0.00583  2.483251  -0.005
O  O79  1  0.23627956  0.84760213  0.39809632  1  -0.662603  0.000924  2.170353  0.0  -0.582019  -0.000435  2.469359  -0.002  -0.617365  0.000251  2.45122  -0.001  -1.233728  -0.002122  -0.30231  -0.555188  -0.001284  2.480881  -0.003
O  O80  1  0.21257171  0.47804635  0.00483044  1  -0.583024  -0.031515  2.088856  -0.021  -0.522776  -0.040884  2.356909  -0.027  -0.553268  -0.036056  2.343615  -0.022  -1.193355  -0.065151  -0.291204  -0.50037  -0.045617  2.365683  -0.031
O  O81  1  0.71062274  0.02883546  0.49196540  1  -0.577293  -0.029333  2.097732  -0.017  -0.518289  -0.033632  2.367714  -0.018  -0.547674  -0.029985  2.351546  -0.014  -1.183732  -0.054621  -0.296704  -0.497347  -0.03773  2.380146  -0.022
O  O82  1  0.78516598  0.52136767  0.99341492  1  -0.582762  -0.029586  2.085419  -0.018  -0.523055  -0.035917  2.353153  -0.021  -0.553322  -0.0324  2.339977  -0.018  -1.192916  -0.055982  -0.29201  -0.500793  -0.039313  2.361835  -0.024
O  O83  1  0.28883228  0.98136282  0.50631656  1  -0.58557  -0.027122  2.096107  -0.014  -0.525098  -0.033126  2.36533  -0.017  -0.555666  -0.030275  2.351915  -0.014  -1.200439  -0.051287  -0.291469  -0.502622  -0.03583  2.374246  -0.019
O  O84  1  0.91964824  0.14976268  0.80170920  1  -0.667444  -0.002992  2.1928  -0.002  -0.587114  -0.001189  2.490465  0.001  -0.623238  -0.001145  2.473849  0.001  -1.232224  -0.002331  -0.304895  -0.559532  -0.001377  2.501038  0.001
O  O85  1  0.43074465  0.34063120  0.69191574  1  -0.619289  -0.026821  2.29377  -0.02  -0.541432  -0.037167  2.603794  -0.029  -0.582804  -0.03303  2.587172  -0.026  -1.191529  -0.053771  -0.300321  -0.512277  -0.040953  2.613115  -0.033
O  O86  1  0.07633528  0.85173654  0.19863828  1  -0.663655  0.058905  2.190925  0.035  -0.582558  0.074019  2.484654  0.045  -0.61888  0.067683  2.469193  0.039  -1.232092  0.106421  -0.302641  -0.555016  0.079769  2.493968  0.05
O  O87  1  0.57635465  0.64872534  0.30207772  1  -0.664378  -0.059344  2.192666  -0.036  -0.582155  -0.074672  2.48602  -0.045  -0.618527  -0.068113  2.470501  -0.04  -1.231298  -0.108011  -0.302853  -0.55473  -0.080624  2.495392  -0.051
O  O88  1  0.89049057  0.98203904  0.87289721  1  -0.580182  0.028734  2.069769  0.018  -0.520982  0.034496  2.329657  0.02  -0.550483  0.031181  2.3154  0.017  -1.182553  0.05444  -0.294679  -0.499554  0.037769  2.339337  0.023
O  O89  1  0.40023823  0.51422673  0.62784590  1  -0.5739  -0.029916  2.077558  -0.019  -0.517131  -0.037574  2.33975  -0.023  -0.546133  -0.033269  2.323485  -0.019  -1.185687  -0.060741  -0.299534  -0.495725  -0.041491  2.351387  -0.027
O  O90  1  0.10969560  0.01739212  0.12523158  1  -0.585467  0.031292  2.06928  0.021  -0.525769  0.039751  2.329834  0.026  -0.555562  0.035149  2.315667  0.022  -1.190993  0.063406  -0.297502  -0.503941  0.044292  2.339233  0.03
O  O91  1  0.61118227  0.48267185  0.37470449  1  -0.583166  -0.030438  2.071298  -0.019  -0.523768  -0.038974  2.332121  -0.024  -0.553039  -0.034526  2.317703  -0.02  -1.193444  -0.062552  -0.295948  -0.502347  -0.043264  2.342027  -0.028
O  O92  1  0.96845851  0.31326387  0.97808341  1  -0.665226  -0.060421  2.168183  -0.033  -0.581887  -0.071998  2.471486  -0.037  -0.618262  -0.066639  2.451585  -0.033  -1.224043  -0.103548  -0.303718  -0.554387  -0.076869  2.484287  -0.041
O  O93  1  0.47722099  0.19235807  0.53254351  1  -0.612361  -0.02728  2.250566  -0.023  -0.533748  -0.031638  2.563787  -0.026  -0.576688  -0.028343  2.545337  -0.023  -1.173939  -0.043706  -0.296784  -0.502198  -0.033394  2.573505  -0.027
O  O94  1  0.02998046  0.68772969  0.02087686  1  -0.669194  0.004523  2.171337  0.003  -0.585333  0.005142  2.476161  0.002  -0.621945  0.004216  2.455938  0.002  -1.223326  0.009849  -0.305367  -0.557448  0.005942  2.488985  0.003
O  O95  1  0.53096011  0.81350696  0.48001510  1  -0.669361  -0.063149  2.165673  -0.037  -0.586484  -0.078152  2.468822  -0.045  -0.622733  -0.071247  2.449137  -0.039  -1.224611  -0.114413  -0.305003  -0.558799  -0.084459  2.480995  -0.05
O  O96  1  0.88519615  0.15037718  0.03539824  1  -0.594297  0.02542  2.091765  0.013  -0.532025  0.028299  2.362006  0.012  -0.562629  0.026589  2.346366  0.01  -1.171633  0.042783  -0.294072  -0.509808  0.030016  2.372591  0.013
O  O97  1  0.38632133  0.34910657  0.46759304  1  -0.585318  -0.033563  2.097158  -0.022  -0.525744  -0.040567  2.368399  -0.025  -0.555329  -0.035885  2.350618  -0.021  -1.172483  -0.065292  -0.299345  -0.50344  -0.04539  2.380888  -0.03
O  O98  1  0.11342710  0.85009015  0.96270668  1  -0.590454  0.027794  2.090458  0.015  -0.528102  0.034681  2.359623  0.018  -0.558694  0.031584  2.344558  0.016  -1.178933  0.053145  -0.291961  -0.505723  0.03754  2.369541  0.021
O  O99  1  0.61448145  0.64940412  0.53522697  1  -0.59269  -0.030889  2.084624  -0.019  -0.532148  -0.041674  2.353078  -0.026  -0.561222  -0.036857  2.337269  -0.022  -1.183969  -0.065717  -0.29284  -0.510725  -0.046518  2.363879  -0.03
O  O100  1  0.16691618  0.09901930  0.94014930  1  -0.657147  -0.005139  2.165378  -0.004  -0.572866  -0.006933  2.461033  -0.005  -0.609682  -0.005382  2.442155  -0.004  -1.217375  -0.012487  -0.297708  -0.54448  -0.008365  2.472733  -0.007
O  O101  1  0.65803017  0.38733615  0.56029200  1  -0.60453  -0.024884  2.2251  -0.018  -0.520304  -0.030944  2.518201  -0.022  -0.563575  -0.028662  2.502915  -0.02  -1.178915  -0.040642  -0.287186  -0.488944  -0.032106  2.526786  -0.023
O  O102  1  0.83382285  0.90118235  0.05869786  1  -0.655997  0.059499  2.162376  0.033  -0.572946  0.071311  2.45763  0.038  -0.609468  0.065997  2.438958  0.034  -1.218907  0.102493  -0.298035  -0.545077  0.076341  2.469278  0.042
O  O103  1  0.33370286  0.59886901  0.44215571  1  -0.655926  -0.059551  2.164417  -0.033  -0.573209  -0.071973  2.460233  -0.038  -0.609834  -0.06653  2.441707  -0.034  -1.220694  -0.103789  -0.297138  -0.545212  -0.077071  2.471738  -0.042
O  O104  1  0.38808348  0.10323427  0.90976663  1  -0.593038  -0.03201  2.062554  -0.02  -0.531373  -0.038103  2.327719  -0.021  -0.562574  -0.034247  2.311956  -0.018  -1.199893  -0.061649  -0.302225  -0.508003  -0.041748  2.337995  -0.024
O  O105  1  0.88173162  0.39262158  0.58793523  1  -0.584436  0.035624  2.074349  0.024  -0.521919  0.040952  2.338177  0.026  -0.554544  0.037267  2.322771  0.022  -1.192874  0.063455  -0.301504  -0.497374  0.044122  2.34882  0.028
O  O106  1  0.61231587  0.89533812  0.08767458  1  -0.592495  -0.030162  2.061659  -0.017  -0.530201  -0.032932  2.326162  -0.015  -0.561552  -0.030363  2.310721  -0.013  -1.197784  -0.051738  -0.301871  -0.506876  -0.03533  2.336169  -0.017
O  O107  1  0.11236323  0.60528489  0.41282520  1  -0.591884  0.030347  2.063136  0.018  -0.529915  0.032652  2.327558  0.015  -0.560992  0.030183  2.311926  0.013  -1.195514  0.051283  -0.30256  -0.506742  0.035002  2.337682  0.017
