# generated using pymatgen
data_CdH18C22(NO)4
_symmetry_space_group_name_H-M   'P 1'
_cell_length_a   13.84612264
_cell_length_b   13.84612226
_cell_length_c   15.59620018
_cell_angle_alpha   90.00002750
_cell_angle_beta   89.99998004
_cell_angle_gamma   90.65802260
_symmetry_Int_Tables_number   1
_chemical_formula_structural   CdH18C22(NO)4
_chemical_formula_sum   'Cd4 H72 C88 N16 O16'
_cell_volume   2989.82999984
_cell_formula_units_Z   4
loop_
 _symmetry_equiv_pos_site_id
 _symmetry_equiv_pos_as_xyz
  1  'x, y, z'
loop_
 _atom_site_type_symbol
 _atom_site_label
 _atom_site_symmetry_multiplicity
 _atom_site_fract_x
 _atom_site_fract_y
 _atom_site_fract_z
 _atom_site_occupancy
 _atom_site_pbe_bader_charge
 _atom_site_pbe_bader_spin_density
 _atom_site_pbe_cm5_charge
 _atom_site_pbe_ddec_charge
 _atom_site_pbe_ddec_spin_density
 _atom_site_pbe_ddec_sum_bond_order
 _atom_site_pbe_magmom
Cd  Cd0  1  0.16708695  0.28489048  0.50642467  1  1.235684  0  0.768467  0.854783  0  2.185593  0
Cd  Cd1  1  0.71510924  0.83291360  0.49357606  1  1.235603  0  0.768475  0.854767  0  2.185645  0
Cd  Cd2  1  0.21510967  0.33291374  0.00642404  1  1.23561  0  0.768468  0.85476  0  2.185614  0
Cd  Cd3  1  0.66708651  0.78489106  0.99357541  1  1.23562  0  0.768491  0.854843  0  2.185572  0
H  H4  1  0.10029106  0.17928538  0.22443161  1  0.118829  0  0.104358  0.110984  0  1.02811  0
H  H5  1  0.82071409  0.89970895  0.77556782  1  0.118834  0  0.10437  0.11101  0  1.028073  0
H  H6  1  0.32071445  0.39970848  0.72443098  1  0.118829  0  0.10439  0.111018  0  1.028081  0
H  H7  1  0.60029143  0.67928586  0.27556846  1  0.118824  0  0.104369  0.111009  0  1.028067  0
H  H8  1  0.03225819  0.06956458  0.11080969  1  0.093646  0  0.096134  0.099643  0  1.045315  0
H  H9  1  0.93043449  0.96774206  0.88919037  1  0.093639  0  0.096124  0.099626  0  1.045339  0
H  H10  1  0.43043561  0.46774154  0.61080907  1  0.093634  0  0.096132  0.099629  0  1.04531  0
H  H11  1  0.53225852  0.56956440  0.38919035  1  0.093641  0  0.096145  0.09966  0  1.0453  0
H  H12  1  0.86704468  0.91754447  0.30385356  1  0.115431  0  0.107764  0.123199  0  1.02319  0
H  H13  1  0.08245559  0.13295518  0.69614779  1  0.115448  0  0.107752  0.123156  0  1.023184  0
H  H14  1  0.58245595  0.63295496  0.80385226  1  0.115449  0  0.107753  0.123156  0  1.023168  0
H  H15  1  0.36704649  0.41754400  0.19614653  1  0.115446  0  0.107763  0.123177  0  1.023189  0
H  H16  1  0.93480701  0.02657225  0.41637756  1  0.149957  0  0.109164  0.127656  0  1.016183  0
H  H17  1  0.97342762  0.06519351  0.58362279  1  0.150048  0  0.109176  0.127668  0  1.016169  0
H  H18  1  0.47342729  0.56519388  0.91637646  1  0.150062  0  0.109179  0.127671  0  1.016195  0
H  H19  1  0.43480824  0.52657173  0.08362234  1  0.149964  0  0.10916  0.12767  0  1.016161  0
H  H20  1  0.66610606  0.95439289  0.12526715  1  0.076948  0  0.10157  0.152582  0  1.006932  0
H  H21  1  0.04561009  0.33389551  0.87473108  1  0.076964  0  0.101571  0.152594  0  1.006901  0
H  H22  1  0.54560835  0.83389515  0.62526778  1  0.076939  0  0.101574  0.152586  0  1.006944  0
H  H23  1  0.16610563  0.45439250  0.37473109  1  0.076965  0  0.10158  0.152595  0  1.006937  0
H  H24  1  0.74797552  0.02457448  0.18985703  1  0.060553  0  0.099839  0.144764  0  0.990799  0
H  H25  1  0.97542672  0.25202603  0.81014275  1  0.060596  0  0.099832  0.144752  0  0.990824  0
H  H26  1  0.47542648  0.75202483  0.68985658  1  0.060573  0  0.099826  0.144749  0  0.99078  0
H  H27  1  0.24797522  0.52457407  0.31014228  1  0.060584  0  0.099827  0.144754  0  0.990789  0
H  H28  1  0.71478840  0.90502588  0.22132643  1  0.108955  0  0.104768  0.163165  0  1.010734  0
H  H29  1  0.09497533  0.28520981  0.77867241  1  0.108817  0  0.104769  0.163144  0  1.010726  0
H  H30  1  0.59497500  0.78521025  0.72132642  1  0.108956  0  0.104777  0.163154  0  1.010709  0
H  H31  1  0.21479018  0.40502474  0.27867306  1  0.10884  0  0.104774  0.163152  0  1.0107  0
H  H32  1  0.04085179  0.88079967  0.07715615  1  0.069436  0  0.124846  0.125064  0  0.999377  0
H  H33  1  0.11919879  0.95914916  0.92284484  1  0.069454  0  0.124851  0.125028  0  0.999442  0
H  H34  1  0.61919985  0.45914879  0.57715469  1  0.069455  0  0.124853  0.125063  0  0.999391  0
H  H35  1  0.54085128  0.38080020  0.42284466  1  0.069439  0  0.124848  0.125052  0  0.99941  0
H  H36  1  0.91079506  0.79305797  0.96287110  1  0.111979  0  0.118825  0.115047  0  1.009511  0
H  H37  1  0.20694195  0.08920525  0.03712890  1  0.112023  0  0.118817  0.11504  0  1.009516  0
H  H38  1  0.70694152  0.58920509  0.46286981  1  0.11201  0  0.118823  0.115039  0  1.0095  0
H  H39  1  0.41079476  0.29305884  0.53712955  1  0.112021  0  0.118828  0.115049  0  1.009494  0
H  H40  1  0.36322649  0.02360636  0.62515286  1  0.104197  0  0.105414  0.111194  0  1.002022  0
H  H41  1  0.97639134  0.63677280  0.37484834  1  0.104186  0  0.105392  0.111182  0  1.001995  0
H  H42  1  0.47639318  0.13677374  0.12515223  1  0.104191  0  0.105406  0.111193  0  1.002006  0
H  H43  1  0.86322537  0.52360687  0.87484705  1  0.104023  0  0.105407  0.111188  0  1.002031  0
H  H44  1  0.44568486  0.93696851  0.74560610  1  0.072624  0  0.106418  0.114776  0  1.011399  0
H  H45  1  0.06303063  0.55431418  0.25439541  1  0.072673  0  0.106417  0.114787  0  1.011414  0
H  H46  1  0.56303163  0.05431463  0.24560590  1  0.072618  0  0.106412  0.114772  0  1.0114  0
H  H47  1  0.94568441  0.43696822  0.75439396  1  0.07264  0  0.106415  0.114793  0  1.011415  0
H  H48  1  0.36427859  0.16390033  0.91963103  1  0.134539  0  0.109726  0.134924  0  1.020945  0
H  H49  1  0.83610063  0.63572183  0.08036958  1  0.13455  0  0.109702  0.134877  0  1.020949  0
H  H50  1  0.33610019  0.13572145  0.41963039  1  0.134547  0  0.109734  0.134939  0  1.020943  0
H  H51  1  0.86427832  0.66390070  0.58036958  1  0.134551  0  0.109694  0.134868  0  1.020947  0
H  H52  1  0.27831714  0.24719313  0.80025006  1  0.152127  0  0.103979  0.114055  0  1.051681  0
H  H53  1  0.75280706  0.72168449  0.19974869  1  0.152104  0  0.103974  0.114063  0  1.051658  0
H  H54  1  0.25280666  0.22168261  0.30025071  1  0.152112  0  0.103978  0.114054  0  1.051683  0
H  H55  1  0.77831609  0.74719282  0.69974869  1  0.152105  0  0.103976  0.114052  0  1.051659  0
H  H56  1  0.69275770  0.96434179  0.87152392  1  0.052358  0  0.104456  0.154944  0  0.996599  0
H  H57  1  0.03565891  0.30724267  0.12847623  1  0.052304  0  0.104459  0.154923  0  0.996618  0
H  H58  1  0.53565780  0.80724318  0.37152456  1  0.052313  0  0.104463  0.154953  0  0.996595  0
H  H59  1  0.19275737  0.46434126  0.62847687  1  0.052362  0  0.104458  0.154938  0  0.996643  0
H  H60  1  0.62076054  0.05613712  0.82420067  1  0.068519  0  0.103695  0.15126  0  0.977665  0
H  H61  1  0.94386167  0.37923817  0.17579788  1  0.068522  0  0.103674  0.151217  0  0.977681  0
H  H62  1  0.44386210  0.87923922  0.32420216  1  0.068519  0  0.103681  0.151242  0  0.977689  0
H  H63  1  0.12076174  0.55613882  0.67579804  1  0.068514  0  0.103688  0.151264  0  0.977646  0
H  H64  1  0.61586409  0.93571931  0.78496246  1  0.078411  0  0.103348  0.155613  0  1.006019  0
H  H65  1  0.06427819  0.38413572  0.21503771  1  0.078437  0  0.103283  0.155543  0  1.006146  0
H  H66  1  0.56427855  0.88413476  0.28496182  1  0.078426  0  0.103299  0.155585  0  1.0061  0
H  H67  1  0.11586372  0.43572172  0.71503835  1  0.078426  0  0.103282  0.155569  0  1.006159  0
H  H68  1  0.46490190  0.87232613  0.08596400  1  0.113306  0  0.121051  0.120443  0  0.999137  0
H  H69  1  0.12767575  0.53509886  0.91403748  1  0.113325  0  0.121032  0.120414  0  0.999157  0
H  H70  1  0.62767464  0.03509847  0.58596315  1  0.113308  0  0.121067  0.120465  0  0.999147  0
H  H71  1  0.96490211  0.37232450  0.41403732  1  0.1133  0  0.121065  0.120474  0  0.999141  0
H  H72  1  0.33474164  0.98728456  0.99531503  1  0.098624  0  0.122437  0.12117  0  1.026589  0
H  H73  1  0.01271636  0.66525847  0.00468654  1  0.09863  0  0.12243  0.121152  0  1.026625  0
H  H74  1  0.51271581  0.16525831  0.49531483  1  0.098638  0  0.12243  0.121173  0  1.026598  0
H  H75  1  0.83474273  0.48728272  0.50468508  1  0.098632  0  0.122438  0.121145  0  1.026654  0
C  C76  1  0.06414005  0.17621592  0.39286880  1  1.564269  0  0.186635  0.547985  0  4.239997  0
C  C77  1  0.82378509  0.93585939  0.60713129  1  1.564255  0  0.186673  0.548087  0  4.240061  0
C  C78  1  0.32378465  0.43586045  0.89286817  1  1.564254  0  0.186616  0.548005  0  4.239981  0
C  C79  1  0.56414048  0.67621559  0.10713128  1  1.564268  0  0.186705  0.548119  0  4.240001  0
C  C80  1  0.02104404  0.11031346  0.32670588  1  -0.047318  0  -0.016926  -0.030358  0  3.968883  0
C  C81  1  0.88968630  0.97895596  0.67329420  1  -0.047342  0  -0.016918  -0.030383  0  3.968851  0
C  C82  1  0.38968661  0.47895627  0.82670526  1  -0.04732  0  -0.016941  -0.030429  0  3.968969  0
C  C83  1  0.52104517  0.61031245  0.17329418  1  -0.047331  0  -0.016921  -0.030381  0  3.968856  0
C  C84  1  0.04913442  0.12178030  0.24081380  1  -0.082974  0  -0.084906  -0.083249  0  3.976956  0
C  C85  1  0.87822049  0.95086588  0.75918627  1  -0.082968  0  -0.084918  -0.08327  0  3.976961  0
C  C86  1  0.37822084  0.45086542  0.74081318  1  -0.08297  0  -0.084906  -0.083236  0  3.976997  0
C  C87  1  0.54913551  0.62177934  0.25918626  1  -0.082979  0  -0.084903  -0.083233  0  3.976889  0
C  C88  1  0.01189533  0.06070521  0.17794464  1  -0.068376  0  -0.100822  -0.180059  0  4.011109  0
C  C89  1  0.93929393  0.98810463  0.82205607  1  -0.068406  0  -0.100793  -0.18003  0  4.011144  0
C  C90  1  0.43929430  0.48810486  0.67794401  1  -0.068392  0  -0.100791  -0.180007  0  4.01107  0
C  C91  1  0.51189640  0.56070500  0.32205541  1  -0.068388  0  -0.100862  -0.18015  0  4.011161  0
C  C92  1  0.94607490  0.98791126  0.20129461  1  0.267968  0  0.089387  0.166904  0  4.027452  0
C  C93  1  0.01208781  0.05392530  0.79870610  1  0.267961  0  0.089356  0.166906  0  4.027423  0
C  C94  1  0.51208893  0.55392575  0.70129329  1  0.26796  0  0.089354  0.166842  0  4.02743  0
C  C95  1  0.44607595  0.48791084  0.29870549  1  0.267969  0  0.089386  0.16696  0  4.027474  0
C  C96  1  0.91764505  0.97524721  0.28661219  1  -0.017804  0  -0.087489  -0.159983  0  3.953136  0
C  C97  1  0.02475168  0.08235559  0.71338916  1  -0.017791  0  -0.087483  -0.159954  0  3.952974  0
C  C98  1  0.52475204  0.58235463  0.78661087  1  -0.017799  0  -0.087481  -0.159924  0  3.953022  0
C  C99  1  0.41764613  0.47524674  0.21338791  1  -0.017801  0  -0.087507  -0.160001  0  3.953142  0
C  C100  1  0.95558879  0.03662835  0.34943626  1  0.01802  0  -0.073068  -0.068096  0  3.923074  0
C  C101  1  0.96337090  0.04441130  0.65056409  1  0.018033  0  -0.073083  -0.068101  0  3.922949  0
C  C102  1  0.46337131  0.54441164  0.84943515  1  0.018013  0  -0.073091  -0.068117  0  3.923088  0
C  C103  1  0.45559073  0.53662788  0.15056364  1  0.018019  0  -0.073055  -0.068085  0  3.923068  0
C  C104  1  0.73061268  0.95182804  0.16587960  1  -0.055804  0  -0.231336  -0.476981  0  3.945388  0
C  C105  1  0.04817340  0.26938782  0.83411925  1  -0.055735  0  -0.231343  -0.476968  0  3.945377  0
C  C106  1  0.54817237  0.76938750  0.66587894  1  -0.055798  0  -0.231313  -0.476929  0  3.945303  0
C  C107  1  0.23061299  0.45182763  0.33411991  1  -0.055732  0  -0.231327  -0.476946  0  3.945357  0
C  C108  1  0.81229685  0.91279772  0.11552308  1  0.969861  0  0.226616  0.362216  0  3.916122  0
C  C109  1  0.08720253  0.18770375  0.88447700  1  0.969846  0  0.226634  0.362212  0  3.916129  0
C  C110  1  0.58720296  0.68770342  0.61552178  1  0.969866  0  0.226527  0.362068  0  3.916088  0
C  C111  1  0.31229642  0.41279805  0.38447702  1  0.969898  0  0.226624  0.362182  0  3.916144  0
C  C112  1  0.96274484  0.88061403  0.07367504  1  0.306445  0  -0.006183  -0.119869  0  3.974658  0
C  C113  1  0.11938482  0.03725558  0.92632626  1  0.306453  0  -0.006185  -0.119799  0  3.974707  0
C  C114  1  0.61938599  0.53725596  0.57367373  1  0.306305  0  -0.006178  -0.11988  0  3.974667  0
C  C115  1  0.46274512  0.38061439  0.42632565  1  0.306545  0  -0.006178  -0.119816  0  3.974601  0
C  C116  1  0.89817493  0.83847100  0.01825320  1  0.441815  0  -0.008292  -0.037557  0  4.079501  0
C  C117  1  0.16152823  0.10182485  0.98174746  1  0.441634  0  -0.008315  -0.03763  0  4.079612  0
C  C118  1  0.66152870  0.60182519  0.51825254  1  0.441773  0  -0.008294  -0.037584  0  4.07955  0
C  C119  1  0.39817518  0.33847211  0.48174748  1  0.44177  0  -0.00832  -0.037635  0  4.079572  0
C  C120  1  0.26353588  0.18840448  0.63353252  1  1.530722  0  0.188305  0.548421  0  4.240565  0
C  C121  1  0.81159431  0.73646553  0.36646750  1  1.530724  0  0.188336  0.548496  0  4.240613  0
C  C122  1  0.31159542  0.23646430  0.13353253  1  1.530711  0  0.188325  0.548436  0  4.240601  0
C  C123  1  0.76353405  0.68840498  0.86646685  1  1.530725  0  0.188321  0.548461  0  4.240615  0
C  C124  1  0.31489759  0.13949885  0.70567892  1  -0.043765  0  -0.019893  -0.037506  0  3.978508  0
C  C125  1  0.86050034  0.68510351  0.29432106  1  -0.043776  0  -0.019897  -0.037518  0  3.978551  0
C  C126  1  0.36050070  0.18510303  0.20567829  1  -0.043764  0  -0.019923  -0.037547  0  3.978478  0
C  C127  1  0.81489579  0.63949859  0.79432041  1  -0.043779  0  -0.019891  -0.03748  0  3.978439  0
C  C128  1  0.36378718  0.05315284  0.68989043  1  -0.040001  0  -0.084383  -0.081956  0  3.993381  0
C  C129  1  0.94684625  0.63621342  0.31011014  1  -0.039989  0  -0.084414  -0.081994  0  3.993384  0
C  C130  1  0.44684733  0.13621294  0.18989044  1  -0.039994  0  -0.084387  -0.081968  0  3.993365  0
C  C131  1  0.86378465  0.55315258  0.81010949  1  -0.039829  0  -0.08444  -0.082046  0  3.993473  0
C  C132  1  0.41034842  0.00580479  0.75646432  1  -0.042411  0  -0.093749  -0.175585  0  4.004043  0
C  C133  1  0.99419432  0.58965124  0.24353686  1  -0.042445  0  -0.093708  -0.175591  0  4.004062  0
C  C134  1  0.49419538  0.08965152  0.25646369  1  -0.042419  0  -0.093742  -0.175586  0  4.004068  0
C  C135  1  0.91034736  0.50580524  0.74353620  1  -0.042397  0  -0.093719  -0.17559  0  4.004128  0
C  C136  1  0.40966962  0.04622165  0.83872155  1  0.328693  0  0.092153  0.170954  0  4.026589  0
C  C137  1  0.95377822  0.59033050  0.16127901  1  0.328723  0  0.092168  0.171033  0  4.026495  0
C  C138  1  0.45377853  0.09033082  0.33872092  1  0.328704  0  0.092152  0.170991  0  4.02658  0
C  C139  1  0.90966859  0.54622133  0.66127836  1  0.328657  0  0.09216  0.170995  0  4.0266  0
C  C140  1  0.36292053  0.13312871  0.85522303  1  -0.023442  0  -0.089144  -0.166018  0  3.9489  0
C  C141  1  0.86687167  0.63708036  0.14477693  1  -0.02387  0  -0.089139  -0.166008  0  3.948691  0
C  C142  1  0.36687126  0.13707923  0.35522304  1  -0.023505  0  -0.089158  -0.166064  0  3.948879  0
C  C143  1  0.86291950  0.63312838  0.64477757  1  -0.023851  0  -0.089136  -0.166004  0  3.94886  0
C  C144  1  0.31481660  0.17910899  0.78839651  1  -0.067387  0  -0.082445  -0.078667  0  3.947319  0
C  C145  1  0.82089138  0.68518586  0.21160413  1  -0.066958  0  -0.082427  -0.078662  0  3.947212  0
C  C146  1  0.32089099  0.18518397  0.28839652  1  -0.067314  0  -0.082426  -0.078636  0  3.947236  0
C  C147  1  0.81481411  0.67910868  0.71160348  1  -0.066975  0  -0.082413  -0.07862  0  3.947213  0
C  C148  1  0.62216677  0.97980857  0.84326321  1  -0.021081  0  -0.227451  -0.469714  0  3.957617  0
C  C149  1  0.02019063  0.37783293  0.15673633  1  -0.021061  0  -0.227414  -0.469608  0  3.957699  0
C  C150  1  0.52019097  0.87783344  0.34326321  1  -0.021048  0  -0.2274  -0.469688  0  3.957655  0
C  C151  1  0.12216715  0.47980951  0.65673697  1  -0.021106  0  -0.227395  -0.469698  0  3.957676  0
C  C152  1  0.54596857  0.95856556  0.90792512  1  0.993567  0  0.2207  0.348887  0  3.932382  0
C  C153  1  0.04143446  0.45403228  0.09207572  1  0.993532  0  0.220715  0.348844  0  3.932354  0
C  C154  1  0.54143550  0.95403212  0.40792448  1  0.993554  0  0.22073  0.348944  0  3.932315  0
C  C155  1  0.04596825  0.45856573  0.59207508  1  0.993566  0  0.220736  0.348938  0  3.932371  0
C  C156  1  0.47282771  0.91019352  0.02546979  1  0.44385  0  -0.00663  -0.035235  0  4.051422  0
C  C157  1  0.08980650  0.52717331  0.97453170  1  0.443869  0  -0.006628  -0.035256  0  4.051502  0
C  C158  1  0.58980686  0.02717291  0.52546957  1  0.443836  0  -0.006663  -0.035286  0  4.051385  0
C  C159  1  0.97282789  0.41019119  0.47453027  1  0.443846  0  -0.00662  -0.035229  0  4.051334  0
C  C160  1  0.40805274  0.96570163  0.98190726  1  0.290737  0  -0.000731  -0.099357  0  3.946022  0
C  C161  1  0.03429818  0.59194712  0.01809299  1  0.290706  0  -0.000732  -0.099332  0  3.946053  0
C  C162  1  0.53429837  0.09194696  0.48190835  1  0.290701  0  -0.000718  -0.099362  0  3.946046  0
C  C163  1  0.90805166  0.46570049  0.51809282  1  0.29073  0  -0.000741  -0.099331  0  3.945999  0
N  N164  1  0.80543646  0.85931787  0.04452565  1  -1.220396  0  -0.359251  -0.36012  0  3.469738  0
N  N165  1  0.14068224  0.19456425  0.95547442  1  -1.220423  0  -0.359237  -0.360028  0  3.469685  0
N  N166  1  0.64068269  0.69456388  0.54452499  1  -1.220458  0  -0.359221  -0.360016  0  3.469648  0
N  N167  1  0.30543601  0.35931896  0.45547443  1  -1.220434  0  -0.359243  -0.360021  0  3.469697  0
N  N168  1  0.90789667  0.92713321  0.13525993  1  -1.262547  0  -0.22376  -0.043527  0  3.746262  0
N  N169  1  0.07286600  0.09210443  0.86474077  1  -1.262528  0  -0.223753  -0.043576  0  3.746263  0
N  N170  1  0.57286642  0.59210339  0.63525862  1  -1.262541  0  -0.223744  -0.043438  0  3.746157  0
N  N171  1  0.40789697  0.42713354  0.36474015  1  -1.26264  0  -0.223765  -0.043591  0  3.746178  0
N  N172  1  0.55794202  0.90664519  0.97919759  1  -1.238931  0  -0.362679  -0.363797  0  3.491823  0
N  N173  1  0.09335678  0.44205854  0.02080322  1  -1.238867  0  -0.362635  -0.363684  0  3.491792  0
N  N174  1  0.59335635  0.94205839  0.47919696  1  -1.2389  0  -0.362685  -0.363789  0  3.491735  0
N  N175  1  0.05794173  0.40664460  0.52080386  1  -1.238918  0  -0.362708  -0.363846  0  3.491889  0
N  N176  1  0.45444851  0.99509291  0.90720445  1  -1.278824  0  -0.223966  -0.045963  0  3.746464  0
N  N177  1  0.00490641  0.54555151  0.09279580  1  -1.27886  0  -0.223955  -0.045968  0  3.746433  0
N  N178  1  0.50490734  0.04555205  0.40720489  1  -1.278797  0  -0.223958  -0.045966  0  3.746424  0
N  N179  1  0.95444884  0.49509255  0.59279563  1  -1.278785  0  -0.223958  -0.045971  0  3.746371  0
O  O180  1  0.11250757  0.24995249  0.36605587  1  -1.179629  0  -0.339671  -0.564473  0  2.19964  0
O  O181  1  0.75004889  0.88749196  0.63394423  1  -1.179544  0  -0.339691  -0.56451  0  2.199749  0
O  O182  1  0.25004775  0.38749299  0.86605587  1  -1.179549  0  -0.339672  -0.564488  0  2.199628  0
O  O183  1  0.61250799  0.74995144  0.13394423  1  -1.179555  0  -0.339711  -0.564556  0  2.199767  0
O  O184  1  0.05388235  0.15692773  0.47209579  1  -1.157717  0  -0.329435  -0.542856  0  2.147903  0
O  O185  1  0.84307381  0.94611773  0.52790494  1  -1.157712  0  -0.329432  -0.542875  0  2.147887  0
O  O186  1  0.34307334  0.44611810  0.97209452  1  -1.157691  0  -0.329404  -0.542828  0  2.147915  0
O  O187  1  0.55388281  0.65692663  0.02790429  1  -1.157713  0  -0.32946  -0.542909  0  2.147886  0
O  O188  1  0.20447681  0.25652286  0.65154655  1  -1.162193  0  -0.336465  -0.562277  0  2.182301  0
O  O189  1  0.74347614  0.79552387  0.34845352  1  -1.162242  0  -0.336463  -0.562305  0  2.18238  0
O  O190  1  0.24347724  0.29552337  0.15154591  1  -1.162191  0  -0.336454  -0.562276  0  2.182377  0
O  O191  1  0.70447570  0.75652408  0.84845287  1  -1.162255  0  -0.336484  -0.562339  0  2.182395  0
O  O192  1  0.28031271  0.16126025  0.55721777  1  -1.161439  0  -0.331391  -0.557438  0  2.178676  0
O  O193  1  0.83873891  0.71968924  0.44278223  1  -1.161416  0  -0.331414  -0.557471  0  2.178726  0
O  O194  1  0.33874005  0.21968725  0.05721778  1  -1.161442  0  -0.331405  -0.557438  0  2.178633  0
O  O195  1  0.78031157  0.66126152  0.94278158  1  -1.16139  0  -0.331374  -0.557423  0  2.178694  0
