# generated using pymatgen
data_CaH6C8SO8
_symmetry_space_group_name_H-M   'P 1'
_cell_length_a   6.84340981
_cell_length_b   8.23108951
_cell_length_c   9.47975173
_cell_angle_alpha   96.59493108
_cell_angle_beta   89.99847511
_cell_angle_gamma   90.00090836
_symmetry_Int_Tables_number   1
_chemical_formula_structural   CaH6C8SO8
_chemical_formula_sum   'Ca2 H12 C16 S2 O16'
_cell_volume   530.44887054
_cell_formula_units_Z   2
loop_
 _symmetry_equiv_pos_site_id
 _symmetry_equiv_pos_as_xyz
  1  'x, y, z'
loop_
 _atom_site_type_symbol
 _atom_site_label
 _atom_site_symmetry_multiplicity
 _atom_site_fract_x
 _atom_site_fract_y
 _atom_site_fract_z
 _atom_site_occupancy
 _atom_site_hle17_bader_spin_density
 _atom_site_hle17_ddec_charge
 _atom_site_hle17_ddec_spin_density
 _atom_site_hle17_ddec_sum_bond_order
 _atom_site_hle17_magmom
 _atom_site_hse06_10hf_bader_spin_density
 _atom_site_hse06_10hf_ddec_charge
 _atom_site_hse06_10hf_ddec_spin_density
 _atom_site_hse06_10hf_ddec_sum_bond_order
 _atom_site_hse06_10hf_magmom
 _atom_site_hse06_bader_spin_density
 _atom_site_hse06_ddec_charge
 _atom_site_hse06_ddec_spin_density
 _atom_site_hse06_ddec_sum_bond_order
 _atom_site_hse06_magmom
 _atom_site_pbe_bader_spin_density
 _atom_site_pbe_cm5_charge
 _atom_site_pbe_ddec_charge
 _atom_site_pbe_ddec_spin_density
 _atom_site_pbe_ddec_sum_bond_order
 _atom_site_pbe_magmom
Ca  Ca0  1  0.75000297  0.76410492  0.49326940  1  0  1.577668  0  1.083691  0  0  1.44899  0  1.433089  0  0  1.491076  0  1.387108  0  0  0.93161  1.416994  0  1.466498  0
Ca  Ca1  1  0.24999694  0.23589624  0.50673171  1  0  1.577669  0  1.0837  0  0  1.448996  0  1.433103  0  0  1.491081  0  1.387122  0  0  0.931614  1.417001  0  1.466509  0
H  H2  1  0.74999248  0.71422311  0.79824069  1  0  0.398752  0  0.896327  0  0  0.367946  0  0.973238  0  0  0.380414  0  0.960499  0  0  0.306661  0.359193  0  0.982131  0
H  H3  1  0.25000742  0.28577560  0.20176228  1  0  0.39878  0  0.896295  0  0  0.368001  0  0.973159  0  0  0.380471  0  0.960417  0  0  0.306674  0.359245  0  0.982057  0
H  H4  1  0.87153586  0.50960923  0.68359326  1  0  0.447467  0  0.846946  0  0  0.413629  0  0.914103  0  0  0.425195  0  0.897415  0  0  0.308498  0.405364  0  0.926008  0
H  H5  1  0.37155046  0.49038956  0.31640738  1  0  0.447446  0  0.847018  0  0  0.413623  0  0.914143  0  0  0.425188  0  0.897459  0  0  0.308478  0.405356  0  0.926053  0
H  H6  1  0.12846697  0.49039070  0.31640667  1  0  0.447484  0  0.846938  0  0  0.41364  0  0.914094  0  0  0.425207  0  0.897405  0  0  0.308509  0.405376  0  0.925999  0
H  H7  1  0.62845382  0.50960915  0.68359348  1  0  0.447475  0  0.846978  0  0  0.41365  0  0.914107  0  0  0.425216  0  0.897422  0  0  0.308491  0.405383  0  0.926017  0
H  H8  1  0.74999714  0.26870020  0.79097481  1  0  0.115633  0  0.936837  0  0  0.124822  0  0.997556  0  0  0.129255  0  0.993052  0  0  0.119891  0.12167  0  1.000904  0
H  H9  1  0.25000276  0.73129364  0.20902134  1  0  0.115555  0  0.9369  0  0  0.124753  0  0.9976  0  0  0.12918  0  0.993103  0  0  0.119855  0.121598  0  1.000949  0
H  H10  1  0.75001208  0.51035364  0.97762796  1  0  0.107085  0  0.942827  0  0  0.118072  0  1.001309  0  0  0.121665  0  0.999902  0  0  0.108746  0.115332  0  1.002646  0
H  H11  1  0.24998929  0.48964632  0.02236459  1  0  0.10707  0  0.942854  0  0  0.118111  0  1.001293  0  0  0.121693  0  0.999893  0  0  0.108737  0.115375  0  1.002618  0
H  H12  1  0.74999265  0.94655658  0.11685890  1  0  0.124389  0  0.940394  0  0  0.133018  0  1.001032  0  0  0.137178  0  0.997958  0  0  0.119359  0.129909  0  1.003348  0
H  H13  1  0.25000141  0.05344702  0.88314351  1  0  0.124373  0  0.94042  0  0  0.132995  0  1.001066  0  0  0.137123  0  0.998034  0  0  0.119351  0.12989  0  1.003375  0
C  C14  1  0.74999415  0.95144828  0.83086844  1  0  0.665876  0  3.812588  0  0  0.616208  0  4.108988  0  0  0.649659  0  4.101265  0  0  0.243758  0.593422  0  4.11394  0
C  C15  1  0.25000575  0.04855043  0.16913137  1  0  0.665968  0  3.812481  0  0  0.616343  0  4.108809  0  0  0.649809  0  4.101067  0  0  0.243758  0.593551  0  4.11377  0
C  C16  1  0.74999560  0.09375111  0.94224512  1  0  -0.079335  0  3.760852  0  0  -0.054041  0  3.996655  0  0  -0.064598  0  4.020284  0  0  -0.014209  -0.047339  0  3.981085  0
C  C17  1  0.25000137  0.90624637  0.05775667  1  0  -0.079317  0  3.760942  0  0  -0.054081  0  3.996792  0  0  -0.064641  0  4.020409  0  0  -0.0142  -0.047378  0  3.981231  0
C  C18  1  0.75000222  0.25255976  0.90328404  1  0  -0.011807  0  3.666103  0  0  -0.045244  0  3.920424  0  0  -0.039431  0  3.934357  0  0  -0.060185  -0.049163  0  3.911544  0
C  C19  1  0.24999914  0.74743896  0.09671261  1  0  -0.011664  0  3.666128  0  0  -0.04508  0  3.920439  0  0  -0.039261  0  3.934369  0  0  -0.060106  -0.048995  0  3.911558  0
C  C20  1  0.75000978  0.38638322  0.00759518  1  0  -0.081176  0  3.692123  0  0  -0.103089  0  3.948875  0  0  -0.107505  0  3.967251  0  0  -0.078282  -0.100211  0  3.936913  0
C  C21  1  0.24999012  0.61361551  0.99240146  1  0  -0.081265  0  3.692092  0  0  -0.103278  0  3.948844  0  0  -0.107671  0  3.967235  0  0  -0.078345  -0.100397  0  3.936884  0
C  C22  1  0.75001275  0.36421849  0.15205013  1  0  -0.016209  0  3.688361  0  0  -0.007867  0  3.927153  0  0  -0.006763  0  3.943819  0  0  0.006585  -0.008903  0  3.916299  0
C  C23  1  0.24998569  0.63578391  0.84794583  1  0  -0.016082  0  3.688376  0  0  -0.007732  0  3.927021  0  0  -0.006677  0  3.943748  0  0  0.006646  -0.008769  0  3.916173  0
C  C24  1  0.75000467  0.20361817  0.18989545  1  0  -0.151804  0  3.705909  0  0  -0.135029  0  3.96155  0  0  -0.142855  0  3.981423  0  0  -0.012424  -0.12986  0  3.948317  0
C  C25  1  0.24999230  0.79638543  0.81010486  1  0  -0.15204  0  3.706206  0  0  -0.135087  0  3.961564  0  0  -0.142883  0  3.981414  0  0  -0.012439  -0.129914  0  3.948332  0
C  C26  1  0.74999654  0.06974332  0.08599228  1  0  -0.051969  0  3.717097  0  0  -0.094566  0  3.974542  0  0  -0.09141  0  3.993381  0  0  -0.072783  -0.096172  0  3.96163  0
C  C27  1  0.24999897  0.93025784  0.91400883  1  0  -0.051876  0  3.71709  0  0  -0.094516  0  3.974498  0  0  -0.091336  0  3.99334  0  0  -0.072763  -0.096125  0  3.961587  0
C  C28  1  0.75001221  0.51453383  0.25910091  1  0  0.66004  0  3.909385  0  0  0.607512  0  4.210735  0  0  0.641054  0  4.201971  0  0  0.221297  0.584675  0  4.215781  0
C  C29  1  0.24998477  0.48546856  0.74089716  1  0  0.659948  0  3.909498  0  0  0.607426  0  4.210808  0  0  0.640982  0  4.202044  0  0  0.22128  0.584574  0  4.215868  0
S  S30  1  0.75000242  0.16470797  0.37110647  1  0  1.393238  0  5.619999  0  0  1.290594  0  6.138682  0  0  1.340546  0  6.112809  0  0  0.568102  1.255847  0  6.155311  0
S  S31  1  0.24999602  0.83529441  0.62889371  1  0  1.393414  0  5.620011  0  0  1.290709  0  6.138675  0  0  1.340654  0  6.112807  0  0  0.568156  1.255953  0  6.155316  0
O  O32  1  0.74999184  0.80752258  0.88139599  1  0  -0.553933  0  2.094115  0  0  -0.50396  0  2.313953  0  0  -0.527357  0  2.302913  0  0  -0.325648  -0.487748  0  2.321415  0
O  O33  1  0.25000952  0.19247368  0.11860884  1  0  -0.554015  0  2.094264  0  0  -0.504062  0  2.314044  0  0  -0.527461  0  2.30299  0  0  -0.325647  -0.487853  0  2.321515  0
O  O34  1  0.74999491  0.57632445  0.67456597  1  0  -0.880981  0  1.886648  0  0  -0.818449  0  2.07877  0  0  -0.841412  0  2.045819  0  0  -0.592274  -0.801995  0  2.102105  0
O  O35  1  0.25000791  0.42367671  0.32543514  1  0  -0.880947  0  1.886682  0  0  -0.818429  0  2.07883  0  0  -0.841393  0  2.045878  0  0  -0.592265  -0.801963  0  2.102138  0
O  O36  1  0.74999813  0.96728837  0.70215267  1  0  -0.615932  0  1.976216  0  0  -0.571895  0  2.214436  0  0  -0.593721  0  2.204101  0  0  -0.310649  -0.55698  0  2.221278  0
O  O37  1  0.25000031  0.03270666  0.29785309  1  0  -0.616028  0  1.97594  0  0  -0.572002  0  2.214132  0  0  -0.593835  0  2.203789  0  0  -0.310705  -0.557085  0  2.220976  0
O  O38  1  0.91219726  0.57815095  0.30175206  1  0  -0.657394  0  1.97207  0  0  -0.599123  0  2.198658  0  0  -0.626727  0  2.189431  0  0  -0.322995  -0.579418  0  2.204512  0
O  O39  1  0.41217749  0.42185075  0.69824176  1  0  -0.657354  0  1.972121  0  0  -0.599159  0  2.198754  0  0  -0.626764  0  2.189515  0  0  -0.323044  -0.579445  0  2.204615  0
O  O40  1  0.08780556  0.42185144  0.69824601  1  0  -0.657286  0  1.972128  0  0  -0.599026  0  2.198715  0  0  -0.626631  0  2.189482  0  0  -0.322964  -0.579315  0  2.204575  0
O  O41  1  0.58782387  0.57815042  0.30175618  1  0  -0.657349  0  1.972183  0  0  -0.59914  0  2.198815  0  0  -0.626744  0  2.189583  0  0  -0.323016  -0.579438  0  2.204677  0
O  O42  1  0.92598295  0.24185084  0.43572107  1  0  -0.72642  0  2.024736  0  0  -0.668245  0  2.294233  0  0  -0.692042  0  2.278714  0  0  -0.376914  -0.650847  0  2.30413  0
O  O43  1  0.42598330  0.75816200  0.56427784  1  0  -0.7264  0  2.0247  0  0  -0.668223  0  2.294181  0  0  -0.692015  0  2.278659  0  0  -0.376884  -0.65082  0  2.304083  0
O  O44  1  0.07401987  0.75815399  0.56427831  1  0  -0.726418  0  2.024808  0  0  -0.668225  0  2.294304  0  0  -0.692022  0  2.278789  0  0  -0.376868  -0.650824  0  2.304208  0
O  O45  1  0.57401806  0.24184527  0.43572389  1  0  -0.726402  0  2.024777  0  0  -0.668225  0  2.294274  0  0  -0.692021  0  2.278755  0  0  -0.376875  -0.650826  0  2.304171  0
O  O46  1  0.75000450  0.98585136  0.36592722  1  0  -0.72692  0  1.984378  0  0  -0.665581  0  2.245958  0  0  -0.688684  0  2.228786  0  0  -0.376752  -0.648914  0  2.257277  0
O  O47  1  0.24999393  0.01415347  0.63407638  1  0  -0.727006  0  1.984318  0  0  -0.665684  0  2.245922  0  0  -0.688785  0  2.228746  0  0  -0.376821  -0.649012  0  2.257243  0
