# generated using pymatgen
data_BaH10C14SO8
_symmetry_space_group_name_H-M   'P 1'
_cell_length_a   7.73364210
_cell_length_b   8.91970138
_cell_length_c   11.27062419
_cell_angle_alpha   87.21665919
_cell_angle_beta   81.43621651
_cell_angle_gamma   73.31449876
_symmetry_Int_Tables_number   1
_chemical_formula_structural   BaH10C14SO8
_chemical_formula_sum   'Ba2 H20 C28 S2 O16'
_cell_volume   736.41548902
_cell_formula_units_Z   2
loop_
 _symmetry_equiv_pos_site_id
 _symmetry_equiv_pos_as_xyz
  1  'x, y, z'
loop_
 _atom_site_type_symbol
 _atom_site_label
 _atom_site_symmetry_multiplicity
 _atom_site_fract_x
 _atom_site_fract_y
 _atom_site_fract_z
 _atom_site_occupancy
 _atom_site_hle17_bader_spin_density
 _atom_site_hle17_ddec_charge
 _atom_site_hle17_ddec_spin_density
 _atom_site_hle17_ddec_sum_bond_order
 _atom_site_hle17_magmom
 _atom_site_hse06_10hf_bader_spin_density
 _atom_site_hse06_10hf_ddec_charge
 _atom_site_hse06_10hf_ddec_spin_density
 _atom_site_hse06_10hf_ddec_sum_bond_order
 _atom_site_hse06_10hf_magmom
 _atom_site_hse06_bader_spin_density
 _atom_site_hse06_ddec_charge
 _atom_site_hse06_ddec_spin_density
 _atom_site_hse06_ddec_sum_bond_order
 _atom_site_hse06_magmom
 _atom_site_pbe_bader_spin_density
 _atom_site_pbe_cm5_charge
 _atom_site_pbe_ddec_charge
 _atom_site_pbe_ddec_spin_density
 _atom_site_pbe_ddec_sum_bond_order
 _atom_site_pbe_magmom
Ba  Ba0  1  0.28873618  0.39935592  0.43914699  1  0  1.650327  0  1.128076  0  0  1.504835  0  1.522707  0  0  1.545555  0  1.479059  0  0  0.950283  1.474853  0  1.553649  0
Ba  Ba1  1  0.71126536  0.60064236  0.56085114  1  0  1.650321  0  1.128082  0  0  1.504805  0  1.52277  0  0  1.545528  0  1.479119  0  0  0.950266  1.474827  0  1.553713  0
H  H2  1  0.70950286  0.04083216  0.43077357  1  0  0.433337  0  0.870478  0  0  0.40041  0  0.937185  0  0  0.411614  0  0.920962  0  0  0.290439  0.392494  0  0.948614  0
H  H3  1  0.29049615  0.95917431  0.56922542  1  0  0.433307  0  0.870526  0  0  0.400392  0  0.937211  0  0  0.411596  0  0.920989  0  0  0.290436  0.392475  0  0.948643  0
H  H4  1  0.61868159  0.18952497  0.51743469  1  0  0.411827  0  0.897169  0  0  0.382926  0  0.958784  0  0  0.394067  0  0.942338  0  0  0.296571  0.375028  0  0.97042  0
H  H5  1  0.38131646  0.81048035  0.48256444  1  0  0.411903  0  0.897065  0  0  0.382978  0  0.958711  0  0  0.394119  0  0.942266  0  0  0.296595  0.375082  0  0.970343  0
H  H6  1  0.23212465  0.71721901  0.60609414  1  0  0.412635  0  0.896682  0  0  0.385797  0  0.955307  0  0  0.396231  0  0.939872  0  0  0.293208  0.378359  0  0.96629  0
H  H7  1  0.76788010  0.28278153  0.39390803  1  0  0.41271  0  0.896585  0  0  0.385869  0  0.955212  0  0  0.396304  0  0.939775  0  0  0.293213  0.378433  0  0.966195  0
H  H8  1  0.13861537  0.61090621  0.69342803  1  0  0.416772  0  0.880272  0  0  0.390795  0  0.937915  0  0  0.399978  0  0.924504  0  0  0.302944  0.384289  0  0.94742  0
H  H9  1  0.86139070  0.38909430  0.30657490  1  0  0.41676  0  0.880336  0  0  0.390797  0  0.93791  0  0  0.399978  0  0.924504  0  0  0.302984  0.384296  0  0.94741  0
H  H10  1  0.31923273  0.43663048  0.94978168  1  0  0.125762  0  0.923112  0  0  0.136108  0  0.981258  0  0  0.140154  0  0.97759  0  0  0.118977  0.133118  0  0.984038  0
H  H11  1  0.68077298  0.56337122  0.05021769  1  0  0.125779  0  0.923205  0  0  0.136102  0  0.981357  0  0  0.140145  0  0.977701  0  0  0.118992  0.133114  0  0.984137  0
H  H12  1  0.38772198  0.89462711  0.81130437  1  0  0.121848  0  0.928671  0  0  0.133918  0  0.983487  0  0  0.137459  0  0.981846  0  0  0.119193  0.131396  0  0.984758  0
H  H13  1  0.61228076  0.10537585  0.18868727  1  0  0.121797  0  0.928733  0  0  0.133921  0  0.983468  0  0  0.13747  0  0.981822  0  0  0.119183  0.131399  0  0.984734  0
H  H14  1  0.50112279  0.08274286  0.67677842  1  0  0.099343  0  0.948791  0  0  0.110411  0  1.010455  0  0  0.11425  0  1.00696  0  0  0.117732  0.107527  0  1.01315  0
H  H15  1  0.49888817  0.91725874  0.32322220  1  0  0.099369  0  0.948811  0  0  0.110436  0  1.010478  0  0  0.114274  0  1.006986  0  0  0.117751  0.107555  0  1.013168  0
H  H16  1  0.99096822  0.06405617  0.34113029  1  0  0.118927  0  0.950601  0  0  0.127466  0  1.014132  0  0  0.131869  0  1.009977  0  0  0.119858  0.124179  0  1.017271  0
H  H17  1  0.00903069  0.93594213  0.65887254  1  0  0.11899  0  0.950588  0  0  0.127533  0  1.014117  0  0  0.131936  0  1.009961  0  0  0.119882  0.124246  0  1.017253  0
H  H18  1  0.11410066  0.62918919  0.15202307  1  0  0.109786  0  0.939997  0  0  0.11569  0  1.007171  0  0  0.120051  0  1.003459  0  0  0.114072  0.112521  0  1.009877  0
H  H19  1  0.88591415  0.37080418  0.84798188  1  0  0.109745  0  0.939959  0  0  0.115637  0  1.007166  0  0  0.120004  0  1.003447  0  0  0.114094  0.112476  0  1.009864  0
H  H20  1  0.25979400  0.74149237  0.97082575  1  0  0.118037  0  0.929546  0  0  0.128509  0  0.988021  0  0  0.132477  0  0.985512  0  0  0.11303  0.125661  0  0.989946  0
H  H21  1  0.74020301  0.25850364  0.02917469  1  0  0.11805  0  0.929512  0  0  0.128525  0  0.987994  0  0  0.132489  0  0.98549  0  0  0.113035  0.12568  0  0.98991  0
C  C22  1  0.48893827  0.38581204  0.72355797  1  0  0.645822  0  3.961997  0  0  0.597049  0  4.256581  0  0  0.630229  0  4.250425  0  0  0.207532  0.574611  0  4.259937  0
C  C23  1  0.51105277  0.61418643  0.27643854  1  0  0.645968  0  3.961998  0  0  0.597203  0  4.25654  0  0  0.630387  0  4.250377  0  0  0.20767  0.574753  0  4.259912  0
C  C24  1  0.41756923  0.27109140  0.80447549  1  0  -0.059478  0  3.701267  0  0  -0.035498  0  3.938815  0  0  -0.044165  0  3.961157  0  0  -0.005443  -0.030104  0  3.923931  0
C  C25  1  0.58242094  0.72891405  0.19552442  1  0  -0.059431  0  3.701325  0  0  -0.035433  0  3.938827  0  0  -0.044097  0  3.961164  0  0  -0.005448  -0.030029  0  3.923936  0
C  C26  1  0.33235556  0.31872247  0.92085223  1  0  -0.021158  0  3.673712  0  0  -0.058188  0  3.923418  0  0  -0.053462  0  3.938868  0  0  -0.059633  -0.06108  0  3.912948  0
C  C27  1  0.66763869  0.68127825  0.07914744  1  0  -0.02126  0  3.673907  0  0  -0.058272  0  3.923569  0  0  -0.053552  0  3.939018  0  0  -0.059688  -0.061166  0  3.913109  0
C  C28  1  0.26768703  0.21192770  0.99383131  1  0  -0.160776  0  3.748918  0  0  -0.142112  0  4.002608  0  0  -0.150745  0  4.024598  0  0  -0.018748  -0.13647  0  3.987827  0
C  C29  1  0.73230758  0.78807186  0.00616747  1  0  -0.160771  0  3.748771  0  0  -0.142048  0  4.002387  0  0  -0.150667  0  4.024361  0  0  -0.018721  -0.136408  0  3.987613  0
C  C30  1  0.28411960  0.05868726  0.95830910  1  0  0.044751  0  3.810005  0  0  0.050166  0  4.046785  0  0  0.052031  0  4.071034  0  0  -0.000124  0.049098  0  4.030247  0
C  C31  1  0.71587932  0.94131108  0.04168752  1  0  0.044805  0  3.809972  0  0  0.050147  0  4.046819  0  0  0.051997  0  4.071088  0  0  -0.000134  0.049082  0  4.030268  0
C  C32  1  0.37027881  0.01225935  0.84277968  1  0  -0.088056  0  3.677276  0  0  -0.111903  0  3.939835  0  0  -0.115964  0  3.958929  0  0  -0.075359  -0.109357  0  3.926952  0
C  C33  1  0.62972726  0.98774118  0.15721969  1  0  -0.088028  0  3.677277  0  0  -0.111903  0  3.939832  0  0  -0.115968  0  3.95894  0  0  -0.075384  -0.109349  0  3.926934  0
C  C34  1  0.43522913  0.11899542  0.76714713  1  0  -0.034544  0  3.682821  0  0  -0.066284  0  3.94375  0  0  -0.063014  0  3.960852  0  0  -0.064046  -0.068154  0  3.932184  0
C  C35  1  0.56477694  0.88100511  0.23285224  1  0  -0.03464  0  3.682925  0  0  -0.066397  0  3.943867  0  0  -0.063134  0  3.960978  0  0  -0.06405  -0.06827  0  3.932291  0
C  C36  1  0.20466521  0.96839918  0.05264829  1  0  0.05033  0  3.804092  0  0  0.053638  0  4.042112  0  0  0.055822  0  4.066286  0  0  0.001352  0.052363  0  4.025614  0
C  C37  1  0.79532641  0.03160160  0.94734986  1  0  0.05029  0  3.804388  0  0  0.053653  0  4.042372  0  0  0.055837  0  4.066548  0  0  0.001362  0.052372  0  4.025876  0
C  C38  1  0.12633823  0.05487681  0.15807425  1  0  -0.161638  0  3.751414  0  0  -0.141989  0  4.004779  0  0  -0.15052  0  4.027166  0  0  -0.01908  -0.136482  0  3.989839  0
C  C39  1  0.87364682  0.94512407  0.84192456  1  0  -0.161578  0  3.751303  0  0  -0.141936  0  4.004675  0  0  -0.150467  0  4.027062  0  0  -0.019087  -0.136428  0  3.989729  0
C  C40  1  0.04662122  0.99441181  0.26022694  1  0  -0.046656  0  3.690331  0  0  -0.082121  0  3.937379  0  0  -0.078401  0  3.953826  0  0  -0.066689  -0.084267  0  3.926305  0
C  C41  1  0.95336632  0.00559369  0.73977146  1  0  -0.046859  0  3.69047  0  0  -0.082351  0  3.937569  0  0  -0.078629  0  3.954012  0  0  -0.066782  -0.084482  0  3.926484  0
C  C42  1  0.04200783  0.83862748  0.25654172  1  0  -0.058729  0  3.705754  0  0  -0.034383  0  3.942351  0  0  -0.042697  0  3.964183  0  0  -0.004289  -0.029228  0  3.927818  0
C  C43  1  0.95798284  0.16137214  0.74345834  1  0  -0.058717  0  3.70602  0  0  -0.034338  0  3.942596  0  0  -0.042654  0  3.964428  0  0  -0.004291  -0.029194  0  3.928076  0
C  C44  1  0.95096354  0.76716063  0.36244570  1  0  0.664806  0  3.926591  0  0  0.61445  0  4.218892  0  0  0.648282  0  4.212147  0  0  0.216789  0.591571  0  4.222615  0
C  C45  1  0.04903296  0.23284119  0.63755903  1  0  0.664635  0  3.926794  0  0  0.614283  0  4.219095  0  0  0.648113  0  4.212352  0  0  0.21676  0.5914  0  4.222825  0
C  C46  1  0.11962994  0.74980521  0.15230656  1  0  -0.028845  0  3.669396  0  0  -0.059192  0  3.929563  0  0  -0.056076  0  3.9463  0  0  -0.061969  -0.061001  0  3.918192  0
C  C47  1  0.88037160  0.25019305  0.84769512  1  0  -0.028663  0  3.669334  0  0  -0.05902  0  3.929544  0  0  -0.055907  0  3.946276  0  0  -0.06193  -0.06084  0  3.918201  0
C  C48  1  0.20081411  0.81286426  0.05062316  1  0  -0.091875  0  3.680945  0  0  -0.114831  0  3.943294  0  0  -0.119123  0  3.962304  0  0  -0.076965  -0.112088  0  3.930443  0
C  C49  1  0.79918589  0.18713055  0.94937703  1  0  -0.091944  0  3.681079  0  0  -0.114924  0  3.943466  0  0  -0.119213  0  3.962475  0  0  -0.076969  -0.112173  0  3.930607  0
S  S50  1  0.15067085  0.24640117  0.14130929  1  0  1.112119  0  5.188019  0  0  1.041539  0  5.666773  0  0  1.082945  0  5.653319  0  0  0.504378  1.012487  0  5.676186  0
S  S51  1  0.84932616  0.75359486  0.85868760  1  0  1.112148  0  5.188096  0  0  1.041569  0  5.666822  0  0  1.082973  0  5.65337  0  0  0.504423  1.01251  0  5.676246  0
O  O52  1  0.53569882  0.35193083  0.61083466  1  0  -0.77619  0  2.041017  0  0  -0.704376  0  2.280736  0  0  -0.733619  0  2.272227  0  0  -0.391209  -0.683671  0  2.285952  0
O  O53  1  0.46430009  0.64806749  0.38916640  1  0  -0.776257  0  2.040853  0  0  -0.70448  0  2.280651  0  0  -0.733699  0  2.272078  0  0  -0.391275  -0.683773  0  2.285877  0
O  O54  1  0.63494649  0.15361023  0.43345738  1  0  -0.880481  0  1.812609  0  0  -0.821411  0  1.980682  0  0  -0.842278  0  1.948286  0  0  -0.601807  -0.806476  0  2.003268  0
O  O55  1  0.36505383  0.84639622  0.56654059  1  0  -0.880532  0  1.812586  0  0  -0.82144  0  1.980692  0  0  -0.842307  0  1.948287  0  0  -0.601833  -0.806506  0  2.003277  0
O  O56  1  0.49965355  0.50901620  0.76782893  1  0  -0.641424  0  1.90176  0  0  -0.595744  0  2.127353  0  0  -0.619148  0  2.118867  0  0  -0.345881  -0.579367  0  2.132658  0
O  O57  1  0.50034019  0.49099035  0.23217147  1  0  -0.641444  0  1.902043  0  0  -0.595761  0  2.127613  0  0  -0.619164  0  2.119119  0  0  -0.345939  -0.579386  0  2.132928  0
O  O58  1  0.16157992  0.63947004  0.60874487  1  0  -0.879677  0  1.833717  0  0  -0.831182  0  2.006863  0  0  -0.849935  0  1.978321  0  0  -0.615912  -0.817698  0  2.02683  0
O  O59  1  0.83842483  0.36053050  0.39125730  1  0  -0.87974  0  1.833729  0  0  -0.831254  0  2.006861  0  0  -0.850005  0  1.978319  0  0  -0.615952  -0.817772  0  2.026826  0
O  O60  1  0.97643929  0.36590454  0.14114589  1  0  -0.575251  0  1.935249  0  0  -0.523472  0  2.168838  0  0  -0.545482  0  2.158765  0  0  -0.287162  -0.507803  0  2.175261  0
O  O61  1  0.02356116  0.63409725  0.85885312  1  0  -0.575275  0  1.935408  0  0  -0.523485  0  2.16898  0  0  -0.545493  0  2.1589  0  0  -0.287151  -0.507806  0  2.175398  0
O  O62  1  0.26804348  0.26931086  0.22441524  1  0  -0.622429  0  1.994692  0  0  -0.565984  0  2.249257  0  0  -0.589284  0  2.23824  0  0  -0.330687  -0.549327  0  2.256344  0
O  O63  1  0.73196324  0.73067920  0.77558088  1  0  -0.622412  0  1.994818  0  0  -0.565985  0  2.249409  0  0  -0.589285  0  2.238392  0  0  -0.330708  -0.549325  0  2.256506  0
O  O64  1  0.82897679  0.85567769  0.43755071  1  0  -0.684539  0  1.965367  0  0  -0.62343  0  2.189937  0  0  -0.649986  0  2.179905  0  0  -0.33883  -0.604781  0  2.196225  0
O  O65  1  0.17102365  0.14432406  0.56245451  1  0  -0.684501  0  1.965327  0  0  -0.623407  0  2.189906  0  0  -0.649963  0  2.179874  0  0  -0.338855  -0.604749  0  2.196196  0
O  O66  1  0.99766410  0.61853487  0.37125849  1  0  -0.72468  0  2.000661  0  0  -0.661585  0  2.24925  0  0  -0.689103  0  2.241218  0  0  -0.402519  -0.642196  0  2.254186  0
O  O67  1  0.00234028  0.38146680  0.62874989  1  0  -0.724531  0  2.00061  0  0  -0.661441  0  2.249199  0  0  -0.688955  0  2.241168  0  0  -0.402458  -0.642047  0  2.254135  0
