# generated using pymatgen
data_ZnPH15C17(NO3)2
_symmetry_space_group_name_H-M   'P 1'
_cell_length_a   6.82939505
_cell_length_b   9.89822247
_cell_length_c   12.28854754
_cell_angle_alpha   92.17861965
_cell_angle_beta   89.99969686
_cell_angle_gamma   90.00047488
_symmetry_Int_Tables_number   1
_chemical_formula_structural   ZnPH15C17(NO3)2
_chemical_formula_sum   'Zn2 P2 H30 C34 N4 O12'
_cell_volume   830.09149915
_cell_formula_units_Z   2
loop_
 _symmetry_equiv_pos_site_id
 _symmetry_equiv_pos_as_xyz
  1  'x, y, z'
loop_
 _atom_site_type_symbol
 _atom_site_label
 _atom_site_symmetry_multiplicity
 _atom_site_fract_x
 _atom_site_fract_y
 _atom_site_fract_z
 _atom_site_occupancy
 _atom_site_pbe_bader_spin_density
 _atom_site_pbe_cm5_charge
 _atom_site_pbe_ddec_charge
 _atom_site_pbe_ddec_spin_density
 _atom_site_pbe_ddec_sum_bond_order
 _atom_site_pbe_magmom
Zn  Zn0  1  0.86343368  0.67525351  0.24666063  1  0  0.695882  0.882873  0  2.322516  0
Zn  Zn1  1  0.36343466  0.32474561  0.75334085  1  0  0.695876  0.882872  0  2.32247  0
P  P2  1  0.69783481  0.63016480  0.50059600  1  0  0.367759  1.284229  0  5.340445  0
P  P3  1  0.19783582  0.36983040  0.49940256  1  0  0.367797  1.284306  0  5.340557  0
H  H4  1  0.38332805  0.58656804  0.47333961  1  0  0.30352  0.390272  0  0.960742  0
H  H5  1  0.88333151  0.41342414  0.52665991  1  0  0.303552  0.39029  0  0.96071  0
H  H6  1  0.27211935  0.71113164  0.26432271  1  0  0.290354  0.396733  0  0.94134  0
H  H7  1  0.77211641  0.28886699  0.73567740  1  0  0.290356  0.396731  0  0.941342  0
H  H8  1  0.18457319  0.58440719  0.32961849  1  0  0.294989  0.41321  0  0.918588  0
H  H9  1  0.68456946  0.41558994  0.67038183  1  0  0.294976  0.413231  0  0.918569  0
H  H10  1  0.81980105  0.37549413  0.31276223  1  0  0.123282  0.106015  0  1.014807  0
H  H11  1  0.31981505  0.62450380  0.68723446  1  0  0.123257  0.106038  0  1.014737  0
H  H12  1  0.84866065  0.14497905  0.21886243  1  0  0.108624  0.112474  0  1.023266  0
H  H13  1  0.34867213  0.85502307  0.78113514  1  0  0.108624  0.112494  0  1.02322  0
H  H14  1  0.89069602  0.13358407  0.01434239  1  0  0.104431  0.094172  0  1.018202  0
H  H15  1  0.39070276  0.86641929  0.98565511  1  0  0.104424  0.094129  0  1.01822  0
H  H16  1  0.90124006  0.34388657  0.91441811  1  0  0.111726  0.132477  0  1.03532  0
H  H17  1  0.40124112  0.65611889  0.08557862  1  0  0.111777  0.132544  0  1.03528  0
H  H18  1  0.85204828  0.52707178  0.84033043  1  0  0.115729  0.133557  0  1.002453  0
H  H19  1  0.35205083  0.47293236  0.15966884  1  0  0.115704  0.133556  0  1.002408  0
H  H20  1  0.86539966  0.75608406  0.76501018  1  0  0.107596  0.104584  0  1.038096  0
H  H21  1  0.36540314  0.24391909  0.23499308  1  0  0.107595  0.104596  0  1.038107  0
H  H22  1  0.87833993  0.95954138  0.89288293  1  0  0.105886  0.109035  0  1.02422  0
H  H23  1  0.37834218  0.04046388  0.10711875  1  0  0.105882  0.109039  0  1.02426  0
H  H24  1  0.87987217  0.92119173  0.09620173  1  0  0.115684  0.085769  0  1.008244  0
H  H25  1  0.37987463  0.07881148  0.90380311  1  0  0.115651  0.085746  0  1.008281  0
H  H26  1  0.53488280  0.87432040  0.61202893  1  0  0.101662  0.099547  0  1.041778  0
H  H27  1  0.03488341  0.12567189  0.38796838  1  0  0.101637  0.09953  0  1.041842  0
H  H28  1  0.69333084  0.07400145  0.70226221  1  0  0.103064  0.1041  0  1.023034  0
H  H29  1  0.19333898  0.92599271  0.29773715  1  0  0.103085  0.104109  0  1.02304  0
H  H30  1  0.25643100  0.92585453  0.59618711  1  0  0.102976  0.105931  0  1.031957  0
H  H31  1  0.75643009  0.07414498  0.40381633  1  0  0.102955  0.105922  0  1.031894  0
H  H32  1  0.09894773  0.72294742  0.50906514  1  0  0.108019  0.111429  0  1.019684  0
H  H33  1  0.59894696  0.27704810  0.49094350  1  0  0.108007  0.111382  0  1.019717  0
C  C34  1  0.83589359  0.36289751  0.22470375  1  0  0.060269  0.119453  0  3.884212  0
C  C35  1  0.33589519  0.63710455  0.77529305  1  0  0.06035  0.119464  0  3.884098  0
C  C36  1  0.85332362  0.23615043  0.17192636  1  0  -0.079728  -0.129572  0  3.960732  0
C  C37  1  0.35333209  0.76385073  0.82806954  1  0  -0.079778  -0.129653  0  3.960672  0
C  C38  1  0.87515914  0.23003766  0.05910054  1  0  -0.069636  -0.024329  0  3.978854  0
C  C39  1  0.37516515  0.76996462  0.94089615  1  0  -0.069575  -0.024197  0  3.97877  0
C  C40  1  0.87952215  0.34891842  0.00218469  1  0  -0.07871  -0.151278  0  3.911039  0
C  C41  1  0.37952473  0.65108490  0.99781202  1  0  -0.078784  -0.15137  0  3.91116  0
C  C42  1  0.86083867  0.47218582  0.06076608  1  0  0.119178  0.157121  0  4.001712  0
C  C43  1  0.36083886  0.52781737  0.93923231  1  0  0.119177  0.157117  0  4.001817  0
C  C44  1  0.86620915  0.60420701  0.00804951  1  0  0.123089  0.168631  0  3.993337  0
C  C45  1  0.36620872  0.39579822  0.99194976  1  0  0.123119  0.168608  0  3.993408  0
C  C46  1  0.86274057  0.61620884  0.89483188  1  0  -0.071629  -0.139785  0  3.885887  0
C  C47  1  0.36274403  0.38379535  0.10516818  1  0  -0.071595  -0.13975  0  3.885856  0
C  C48  1  0.86799823  0.74465831  0.85273508  1  0  -0.060558  -0.008223  0  3.940898  0
C  C49  1  0.36800414  0.25534689  0.14726662  1  0  -0.060544  -0.008204  0  3.940971  0
C  C50  1  0.87458481  0.85793684  0.92399345  1  0  -0.086966  -0.144287  0  3.984706  0
C  C51  1  0.37459004  0.14206841  0.07600743  1  0  -0.086985  -0.14439  0  3.984827  0
C  C52  1  0.87642656  0.83785858  0.03545790  1  0  0.048074  0.097337  0  3.965522  0
C  C53  1  0.37642651  0.16214668  0.96454378  1  0  0.048096  0.097421  0  3.965521  0
C  C54  1  0.80596070  0.78367170  0.55716976  1  0  -0.018505  -0.184074  0  3.98514  0
C  C55  1  0.30596041  0.21632518  0.44282366  1  0  -0.018586  -0.184314  0  3.98517  0
C  C56  1  0.69338007  0.88456073  0.61040502  1  0  -0.083179  -0.0729  0  3.995184  0
C  C57  1  0.19337907  0.11542942  0.38959092  1  0  -0.083045  -0.072738  0  3.995249  0
C  C58  1  0.78286720  0.99675004  0.66097886  1  0  -0.084837  -0.095673  0  3.96248  0
C  C59  1  0.28286973  0.00324661  0.33902195  1  0  -0.084917  -0.095687  0  3.962664  0
C  C60  1  0.98709022  0.01037898  0.65852296  1  0  -0.021679  -0.046568  0  3.981106  0
C  C61  1  0.48709431  0.98962183  0.34147903  1  0  -0.021675  -0.046658  0  3.981167  0
C  C62  1  0.09885763  0.91176700  0.60176135  1  0  -0.082299  -0.090342  0  3.962502  0
C  C63  1  0.59885402  0.08823569  0.39824106  1  0  -0.082236  -0.090272  0  3.962589  0
C  C64  1  0.01000745  0.79909454  0.55214020  1  0  -0.078465  -0.062568  0  3.95919  0
C  C65  1  0.51000618  0.20090770  0.44785921  1  0  -0.078477  -0.062474  0  3.959358  0
C  C66  1  0.08594202  0.12827769  0.71524494  1  0  0.202979  0.567766  0  4.215153  0
C  C67  1  0.58594450  0.87172188  0.28475820  1  0  0.202974  0.567827  0  4.215154  0
N  N68  1  0.83910420  0.47743713  0.16995608  1  0  -0.314076  -0.262617  0  3.501152  0
N  N69  1  0.33910390  0.52256494  0.83004152  1  0  -0.314109  -0.262647  0  3.501065  0
N  N70  1  0.87293776  0.71427096  0.07615326  1  0  -0.317844  -0.278767  0  3.541777  0
N  N71  1  0.37293372  0.28573326  0.92384840  1  0  -0.317864  -0.278769  0  3.541712  0
O  O72  1  0.75063346  0.51517117  0.57580860  1  0  -0.370217  -0.744813  0  2.217506  0
O  O73  1  0.25063510  0.48482635  0.42418990  1  0  -0.37027  -0.74485  0  2.217556  0
O  O74  1  0.47273453  0.66453994  0.50523682  1  0  -0.384981  -0.669249  0  2.273307  0
O  O75  1  0.97273296  0.33545267  0.49476733  1  0  -0.384982  -0.669238  0  2.273421  0
O  O76  1  0.77124430  0.59869085  0.38591009  1  0  -0.37954  -0.751266  0  2.375232  0
O  O77  1  0.27124899  0.40129668  0.61408795  1  0  -0.379568  -0.751316  0  2.375278  0
O  O78  1  0.98465591  0.21916906  0.76418327  1  0  -0.320929  -0.576369  0  2.223222  0
O  O79  1  0.48465557  0.78082969  0.23582028  1  0  -0.320899  -0.576377  0  2.22326  0
O  O80  1  0.27445949  0.13112444  0.71224377  1  0  -0.324916  -0.561073  0  2.281779  0
O  O81  1  0.77446044  0.86887415  0.28776039  1  0  -0.324914  -0.561087  0  2.281811  0
O  O82  1  0.15692280  0.64913258  0.27053387  1  0  -0.586085  -0.782962  0  2.133845  0
O  O83  1  0.65692212  0.35086441  0.72946570  1  0  -0.586059  -0.782966  0  2.133831  0
