# generated using pymatgen
data_CuH11C14N5Cl
_symmetry_space_group_name_H-M   'P 1'
_cell_length_a   8.21439136
_cell_length_b   9.50625045
_cell_length_c   9.58420645
_cell_angle_alpha   72.22643010
_cell_angle_beta   72.83146990
_cell_angle_gamma   67.00457165
_symmetry_Int_Tables_number   1
_chemical_formula_structural   CuH11C14N5Cl
_chemical_formula_sum   'Cu2 H22 C28 N10 Cl2'
_cell_volume   642.70854619
_cell_formula_units_Z   2
loop_
 _symmetry_equiv_pos_site_id
 _symmetry_equiv_pos_as_xyz
  1  'x, y, z'
loop_
 _atom_site_type_symbol
 _atom_site_label
 _atom_site_symmetry_multiplicity
 _atom_site_fract_x
 _atom_site_fract_y
 _atom_site_fract_z
 _atom_site_occupancy
 _atom_site_hle17_bader_spin_density
 _atom_site_hle17_ddec_charge
 _atom_site_hle17_ddec_spin_density
 _atom_site_hle17_ddec_sum_bond_order
 _atom_site_hle17_magmom
 _atom_site_hse06_10hf_bader_spin_density
 _atom_site_hse06_10hf_ddec_charge
 _atom_site_hse06_10hf_ddec_spin_density
 _atom_site_hse06_10hf_ddec_sum_bond_order
 _atom_site_hse06_10hf_magmom
 _atom_site_hse06_bader_spin_density
 _atom_site_hse06_ddec_charge
 _atom_site_hse06_ddec_spin_density
 _atom_site_hse06_ddec_sum_bond_order
 _atom_site_hse06_magmom
 _atom_site_pbe_bader_spin_density
 _atom_site_pbe_cm5_charge
 _atom_site_pbe_ddec_charge
 _atom_site_pbe_ddec_spin_density
 _atom_site_pbe_ddec_sum_bond_order
 _atom_site_pbe_magmom
Cu  Cu0  1  0.23716478  0.13386598  0.15356320  1  0  0.440086  0  1.994959  0  0  0.322707  0  2.485883  0  0  0.310096  0  2.451524  0  0  0.517726  0.334246  0  2.50601  0
Cu  Cu1  1  0.76283634  0.86612989  0.84644372  1  0  0.440085  0  1.994956  0  0  0.322741  0  2.485849  0  0  0.310138  0  2.451508  0  0  0.51775  0.334286  0  2.505898  0
H  H2  1  0.13477981  0.38405077  0.48904551  1  0  0.313173  0  0.953538  0  0  0.287436  0  1.032226  0  0  0.295663  0  1.025694  0  0  0.286315  0.282006  0  1.035733  0
H  H3  1  0.86521871  0.61595229  0.51094850  1  0  0.313147  0  0.953532  0  0  0.287403  0  1.032239  0  0  0.295627  0  1.025709  0  0  0.28629  0.281971  0  1.035749  0
H  H4  1  0.25546729  0.26288755  0.36006733  1  0  0.315248  0  0.927636  0  0  0.295997  0  0.998302  0  0  0.304361  0  0.991197  0  0  0.282325  0.289832  0  1.003949  0
H  H5  1  0.74453286  0.73711423  0.63993500  1  0  0.315243  0  0.927612  0  0  0.295964  0  0.998301  0  0  0.304324  0  0.991209  0  0  0.282324  0.289799  0  1.003944  0
H  H6  1  0.64397257  0.57271552  0.10040888  1  0  0.127852  0  0.990908  0  0  0.134108  0  1.059523  0  0  0.139141  0  1.057064  0  0  0.098018  0.130776  0  1.060338  0
H  H7  1  0.35602683  0.42728516  0.89958873  1  0  0.127902  0  0.990893  0  0  0.134158  0  1.059498  0  0  0.139196  0  1.057031  0  0  0.098034  0.130826  0  1.060313  0
H  H8  1  0.69560008  0.46709235  0.92394419  1  0  0.110487  0  0.972306  0  0  0.118568  0  1.036872  0  0  0.122171  0  1.035296  0  0  0.097376  0.11534  0  1.039054  0
H  H9  1  0.30440681  0.53291186  0.07605374  1  0  0.110502  0  0.972322  0  0  0.118568  0  1.036902  0  0  0.12217  0  1.035327  0  0  0.097384  0.115354  0  1.039069  0
H  H10  1  0.77669351  0.33197290  0.71482229  1  0  0.091664  0  0.944833  0  0  0.103204  0  1.004635  0  0  0.105587  0  1.003369  0  0  0.102785  0.101406  0  1.005368  0
H  H11  1  0.22331163  0.66803246  0.28517677  1  0  0.091613  0  0.944815  0  0  0.103177  0  1.004607  0  0  0.105561  0  1.003339  0  0  0.102784  0.101377  0  1.005338  0
H  H12  1  0.05900720  0.09825006  0.69735017  1  0  0.094965  0  0.959233  0  0  0.106657  0  1.020858  0  0  0.109535  0  1.019336  0  0  0.102895  0.104424  0  1.022468  0
H  H13  1  0.94099564  0.90174828  0.30264833  1  0  0.094988  0  0.959293  0  0  0.106691  0  1.020901  0  0  0.109565  0  1.019381  0  0  0.102908  0.104458  0  1.022512  0
H  H14  1  0.25412278  0.01430090  0.88363508  1  0  0.080161  0  0.988292  0  0  0.083675  0  1.062072  0  0  0.087629  0  1.058913  0  0  0.095729  0.080794  0  1.064374  0
H  H15  1  0.74587794  0.98569621  0.11636741  1  0  0.08019  0  0.98824  0  0  0.083686  0  1.062044  0  0  0.087638  0  1.058886  0  0  0.095735  0.080803  0  1.064344  0
H  H16  1  0.51196553  0.82189368  0.13149256  1  0  0.07969  0  0.98599  0  0  0.078566  0  1.072647  0  0  0.085158  0  1.063902  0  0  0.102074  0.073931  0  1.078769  0
H  H17  1  0.48803252  0.17811054  0.86850227  1  0  0.079744  0  0.985939  0  0  0.078605  0  1.072611  0  0  0.085188  0  1.063889  0  0  0.102106  0.073975  0  1.078723  0
H  H18  1  0.56852119  0.59504222  0.58860425  1  0  0.09998  0  0.944141  0  0  0.109894  0  1.007985  0  0  0.113076  0  1.00531  0  0  0.108237  0.106748  0  1.011516  0
H  H19  1  0.43148216  0.40495502  0.41139027  1  0  0.100002  0  0.944172  0  0  0.109934  0  1.007988  0  0  0.113099  0  1.005334  0  0  0.10825  0.106787  0  1.011517  0
H  H20  1  0.29733311  0.81386233  0.67015869  1  0  0.11048  0  0.956661  0  0  0.119195  0  1.017719  0  0  0.121982  0  1.018047  0  0  0.102763  0.117964  0  1.016124  0
H  H21  1  0.70267324  0.18613012  0.32984378  1  0  0.110486  0  0.956621  0  0  0.119201  0  1.017685  0  0  0.121991  0  1.018014  0  0  0.102757  0.11797  0  1.016091  0
H  H22  1  0.14255268  0.02639655  0.47416864  1  0  0.070303  0  0.966619  0  0  0.076705  0  1.038789  0  0  0.079906  0  1.034848  0  0  0.109429  0.074503  0  1.0415  0
H  H23  1  0.85745026  0.97359463  0.52584023  1  0  0.070405  0  0.966493  0  0  0.076793  0  1.038686  0  0  0.079998  0  1.034724  0  0  0.109466  0.074565  0  1.041426  0
C  C24  1  0.99704432  0.38100524  0.34327321  1  0  0.629212  0  3.832863  0  0  0.588232  0  4.100223  0  0  0.611878  0  4.108585  0  0  0.339638  0.572667  0  4.094322  0
C  C25  1  0.00295287  0.61899774  0.65672636  1  0  0.629232  0  3.832764  0  0  0.588274  0  4.100102  0  0  0.611924  0  4.108462  0  0  0.339684  0.572706  0  4.094198  0
C  C26  1  0.72266689  0.56340407  0.30152583  1  0  0.277919  0  3.799223  0  0  0.26519  0  4.052971  0  0  0.281654  0  4.068738  0  0  0.126451  0.254298  0  4.039677  0
C  C27  1  0.27733121  0.43659657  0.69847419  1  0  0.278043  0  3.799193  0  0  0.265298  0  4.05299  0  0  0.28176  0  4.068762  0  0  0.1265  0.254407  0  4.039675  0
C  C28  1  0.74286065  0.51390721  0.17214826  1  0  -0.272651  0  3.66267  0  0  -0.302787  0  3.925421  0  0  -0.316704  0  3.942345  0  0  -0.101066  -0.289361  0  3.910358  0
C  C29  1  0.25713653  0.48609575  0.82785236  1  0  -0.272785  0  3.662727  0  0  -0.302926  0  3.925476  0  0  -0.316848  0  3.9424  0  0  -0.101092  -0.289496  0  3.910398  0
C  C30  1  0.89443516  0.38452824  0.14087771  1  0  0.247191  0  3.769364  0  0  0.235203  0  4.019312  0  0  0.251294  0  4.030783  0  0  0.123686  0.223892  0  4.01255  0
C  C31  1  0.10556157  0.61547591  0.85912164  1  0  0.247227  0  3.769417  0  0  0.235295  0  4.019286  0  0  0.251384  0  4.030759  0  0  0.123675  0.223981  0  4.012507  0
C  C32  1  0.93215862  0.31160447  0.01430133  1  0  0.152173  0  3.719627  0  0  0.152549  0  3.955504  0  0  0.155629  0  3.973704  0  0  0.105547  0.150154  0  3.944038  0
C  C33  1  0.06783653  0.68839374  0.98570428  1  0  0.152128  0  3.719846  0  0  0.152538  0  3.955653  0  0  0.15562  0  3.973851  0  0  0.105555  0.150144  0  3.944171  0
C  C34  1  0.81706418  0.36540440  0.91319493  1  0  -0.109301  0  3.683095  0  0  -0.129003  0  3.928452  0  0  -0.13327  0  3.947755  0  0  -0.078411  -0.125637  0  3.915937  0
C  C35  1  0.18293402  0.63459272  0.08680608  1  0  -0.10936  0  3.683118  0  0  -0.129078  0  3.928512  0  0  -0.133346  0  3.947812  0  0  -0.078441  -0.125722  0  3.915979  0
C  C36  1  0.86244994  0.29022518  0.79654814  1  0  -0.002407  0  3.704053  0  0  -0.024786  0  3.962452  0  0  -0.020731  0  3.978135  0  0  -0.073706  -0.026514  0  3.950785  0
C  C37  1  0.13754644  0.70977662  0.20345197  1  0  -0.002313  0  3.704043  0  0  -0.024706  0  3.962447  0  0  -0.02065  0  3.978131  0  0  -0.073709  -0.026422  0  3.950751  0
C  C38  1  0.01947559  0.16107209  0.78613061  1  0  -0.09407  0  3.720287  0  0  -0.11094  0  3.977731  0  0  -0.113705  0  3.995277  0  0  -0.084084  -0.111569  0  3.967869  0
C  C39  1  0.98052504  0.83892855  0.21386984  1  0  -0.094183  0  3.720494  0  0  -0.111052  0  3.977945  0  0  -0.113816  0  3.995489  0  0  -0.084126  -0.111681  0  3.96808  0
C  C40  1  0.12904427  0.11392704  0.88958795  1  0  0.113451  0  3.695551  0  0  0.084971  0  3.947073  0  0  0.089237  0  3.962394  0  0  0.034963  0.081949  0  3.939084  0
C  C41  1  0.87095646  0.88607008  0.11041349  1  0  0.113493  0  3.695526  0  0  0.085013  0  3.947076  0  0  0.089281  0  3.962395  0  0  0.034997  0.081992  0  3.939076  0
C  C42  1  0.46790842  0.81457348  0.25205774  1  0  0.08846  0  3.652027  0  0  0.05428  0  3.897344  0  0  0.06103  0  3.910166  0  0  0.044981  0.049058  0  3.890395  0
C  C43  1  0.53208799  0.18542836  0.74793921  1  0  0.088319  0  3.652088  0  0  0.05418  0  3.897453  0  0  0.060923  0  3.910275  0  0  0.04489  0.04893  0  3.890542  0
C  C44  1  0.56115404  0.68983919  0.35364109  1  0  -0.039284  0  3.751656  0  0  -0.013908  0  3.976789  0  0  -0.022454  0  4.000516  0  0  -0.004062  -0.009009  0  3.961515  0
C  C45  1  0.43884666  0.31016153  0.64635411  1  0  -0.0393  0  3.751627  0  0  -0.013966  0  3.976844  0  0  -0.022491  0  4.000529  0  0  -0.004056  -0.009064  0  3.96155  0
C  C46  1  0.49906545  0.68985640  0.50663309  1  0  -0.033362  0  3.682114  0  0  -0.061913  0  3.930395  0  0  -0.05644  0  3.94694  0  0  -0.068558  -0.065046  0  3.919805  0
C  C47  1  0.50093535  0.31014081  0.49336205  1  0  -0.033355  0  3.682022  0  0  -0.061898  0  3.930308  0  0  -0.056419  0  3.946869  0  0  -0.068553  -0.065026  0  3.919704  0
C  C48  1  0.34679360  0.81072822  0.55210849  1  0  -0.107117  0  3.74206  0  0  -0.11932  0  3.992263  0  0  -0.126324  0  4.013798  0  0  -0.087243  -0.114539  0  3.976437  0
C  C49  1  0.65320930  0.18926656  0.44789414  1  0  -0.107098  0  3.741966  0  0  -0.119299  0  3.99218  0  0  -0.126312  0  4.013717  0  0  -0.087229  -0.114517  0  3.976338  0
C  C50  1  0.26125416  0.92870535  0.44404676  1  0  0.109149  0  3.691986  0  0  0.080249  0  3.940215  0  0  0.088119  0  3.953575  0  0  0.033959  0.074762  0  3.932177  0
C  C51  1  0.73874701  0.07129057  0.55595700  1  0  0.108976  0  3.692017  0  0  0.080101  0  3.940278  0  0  0.087989  0  3.953627  0  0  0.033905  0.074634  0  3.932229  0
N  N52  1  0.01800501  0.31552435  0.22880958  1  0  -0.475487  0  3.227389  0  0  -0.413532  0  3.520138  0  0  -0.427275  0  3.521796  0  0  -0.364352  -0.408279  0  3.520494  0
N  N53  1  0.98198919  0.68447980  0.77118933  1  0  -0.475474  0  3.227354  0  0  -0.413551  0  3.520081  0  0  -0.4273  0  3.521748  0  0  -0.364339  -0.408294  0  3.520405  0
N  N54  1  0.84899149  0.49801637  0.38689510  1  0  -0.502079  0  3.021341  0  0  -0.450731  0  3.274141  0  0  -0.470423  0  3.285453  0  0  -0.322226  -0.434427  0  3.263251  0
N  N55  1  0.15101250  0.50198549  0.61310315  1  0  -0.502174  0  3.021386  0  0  -0.450843  0  3.274234  0  0  -0.47053  0  3.285524  0  0  -0.322306  -0.434535  0  3.263328  0
N  N56  1  0.13351391  0.32176043  0.41803650  1  0  -0.698414  0  3.110562  0  0  -0.659393  0  3.350991  0  0  -0.682065  0  3.346522  0  0  -0.577637  -0.644849  0  3.353273  0
N  N57  1  0.86648502  0.67824141  0.58196194  1  0  -0.698407  0  3.11048  0  0  -0.659345  0  3.350944  0  0  -0.68202  0  3.346483  0  0  -0.577646  -0.644802  0  3.353223  0
N  N58  1  0.08898929  0.18838498  0.00081406  1  0  -0.318565  0  3.338681  0  0  -0.252827  0  3.63593  0  0  -0.25823  0  3.642516  0  0  -0.357014  -0.250147  0  3.632202  0
N  N59  1  0.91100796  0.81161443  0.99918965  1  0  -0.318534  0  3.338885  0  0  -0.25282  0  3.636155  0  0  -0.258228  0  3.64275  0  0  -0.357026  -0.25014  0  3.632392  0
N  N60  1  0.32185684  0.93312797  0.29572913  1  0  -0.285522  0  3.397004  0  0  -0.213298  0  3.695959  0  0  -0.220773  0  3.701722  0  0  -0.366344  -0.208986  0  3.692164  0
N  N61  1  0.67813961  0.06687028  0.70427406  1  0  -0.285389  0  3.396934  0  0  -0.21323  0  3.695922  0  0  -0.220707  0  3.701702  0  0  -0.366303  -0.208907  0  3.692072  0
Cl  Cl62  1  0.47395616  0.22212101  0.12860233  1  0  -0.613372  0  0.976107  0  0  -0.54493  0  1.258526  0  0  -0.56473  0  1.239419  0  0  -0.330181  -0.530369  0  1.270786  0
Cl  Cl63  1  0.52604364  0.77787844  0.87139971  1  0  -0.613368  0  0.976135  0  0  -0.544928  0  1.258526  0  0  -0.564731  0  1.239426  0  0  -0.330181  -0.530372  0  1.270774  0
