# generated using pymatgen
data_CeH16C9O8
_symmetry_space_group_name_H-M   'P 1'
_cell_length_a   8.92028995
_cell_length_b   9.76577362
_cell_length_c   10.32819005
_cell_angle_alpha   68.59001827
_cell_angle_beta   79.49647132
_cell_angle_gamma   59.00066746
_symmetry_Int_Tables_number   1
_chemical_formula_structural   CeH16C9O8
_chemical_formula_sum   'Ce2 H32 C18 O16'
_cell_volume   717.98178047
_cell_formula_units_Z   2
loop_
 _symmetry_equiv_pos_site_id
 _symmetry_equiv_pos_as_xyz
  1  'x, y, z'
loop_
 _atom_site_type_symbol
 _atom_site_label
 _atom_site_symmetry_multiplicity
 _atom_site_fract_x
 _atom_site_fract_y
 _atom_site_fract_z
 _atom_site_occupancy
 _atom_site_pbe_bader_charge
 _atom_site_pbe_bader_spin_density
 _atom_site_pbe_cm5_charge
 _atom_site_pbe_ddec_charge
 _atom_site_pbe_ddec_spin_density
 _atom_site_pbe_ddec_sum_bond_order
 _atom_site_pbe_magmom
Ce  Ce0  1  0.72285652  0.04552693  0.98575851  1  2.218689  0.98883  1.233927  1.935201  1.011655  2.212414  0.966
Ce  Ce1  1  0.27569150  0.95353148  0.01443601  1  2.215918  0.9989  1.227281  1.928765  1.023071  2.203893  0.973
H  H2  1  0.12092278  0.42825912  0.14727238  1  0.044202  0.000307  0.106462  0.122282  4.2e-05  0.996929  0.0
H  H3  1  0.05098537  0.46600237  0.30890550  1  0.04  -1.1e-05  0.098984  0.112915  -3.6e-05  0.973368  0.0
H  H4  1  0.85841583  0.41180558  0.12892844  1  0.036509  1.9e-05  0.095521  0.091756  -3.1e-05  0.997699  0.0
H  H5  1  0.77709060  0.45349576  0.28698320  1  0.017017  3.2e-05  0.092263  0.088724  1e-06  0.964193  0.0
H  H6  1  0.12732407  0.15277318  0.25217808  1  0.025541  0.000106  0.09771  0.081516  1.4e-05  1.021737  0.0
H  H7  1  0.04642460  0.19214165  0.41075492  1  0.031078  2.4e-05  0.088342  0.073686  6e-06  1.007268  0.0
H  H8  1  0.79007937  0.15855857  0.39446105  1  0.063666  -2e-06  0.100419  0.1188  -2.3e-05  0.98194  0.0
H  H9  1  0.99519396  0.97704606  0.39202103  1  0.070802  0.000134  0.108212  0.124216  1.9e-05  0.989929  0.0
H  H10  1  0.30457395  0.15542871  0.64551318  1  0.07318  6.3e-05  0.103443  0.12127  -1e-06  1.011403  0.0
H  H11  1  0.41609395  0.26188719  0.53029876  1  0.045161  2e-05  0.098729  0.115502  -7e-06  0.970702  0.0
H  H12  1  0.56908489  0.87689980  0.64652239  1  0.039394  -1e-06  0.093292  0.087058  -1.9e-05  0.986193  0.0
H  H13  1  0.67184226  0.98592659  0.52555442  1  0.019744  -2e-06  0.089378  0.076971  -8e-06  1.018991  0.0
H  H14  1  0.69865911  0.32554605  0.75168140  1  0.608541  7e-06  0.315059  0.404843  -3e-05  0.900845  0.0
H  H15  1  0.87485076  0.28061432  0.81425945  1  0.654869  0.000134  0.297934  0.391185  2.3e-05  0.950778  0.0
H  H16  1  0.44716034  0.34738772  0.06182653  1  0.628105  7.6e-05  0.330148  0.416842  -9e-06  0.873835  0.0
H  H17  1  0.33192774  0.31022914  0.99042216  1  0.649487  3.7e-05  0.301018  0.393582  -2.1e-05  0.951903  0.0
H  H18  1  0.87948545  0.57205490  0.85239141  1  0.048458  -1.9e-05  0.106873  0.122717  -4.2e-05  0.996945  0.0
H  H19  1  0.94922130  0.53426293  0.69074891  1  0.039746  -2.8e-05  0.09897  0.113418  -3.6e-05  0.97349  0.0
H  H20  1  0.14174765  0.58888048  0.87037755  1  0.044033  3.4e-05  0.095326  0.092009  -2.4e-05  0.996948  0.0
H  H21  1  0.22317849  0.54685524  0.71243055  1  0.009882  2.7e-05  0.091967  0.088193  1e-06  0.965302  0.0
H  H22  1  0.87265970  0.84726002  0.74700831  1  0.02843  0.000303  0.097705  0.081185  8.2e-05  1.022044  0.0
H  H23  1  0.95391698  0.80785882  0.58844145  1  0.014539  -1.4e-05  0.088524  0.07399  -1.8e-05  1.00686  0.0
H  H24  1  0.20947197  0.84255572  0.60482794  1  0.065239  -2.6e-05  0.100763  0.118895  -4.5e-05  0.982553  0.0
H  H25  1  0.00406941  0.02367542  0.60750983  1  0.066508  0.000275  0.108591  0.124546  5.6e-05  0.989294  0.0
H  H26  1  0.69534968  0.84360811  0.35591561  1  0.086229  1e-05  0.103199  0.120752  -3.9e-05  1.010564  0.0
H  H27  1  0.58306376  0.73790900  0.47092419  1  0.038137  1e-05  0.098493  0.114784  -1.5e-05  0.970201  0.0
H  H28  1  0.43099202  0.12272106  0.35419302  1  0.017789  1.5e-05  0.092954  0.087061  -1.3e-05  0.985679  0.0
H  H29  1  0.32780348  0.01415681  0.47507842  1  0.018168  -3e-06  0.08932  0.076955  -1.2e-05  1.019899  0.0
H  H30  1  0.30143784  0.67506608  0.24990236  1  0.623509  0.000216  0.314553  0.405049  5.4e-05  0.901316  0.0
H  H31  1  0.12608554  0.71895038  0.18643023  1  0.6572  1.2e-05  0.297839  0.391195  -6.1e-05  0.950467  0.0
H  H32  1  0.55376474  0.65313338  0.93633096  1  0.624886  0.000278  0.329439  0.416442  2.3e-05  0.873928  0.0
H  H33  1  0.66774963  0.68978962  0.00930917  1  0.649431  6.8e-05  0.301045  0.394104  -5e-05  0.950802  0.0
C  C34  1  0.90881892  0.67138144  0.13185542  1  1.526528  0.003586  0.222932  0.649439  0.001196  4.092072  0.003
C  C35  1  0.00455417  0.48484538  0.20903132  1  -0.006343  -0.000114  -0.161908  -0.297287  -0.000305  3.930151  0.0
C  C36  1  0.89854260  0.39553159  0.23034418  1  6e-05  0.000144  -0.163027  -0.116901  1.6e-05  3.925564  0.0
C  C37  1  0.00611363  0.20821523  0.30923754  1  -0.015355  0.000192  -0.160014  -0.12489  4.9e-05  3.956814  0.0
C  C38  1  0.90900813  0.11013063  0.33320629  1  -0.069618  -0.000197  -0.158587  -0.307316  -0.000332  3.923502  0.0
C  C39  1  0.86073318  0.10825861  0.20120573  1  1.569228  0.002207  0.230414  0.683757  0.000642  4.097612  0.002
C  C40  1  0.52339447  0.12130191  0.73605624  1  1.527449  0.000932  0.221801  0.668826  0.0002  4.115083  0.001
C  C41  1  0.43314869  0.14539071  0.61326155  1  -0.04783  -8.5e-05  -0.161883  -0.305076  -0.000174  3.916023  0.0
C  C42  1  0.54450923  0.99354513  0.56012902  1  -0.013579  0.000124  -0.157793  -0.117073  1.8e-05  3.923845  0.0
C  C43  1  0.09159430  0.32894361  0.86780202  1  1.54221  -2.9e-05  0.224391  0.651399  -0.000155  4.091701  0.0
C  C44  1  0.99577755  0.51547504  0.79053959  1  -0.021714  -0.000108  -0.162206  -0.298966  -0.000173  3.930635  0.0
C  C45  1  0.10172738  0.60489573  0.76901405  1  -0.016928  -1e-06  -0.162307  -0.11597  -4.2e-05  3.925884  0.0
C  C46  1  0.99391235  0.79207258  0.68995093  1  0.013107  0.000409  -0.160821  -0.125515  0.000115  3.957841  0.0
C  C47  1  0.09045630  0.89057899  0.66612128  1  -0.052474  -0.000142  -0.159434  -0.307879  -0.00034  3.926341  0.0
C  C48  1  0.13831563  0.89194723  0.79851235  1  1.548205  0.00452  0.229028  0.682017  0.001298  4.100019  0.004
C  C49  1  0.47698035  0.87776405  0.26475375  1  1.520341  0.003312  0.222138  0.670068  0.001001  4.114677  0.003
C  C50  1  0.56646146  0.85420088  0.38785063  1  -0.037455  -3.2e-05  -0.16221  -0.304572  -0.000199  3.916363  0.0
C  C51  1  0.45523953  0.00627286  0.44066542  1  0.027675  0.000279  -0.157624  -0.117308  6.7e-05  3.925297  0.0
O  O52  1  0.91733731  0.77329246  0.17716695  1  -1.194992  -9.8e-05  -0.344275  -0.624281  -0.002285  2.253066  -0.003
O  O53  1  0.82178806  0.72924748  0.02088995  1  -1.205279  -2.7e-05  -0.328618  -0.606117  -0.002367  2.25797  -0.003
O  O54  1  0.70642027  0.14020134  0.18546340  1  -1.19088  -0.001163  -0.360845  -0.619073  -0.003455  2.167107  -0.004
O  O55  1  0.97807296  0.06839618  0.10895919  1  -1.228902  -0.001287  -0.376811  -0.692878  -0.003369  2.313447  -0.004
O  O56  1  0.63594398  0.16932620  0.71881052  1  -1.206498  -0.001208  -0.349706  -0.630746  -0.002144  2.136776  -0.002
O  O57  1  0.49297013  0.04286417  0.85967479  1  -1.214262  -0.000476  -0.380455  -0.694704  -0.003027  2.309066  -0.004
O  O58  1  0.75008508  0.30961898  0.83543859  1  -1.252007  0.000206  -0.61028  -0.806047  -0.001391  1.989601  -0.002
O  O59  1  0.44194137  0.31630108  0.98387848  1  -1.255737  -0.000709  -0.607519  -0.809888  -0.001939  2.039653  -0.002
O  O60  1  0.08332830  0.22708166  0.82225904  1  -1.196126  -0.000362  -0.344771  -0.624623  -0.001663  2.251568  -0.002
O  O61  1  0.17826510  0.27121729  0.97888082  1  -1.205452  6e-05  -0.326301  -0.604845  -0.001315  2.254607  -0.001
O  O62  1  0.29235234  0.86109606  0.81423504  1  -1.18968  -0.000473  -0.363266  -0.619734  -0.002337  2.167721  -0.002
O  O63  1  0.02132208  0.93010365  0.89119152  1  -1.22788  0.001409  -0.376253  -0.694639  -0.002395  2.318335  -0.004
O  O64  1  0.36422695  0.83007613  0.28165682  1  -1.206823  -0.000563  -0.349729  -0.632983  -0.002538  2.141001  -0.003
O  O65  1  0.50833513  0.95548024  0.14129658  1  -1.212451  0.000216  -0.380111  -0.697102  -0.003189  2.312271  -0.004
O  O66  1  0.25112425  0.68954579  0.16611825  1  -1.267181  -0.000869  -0.610366  -0.804242  -0.002321  1.989223  -0.002
O  O67  1  0.55802405  0.68360608  0.01495807  1  -1.253447  0.000519  -0.607268  -0.811263  -0.001657  2.039366  -0.002
