# generated using pymatgen
data_Zn3H26C28S2(N3O2)6
_symmetry_space_group_name_H-M   'P 1'
_cell_length_a   8.89409200
_cell_length_b   11.82643406
_cell_length_c   12.41830371
_cell_angle_alpha   78.78504722
_cell_angle_beta   77.58256014
_cell_angle_gamma   76.04500583
_symmetry_Int_Tables_number   1
_chemical_formula_structural   Zn3H26C28S2(N3O2)6
_chemical_formula_sum   'Zn3 H26 C28 S2 N18 O12'
_cell_volume   1223.91735729
_cell_formula_units_Z   1
loop_
 _symmetry_equiv_pos_site_id
 _symmetry_equiv_pos_as_xyz
  1  'x, y, z'
loop_
 _atom_site_type_symbol
 _atom_site_label
 _atom_site_symmetry_multiplicity
 _atom_site_fract_x
 _atom_site_fract_y
 _atom_site_fract_z
 _atom_site_occupancy
 _atom_site_pbe_bader_charge
 _atom_site_pbe_bader_spin_density
 _atom_site_pbe_cm5_charge
 _atom_site_pbe_ddec_charge
 _atom_site_pbe_ddec_spin_density
 _atom_site_pbe_ddec_sum_bond_order
 _atom_site_pbe_magmom
Zn  Zn0  1  0.27954228  0.74123404  0.89972057  1  1.272388  0  0.704237  0.80373  0  2.396251  0
Zn  Zn1  1  0.72045204  0.25877600  0.10027541  1  1.272099  0  0.704212  0.803697  0  2.396248  0
Zn  Zn2  1  0.00000466  0.00000004  0.00000489  1  1.363905  0  0.715894  0.933351  0  2.273517  0
H  H3  1  0.03058189  0.38657447  0.25501245  1  0.112162  0  0.118472  0.107064  0  1.048194  0
H  H4  1  0.88655517  0.51538479  0.24416319  1  0.069387  0  0.122858  0.109607  0  0.967904  0
H  H5  1  0.00964231  0.59768630  0.04123931  1  0.236721  0  0.142778  0.128456  0  1.028482  0
H  H6  1  0.44125066  0.61869010  0.11580705  1  0.170234  0  0.143529  0.121998  0  0.971161  0
H  H7  1  0.76465613  0.65121780  0.30757381  1  0.052727  0  0.123291  0.107923  0  0.97285  0
H  H8  1  0.70997683  0.73219373  0.41865286  1  0.123491  0  0.117907  0.1042  0  1.033669  0
H  H9  1  0.83531227  0.79062294  0.13246382  1  0.194938  0  0.149359  0.131107  0  0.994478  0
H  H10  1  0.10275054  0.96891868  0.25592689  1  0.225477  0  0.138444  0.124032  0  1.005705  0
H  H11  1  0.11365909  0.25882449  0.35294523  1  0.144701  0  0.12458  0.129852  0  1.010833  0
H  H12  1  0.17579006  0.20883591  0.48056620  1  0.104814  0  0.120645  0.113141  0  0.998012  0
H  H13  1  0.33457263  0.26693392  0.18522213  1  0.252313  0  0.146757  0.137682  0  1.023548  0
H  H14  1  0.68221881  0.30491368  0.35124782  1  0.161402  0  0.142102  0.119879  0  0.965497  0
H  H15  1  0.32943336  0.07355116  0.01101032  1  0.160578  0  0.105977  0.131082  0  1.047328  0
H  H16  1  0.96942606  0.61342755  0.74497727  1  0.112147  0  0.11849  0.107119  0  1.048167  0
H  H17  1  0.11344933  0.48461722  0.75582628  1  0.069365  0  0.122869  0.109569  0  0.967986  0
H  H18  1  0.99036725  0.40231837  0.95875286  1  0.236723  0  0.142796  0.128489  0  1.02841  0
H  H19  1  0.55875196  0.38131902  0.88418617  1  0.170088  0  0.14354  0.122077  0  0.971063  0
H  H20  1  0.23534497  0.34877985  0.69241947  1  0.05234  0  0.123306  0.108023  0  0.972703  0
H  H21  1  0.29001030  0.26779607  0.58134578  1  0.123482  0  0.117885  0.104216  0  1.033745  0
H  H22  1  0.16470962  0.20937469  0.86753179  1  0.194863  0  0.149487  0.13137  0  0.994381  0
H  H23  1  0.89722974  0.03108903  0.74409915  1  0.225518  0  0.138458  0.124196  0  1.00567  0
H  H24  1  0.88633387  0.74117757  0.64704607  1  0.144676  0  0.124662  0.129989  0  1.01076  0
H  H25  1  0.82419793  0.79115915  0.51942967  1  0.104831  0  0.120638  0.113111  0  0.998124  0
H  H26  1  0.66540964  0.73312454  0.81476151  1  0.252393  0  0.146817  0.137663  0  1.02338  0
H  H27  1  0.31780419  0.69500391  0.64877205  1  0.160882  0  0.142107  0.119866  0  0.965535  0
H  H28  1  0.67056368  0.92644928  0.98899675  1  0.160636  0  0.105968  0.131115  0  1.047148  0
C  C29  1  0.99893579  0.48896362  0.38923990  1  -0.013608  0  0.000122  0.014658  0  3.913057  0
C  C30  1  0.91293699  0.59135890  0.43358502  1  0.047773  0  0.00162  0.017268  0  3.900479  0
C  C31  1  0.08475142  0.39657899  0.45619696  1  0.022796  0  0.005719  0.028606  0  3.88782  0
C  C32  1  0.00121033  0.47815343  0.26966853  1  0.294876  0  -0.042981  -0.136003  0  3.886674  0
C  C33  1  0.10803319  0.58746779  0.08445405  1  0.979821  0  0.168497  0.098847  0  3.854313  0
C  C34  1  0.32692073  0.59716081  0.12492381  1  0.992087  0  0.150364  0.145733  0  3.976563  0
C  C35  1  0.81231826  0.68768114  0.36448752  1  0.299515  0  -0.041541  -0.13636  0  3.909986  0
C  C36  1  0.89558869  0.81840461  0.18674906  1  0.976572  0  0.163236  0.083598  0  3.894183  0
C  C37  1  0.03283429  0.90647673  0.25154340  1  0.939209  0  0.15346  0.156263  0  3.930479  0
C  C38  1  0.17148362  0.28292056  0.41214358  1  0.272243  0  -0.042745  -0.146455  0  3.861029  0
C  C39  1  0.39621421  0.27872600  0.24762311  1  0.994824  0  0.173987  0.108863  0  3.835246  0
C  C40  1  0.56953639  0.29915585  0.33494886  1  0.979694  0  0.150007  0.147203  0  3.992469  0
C  C41  1  0.38754007  0.89006996  0.97744040  1  1.499709  0  0.20153  0.613218  0  4.154749  0
C  C42  1  0.42562223  0.99760512  0.99928156  1  -0.104135  0  -0.084246  -0.170978  0  3.877344  0
C  C43  1  0.00106437  0.51103757  0.61075445  1  -0.013466  0  6.4e-05  0.014544  0  3.913243  0
C  C44  1  0.08705494  0.40863885  0.56641614  1  0.047631  0  0.001627  0.017277  0  3.900678  0
C  C45  1  0.91525178  0.60341958  0.54379983  1  0.022477  0  0.005732  0.028737  0  3.887607  0
C  C46  1  0.99879601  0.52185036  0.73032272  1  0.294922  0  -0.043042  -0.136071  0  3.886834  0
C  C47  1  0.89197152  0.41253778  0.91553792  1  0.979909  0  0.168561  0.098868  0  3.85422  0
C  C48  1  0.67308302  0.40284829  0.87506762  1  0.991907  0  0.150361  0.145576  0  3.97671  0
C  C49  1  0.18767388  0.31231569  0.63550976  1  0.299862  0  -0.041558  -0.136491  0  3.910098  0
C  C50  1  0.10442099  0.18159574  0.81325198  1  0.976595  0  0.16315  0.083277  0  3.894132  0
C  C51  1  0.96715382  0.09352739  0.74847726  1  0.939362  0  0.153446  0.156055  0  3.930713  0
C  C52  1  0.82851171  0.71707710  0.58784981  1  0.272267  0  -0.042816  -0.146541  0  3.860792  0
C  C53  1  0.60377838  0.72129460  0.75236948  1  0.994638  0  0.173808  0.108812  0  3.835021  0
C  C54  1  0.43047760  0.70078642  0.66506684  1  0.980578  0  0.150088  0.147052  0  3.992518  0
C  C55  1  0.61246132  0.10993132  0.02256421  1  1.499223  0  0.201525  0.613209  0  4.154614  0
C  C56  1  0.57437691  0.00239624  0.00072983  1  -0.002446  0  -0.084213  -0.170892  0  3.87709  0
S  S57  1  0.93700613  0.78737153  0.86492616  1  3.794203  0  0.543177  1.401884  0  6.431417  0
S  S58  1  0.06299701  0.21263586  0.13507215  1  3.793991  0  0.543358  1.402202  0  6.431045  0
N  N59  1  0.24128884  0.62617712  0.04042662  1  -1.253912  0  -0.351268  -0.320256  0  3.560788  0
N  N60  1  0.11499980  0.53906019  0.19073988  1  -0.813426  0  -0.130245  0.172452  0  3.712022  0
N  N61  1  0.25392259  0.54344862  0.21796641  1  -0.692789  0  -0.220835  -0.263516  0  3.115627  0
N  N62  1  0.98135340  0.90152580  0.15664464  1  -1.209681  0  -0.342658  -0.308478  0  3.525853  0
N  N63  1  0.89727564  0.77514202  0.29469854  1  -0.817142  0  -0.136234  0.160476  0  3.750429  0
N  N64  1  0.98385996  0.83023700  0.33792777  1  -0.694192  0  -0.2244  -0.268044  0  3.080476  0
N  N65  1  0.54769641  0.28609755  0.23260317  1  -1.253924  0  -0.351951  -0.318479  0  3.564349  0
N  N66  1  0.33248528  0.28676048  0.35472254  1  -0.817507  0  -0.127689  0.182226  0  3.708595  0
N  N67  1  0.44072368  0.30033700  0.41158795  1  -0.697029  0  -0.224399  -0.273066  0  3.131637  0
N  N68  1  0.75871448  0.37382934  0.95956539  1  -1.253613  0  -0.351269  -0.32025  0  3.560645  0
N  N69  1  0.88500425  0.46094364  0.80925414  1  -0.813085  0  -0.130244  0.172521  0  3.712116  0
N  N70  1  0.74608256  0.45655959  0.78202578  1  -0.692968  0  -0.220863  -0.263469  0  3.116044  0
N  N71  1  0.01865219  0.09847731  0.84336699  1  -1.21019  0  -0.342672  -0.308313  0  3.525715  0
N  N72  1  0.10271628  0.22486017  0.70530579  1  -0.817213  0  -0.136261  0.160441  0  3.750641  0
N  N73  1  0.01611380  0.16976887  0.66208840  1  -0.693846  0  -0.224395  -0.268009  0  3.080711  0
N  N74  1  0.45230545  0.71389752  0.76739693  1  -1.253705  0  -0.351921  -0.318304  0  3.564108  0
N  N75  1  0.66751296  0.71322666  0.64527806  1  -0.817281  0  -0.127632  0.182059  0  3.708735  0
N  N76  1  0.55929118  0.69960609  0.58842181  1  -0.69775  0  -0.224447  -0.272912  0  3.131905  0
O  O77  1  0.11065217  0.75026670  0.81407800  1  -1.333101  0  -0.393212  -0.688052  0  2.300951  0
O  O78  1  0.92791355  0.86148972  0.95245120  1  -1.364959  0  -0.369409  -0.701598  0  2.39293  0
O  O79  1  0.87566276  0.68053297  0.91879281  1  -1.35274  0  -0.381053  -0.671978  0  2.135341  0
O  O80  1  0.85268729  0.85455051  0.77521392  1  -1.352764  0  -0.366464  -0.647008  0  2.124341  0
O  O81  1  0.25109952  0.90232410  0.94660074  1  -1.163978  0  -0.328877  -0.581132  0  2.368407  0
O  O82  1  0.48177701  0.79235844  0.98308072  1  -1.172411  0  -0.310374  -0.536359  0  2.137483  0
O  O83  1  0.88934562  0.24976000  0.18590774  1  -1.33281  0  -0.393266  -0.688124  0  2.300918  0
O  O84  1  0.07209013  0.13851155  0.04755143  1  -1.364862  0  -0.369442  -0.701693  0  2.39287  0
O  O85  1  0.12435094  0.31947345  0.08119836  1  -1.353062  0  -0.38111  -0.672069  0  2.135138  0
O  O86  1  0.14730108  0.14546494  0.22479323  1  -1.352588  0  -0.366477  -0.647074  0  2.124497  0
O  O87  1  0.74889932  0.09767807  0.05340409  1  -1.163683  0  -0.328893  -0.58114  0  2.368475  0
O  O88  1  0.51822565  0.20765072  0.01691812  1  -1.172095  0  -0.310405  -0.536414  0  2.137296  0
