# generated using pymatgen
data_Cu3H32Au3C22(S2N3)2
_symmetry_space_group_name_H-M   'P 1'
_cell_length_a   11.10770304
_cell_length_b   11.20697212
_cell_length_c   15.11600000
_cell_angle_alpha   73.25296604
_cell_angle_beta   89.66247624
_cell_angle_gamma   66.04373496
_symmetry_Int_Tables_number   1
_chemical_formula_structural   Cu3H32Au3C22(S2N3)2
_chemical_formula_sum   'Cu6 H64 Au6 C44 S8 N12'
_cell_volume   1633.33738904
_cell_formula_units_Z   2
loop_
 _symmetry_equiv_pos_site_id
 _symmetry_equiv_pos_as_xyz
  1  'x, y, z'
loop_
 _atom_site_type_symbol
 _atom_site_label
 _atom_site_symmetry_multiplicity
 _atom_site_fract_x
 _atom_site_fract_y
 _atom_site_fract_z
 _atom_site_occupancy
 _atom_site_hle17_bader_spin_density
 _atom_site_hle17_ddec_charge
 _atom_site_hle17_ddec_spin_density
 _atom_site_hle17_ddec_sum_bond_order
 _atom_site_hle17_magmom
 _atom_site_hse06_10hf_bader_spin_density
 _atom_site_hse06_10hf_ddec_charge
 _atom_site_hse06_10hf_ddec_spin_density
 _atom_site_hse06_10hf_ddec_sum_bond_order
 _atom_site_hse06_10hf_magmom
 _atom_site_hse06_bader_spin_density
 _atom_site_hse06_ddec_charge
 _atom_site_hse06_ddec_spin_density
 _atom_site_hse06_ddec_sum_bond_order
 _atom_site_hse06_magmom
 _atom_site_pbe_bader_charge
 _atom_site_pbe_bader_spin_density
 _atom_site_pbe_cm5_charge
 _atom_site_pbe_ddec_charge
 _atom_site_pbe_ddec_spin_density
 _atom_site_pbe_ddec_sum_bond_order
 _atom_site_pbe_magmom
Cu  Cu0  1  0.88387412  0.05632521  0.17890753  1  0  0.387892  0  2.308326  0  0  0.312412  0  2.813337  0  0  0.298209  0  2.778242  0  0.668096  0  0.527628  0.323518  0  2.835565  0
Cu  Cu1  1  0.11612633  0.94367463  0.82109343  1  0  0.387902  0  2.308327  0  0  0.312419  0  2.813364  0  0  0.298204  0  2.778265  0  0.668359  0  0.527626  0.323511  0  2.835624  0
Cu  Cu2  1  0.96959961  0.26819054  0.91830645  1  0  0.365495  0  2.366418  0  0  0.292351  0  2.875692  0  0  0.277611  0  2.840083  0  0.662686  0  0.523508  0.305251  0  2.897054  0
Cu  Cu3  1  0.03040347  0.73180723  0.08169493  1  0  0.365455  0  2.366431  0  0  0.292298  0  2.875692  0  0  0.277559  0  2.840089  0  0.662674  0  0.523517  0.305197  0  2.897101  0
Cu  Cu4  1  0.43650748  0.26863771  0.56485834  1  0  0.350209  0  2.338531  0  0  0.268552  0  2.849139  0  0  0.258407  0  2.812748  0  0.659238  0  0.508328  0.278751  0  2.87115  0
Cu  Cu5  1  0.56349386  0.73136212  0.43514129  1  0  0.350253  0  2.338512  0  0  0.268593  0  2.849132  0  0  0.258422  0  2.812715  0  0.659217  0  0.508335  0.278792  0  2.871141  0
H  H6  1  0.01776793  0.27035543  0.16513307  1  0  0.083865  0  0.978017  0  0  0.095587  0  1.051826  0  0  0.095611  0  1.053082  0  0.100891  0  0.086954  0.095384  0  1.051022  0
H  H7  1  0.98222940  0.72964542  0.83486702  1  0  0.083896  0  0.978089  0  0  0.095632  0  1.05187  0  0  0.095656  0  1.053125  0  0.100877  0  0.086982  0.095431  0  1.051063  0
H  H8  1  0.98186080  0.39729248  0.05362962  1  0  0.093776  0  0.937563  0  0  0.110591  0  0.994769  0  0  0.111217  0  0.996212  0  0.065075  0  0.09594  0.109925  0  0.993945  0
H  H9  1  0.01813694  0.60270735  0.94637135  1  0  0.093791  0  0.937496  0  0  0.110612  0  0.99472  0  0  0.111239  0  0.996162  0  0.065041  0  0.095942  0.109946  0  0.993896  0
H  H10  1  0.84090850  0.52675421  0.14738184  1  0  0.086343  0  0.945251  0  0  0.107528  0  1.00026  0  0  0.107463  0  1.002171  0  0.055142  0  0.097768  0.107405  0  0.99905  0
H  H11  1  0.15908882  0.47324665  0.85261693  1  0  0.086316  0  0.945265  0  0  0.107506  0  1.000272  0  0  0.107443  0  1.002183  0  0.055165  0  0.097757  0.107382  0  0.999061  0
H  H12  1  0.79900259  0.38954883  0.20658023  1  0  0.07305  0  0.942712  0  0  0.089823  0  1.005577  0  0  0.090399  0  1.006633  0  0.030016  0  0.088904  0.089242  0  1.005051  0
H  H13  1  0.20099431  0.61045305  0.79341899  1  0  0.073067  0  0.942687  0  0  0.089837  0  1.005546  0  0  0.090417  0  1.006601  0  0.030017  0  0.088907  0.089258  0  1.005018  0
H  H14  1  0.71343606  0.57123625  0.00212961  1  0  0.065178  0  0.964995  0  0  0.079149  0  1.036497  0  0  0.07902  0  1.037877  0  0.054472  0  0.080434  0.079032  0  1.035747  0
H  H15  1  0.28656169  0.42876359  0.99786871  1  0  0.065136  0  0.965032  0  0  0.079127  0  1.036498  0  0  0.078999  0  1.037876  0  0.05448  0  0.080422  0.07901  0  1.035747  0
H  H16  1  0.60730260  0.55075716  0.08750914  1  0  0.071827  0  0.927082  0  0  0.094436  0  0.980824  0  0  0.094873  0  0.981354  0  0.051526  0  0.092656  0.093941  0  0.980584  0
H  H17  1  0.39269604  0.44924267  0.91248919  1  0  0.071841  0  0.927028  0  0  0.094456  0  0.980751  0  0  0.094892  0  0.981282  0  0.051565  0  0.092681  0.093953  0  0.980519  0
H  H18  1  0.66570684  0.40338831  0.96323152  1  0  0.089617  0  0.935001  0  0  0.108383  0  0.989489  0  0  0.108992  0  0.990567  0  0.071138  0  0.097509  0.107776  0  0.988879  0
H  H19  1  0.33429312  0.59661050  0.03676702  1  0  0.089635  0  0.935021  0  0  0.108396  0  0.989512  0  0  0.109004  0  0.990591  0  0.071014  0  0.09751  0.10779  0  0.988901  0
H  H20  1  0.64557426  0.32502459  0.08017804  1  0  0.09106  0  0.9514  0  0  0.107897  0  1.009234  0  0  0.108286  0  1.010887  0  0.078223  0  0.096085  0.107418  0  1.008119  0
H  H21  1  0.35442432  0.67497318  0.91982205  1  0  0.091049  0  0.951478  0  0  0.107901  0  1.00929  0  0  0.108291  0  1.010944  0  0.078242  0  0.096082  0.107423  0  1.008177  0
H  H22  1  0.82411783  0.99406540  0.86555220  1  0  0.092263  0  0.943508  0  0  0.106864  0  1.00565  0  0  0.107044  0  1.007421  0  0.06553  0  0.093358  0.106933  0  1.003798  0
H  H23  1  0.17588435  0.00593238  0.13444986  1  0  0.092306  0  0.94352  0  0  0.106883  0  1.005691  0  0  0.107065  0  1.00746  0  0.06555  0  0.093355  0.106952  0  1.003837  0
H  H24  1  0.79440885  0.08922723  0.94593751  1  0  0.097763  0  0.942136  0  0  0.112656  0  1.00385  0  0  0.113372  0  1.005041  0  0.097601  0  0.096717  0.111897  0  1.003307  0
H  H25  1  0.20559159  0.91077260  0.05406411  1  0  0.097808  0  0.942126  0  0  0.112701  0  1.003827  0  0  0.113421  0  1.005017  0  0.097631  0  0.096726  0.111945  0  1.003283  0
H  H26  1  0.60192507  0.17576223  0.80483614  1  0  0.083875  0  0.939509  0  0  0.103088  0  1.000522  0  0  0.102895  0  1.002074  0  0.058591  0  0.09435  0.103072  0  0.999397  0
H  H27  1  0.39807573  0.82423452  0.19516548  1  0  0.083862  0  0.93953  0  0  0.103067  0  1.000545  0  0  0.102882  0  1.002079  0  0.058569  0  0.094339  0.103051  0  0.999421  0
H  H28  1  0.64698688  0.30264788  0.82405655  1  0  0.066494  0  0.930889  0  0  0.086661  0  0.988635  0  0  0.087644  0  0.988724  0  0.042204  0  0.088701  0.08586  0  0.988654  0
H  H29  1  0.35301219  0.69735092  0.17594530  1  0  0.066498  0  0.930896  0  0  0.086669  0  0.988624  0  0  0.087653  0  0.988712  0  0.042202  0  0.088694  0.085869  0  0.988645  0
H  H30  1  0.75515518  0.14040440  0.68654379  1  0  0.080512  0  0.939408  0  0  0.099478  0  0.997045  0  0  0.098749  0  1.000109  0  0.061919  0  0.091803  0.099892  0  0.994988  0
H  H31  1  0.24484521  0.85959338  0.31345827  1  0  0.080511  0  0.939365  0  0  0.099461  0  0.997064  0  0  0.098732  0  1.000125  0  0.061934  0  0.091788  0.099876  0  0.995007  0
H  H32  1  0.65917921  0.32018802  0.65530957  1  0  0.077844  0  0.95233  0  0  0.092852  0  1.021435  0  0  0.094112  0  1.020566  0  0.041867  0  0.090568  0.091646  0  1.022313  0
H  H33  1  0.34082118  0.67980975  0.34469183  1  0  0.077822  0  0.952334  0  0  0.092896  0  1.021385  0  0  0.094142  0  1.020533  0  0.041887  0  0.090588  0.091695  0  1.02226  0
H  H34  1  0.84052808  0.35515317  0.71859102  1  0  0.096181  0  0.937454  0  0  0.113628  0  0.991756  0  0  0.114082  0  0.993718  0  0.075039  0  0.098733  0.113081  0  0.990697  0
H  H35  1  0.15947098  0.64484563  0.28140951  1  0  0.096177  0  0.937411  0  0  0.113608  0  0.991749  0  0  0.114063  0  0.993711  0  0.075021  0  0.098737  0.113064  0  0.990687  0
H  H36  1  0.92852069  0.21922350  0.67053157  1  0  0.100839  0  0.926539  0  0  0.120348  0  0.977285  0  0  0.121147  0  0.978237  0  0.063576  0  0.103695  0.119698  0  0.97661  0
H  H37  1  0.07147970  0.78077427  0.32947049  1  0  0.100892  0  0.926512  0  0  0.120398  0  0.977259  0  0  0.121199  0  0.978209  0  0.06356  0  0.10372  0.119749  0  0.976583  0
H  H38  1  0.38061079  0.17640676  0.76244795  1  0  0.08996  0  0.968194  0  0  0.104548  0  1.033834  0  0  0.104559  0  1.035511  0  0.094462  0  0.090842  0.104562  0  1.032559  0
H  H39  1  0.61938786  0.82359307  0.23755169  1  0  0.089952  0  0.968188  0  0  0.104546  0  1.033839  0  0  0.104554  0  1.035517  0  0.094521  0  0.090838  0.104559  0  1.032566  0
H  H40  1  0.29271836  0.30535142  0.81490140  1  0  0.076644  0  0.966857  0  0  0.093699  0  1.02756  0  0  0.093513  0  1.02971  0  0.055514  0  0.085587  0.093782  0  1.026117  0
H  H41  1  0.70728028  0.69464841  0.18509758  1  0  0.076696  0  0.966829  0  0  0.093762  0  1.027529  0  0  0.093575  0  1.02968  0  0.055466  0  0.085621  0.093848  0  1.026086  0
H  H42  1  0.12031710  0.24993494  0.76561089  1  0  0.066135  0  0.970244  0  0  0.078667  0  1.047481  0  0  0.080851  0  1.045  0  0.011461  0  0.081209  0.077212  0  1.048998  0
H  H43  1  0.87968202  0.75006592  0.23438853  1  0  0.066124  0  0.970279  0  0  0.078662  0  1.047493  0  0  0.080841  0  1.045018  0  0.01146  0  0.081202  0.077206  0  1.04901  0
H  H44  1  0.18593755  0.23494004  0.65964559  1  0  0.078569  0  0.934496  0  0  0.097612  0  0.99068  0  0  0.098509  0  0.991149  0  0.059006  0  0.090981  0.096891  0  0.990498  0
H  H45  1  0.81406110  0.76505980  0.34035273  1  0  0.078625  0  0.934454  0  0  0.097644  0  0.990654  0  0  0.098541  0  0.991121  0  0.059025  0  0.090987  0.096923  0  0.990469  0
H  H46  1  0.04594923  0.49881622  0.71297302  1  0  0.063469  0  0.955378  0  0  0.07959  0  1.0231  0  0  0.0797  0  1.024628  0  0.029096  0  0.081915  0.07942  0  1.022236  0
H  H47  1  0.95404899  0.50118464  0.28702641  1  0  0.063487  0  0.955389  0  0  0.079581  0  1.023133  0  0  0.07969  0  1.024663  0  0.029092  0  0.081912  0.079412  0  1.022269  0
H  H48  1  0.99735949  0.46479474  0.61539822  1  0  0.071711  0  0.93413  0  0  0.093673  0  0.988769  0  0  0.093484  0  0.990666  0  0.034539  0  0.090391  0.093716  0  0.987591  0
H  H49  1  0.00264096  0.53520510  0.38460076  1  0  0.071735  0  0.934115  0  0  0.093689  0  0.98875  0  0  0.093499  0  0.990646  0  0.034565  0  0.090402  0.093733  0  0.987571  0
H  H50  1  0.14406486  0.61421437  0.59975789  1  0  0.069831  0  0.98023  0  0  0.08004  0  1.057312  0  0  0.081108  0  1.056462  0  0.046522  0  0.075845  0.079385  0  1.057789  0
H  H51  1  0.85593469  0.38578546  0.40024109  1  0  0.069851  0  0.980181  0  0  0.080044  0  1.057275  0  0  0.081111  0  1.056427  0  0.046776  0  0.075847  0.079389  0  1.057752  0
H  H52  1  0.17126606  0.49986268  0.53272895  1  0  0.086552  0  0.94917  0  0  0.101358  0  1.009734  0  0  0.103166  0  1.008833  0  0.047018  0  0.089801  0.100207  0  1.010304  0
H  H53  1  0.82873481  0.50013612  0.46727157  1  0  0.086574  0  0.949152  0  0  0.101375  0  1.009721  0  0  0.103185  0  1.008815  0  0.047024  0  0.089804  0.100224  0  1.01029  0
H  H54  1  0.39278651  0.36945831  0.35366859  1  0  0.08396  0  0.963109  0  0  0.096442  0  1.030222  0  0  0.097247  0  1.030534  0  0.080297  0  0.085192  0.095861  0  1.029993  0
H  H55  1  0.60721310  0.63054357  0.64633127  1  0  0.083966  0  0.963144  0  0  0.096455  0  1.030268  0  0  0.097261  0  1.030576  0  0.080258  0  0.085206  0.095875  0  1.03004  0
H  H56  1  0.47286105  0.48068602  0.30688955  1  0  0.075473  0  0.977499  0  0  0.089638  0  1.044092  0  0  0.089962  0  1.045834  0  0.052358  0  0.084341  0.089404  0  1.042894  0
H  H57  1  0.52713993  0.51931689  0.69310942  1  0  0.075488  0  0.977513  0  0  0.089675  0  1.044097  0  0  0.089987  0  1.04585  0  0.052404  0  0.084363  0.089441  0  1.042899  0
H  H58  1  0.53017296  0.25516316  0.25153695  1  0  0.064656  0  0.965876  0  0  0.07903  0  1.037956  0  0  0.079273  0  1.038115  0  0.050365  0  0.077844  0.078879  0  1.0376  0
H  H59  1  0.46982533  0.74483975  0.74846336  1  0  0.064689  0  0.965906  0  0  0.079063  0  1.03797  0  0  0.079307  0  1.03813  0  0.050362  0  0.077857  0.078911  0  1.037615  0
H  H60  1  0.65993669  0.30022703  0.27555365  1  0  0.065377  0  0.939256  0  0  0.084312  0  0.999699  0  0  0.085226  0  1.000249  0  0.019553  0  0.085116  0.083631  0  0.999398  0
H  H61  1  0.34006466  0.69977280  0.72444598  1  0  0.065385  0  0.939304  0  0  0.084327  0  0.99972  0  0  0.085241  0  1.000268  0  0.019561  0  0.085118  0.08363  0  0.999438  0
H  H62  1  0.73325927  0.05575057  0.36659085  1  0  0.082598  0  0.936676  0  0  0.098263  0  1.000334  0  0  0.099272  0  1.000293  0  0.058868  0  0.090897  0.097418  0  1.000574  0
H  H63  1  0.26673896  0.94425029  0.63340924  1  0  0.082603  0  0.936658  0  0  0.098269  0  1.000318  0  0  0.099277  0  1.000276  0  0.058815  0  0.090904  0.097424  0  1.000557  0
H  H64  1  0.57913964  0.09178378  0.41262183  1  0  0.082829  0  0.92173  0  0  0.102478  0  0.976002  0  0  0.102669  0  0.977914  0  0.054283  0  0.09177  0.102322  0  0.974661  0
H  H65  1  0.42085775  0.90821914  0.58737782  1  0  0.082834  0  0.921728  0  0  0.102507  0  0.975969  0  0  0.1027  0  0.977877  0  0.054312  0  0.091798  0.102351  0  0.974628  0
H  H66  1  0.79151407  0.18874644  0.44804169  1  0  0.076494  0  0.9523  0  0  0.09237  0  1.01524  0  0  0.092378  0  1.016578  0  0.052436  0  0.084154  0.092824  0  1.013491  0
H  H67  1  0.20848637  0.81125339  0.55195794  1  0  0.076519  0  0.952298  0  0  0.092395  0  1.015229  0  0  0.092405  0  1.016568  0  0.052434  0  0.084167  0.09285  0  1.01348  0
H  H68  1  0.71994199  0.09832163  0.53302633  1  0  0.079788  0  0.99084  0  0  0.091309  0  1.065379  0  0  0.091977  0  1.065451  0  0.061516  0  0.080505  0.090682  0  1.065543  0
H  H69  1  0.28005672  0.90168026  0.46697354  1  0  0.079763  0  0.990852  0  0  0.091291  0  1.065369  0  0  0.091961  0  1.065445  0  0.061464  0  0.080473  0.090664  0  1.065534  0
Au  Au70  1  0.10860143  0.17688271  0.39763462  1  0  0.097085  0  2.485057  0  0  0.048748  0  2.971273  0  0  0.060071  0  2.934051  0  0.247879  0  0.294767  0.041973  0  2.995276  0
Au  Au71  1  0.89140040  0.82311815  0.60236479  1  0  0.09712  0  2.485084  0  0  0.048795  0  2.971295  0  0  0.060117  0  2.934073  0  0.247792  0  0.294791  0.042019  0  2.995301  0
Au  Au72  1  0.43599633  0.11979990  0.06147109  1  0  0.060301  0  2.499702  0  0  0.001052  0  3.002921  0  0  0.013724  0  2.964313  0  0.244227  0  0.268446  -0.005139  0  3.025201  0
Au  Au73  1  0.56400430  0.88020610  0.93852855  1  0  0.060298  0  2.499661  0  0  0.001041  0  3.002887  0  0  0.01372  0  2.964268  0  0.243712  0  0.268431  -0.005151  0  3.025174  0
Au  Au74  1  0.70858255  0.77904935  0.76455001  1  0  0.075899  0  2.584309  0  0  0.029867  0  3.096359  0  0  0.039562  0  3.05749  0  0.248517  0  0.285758  0.023921  0  3.121442  0
Au  Au75  1  0.29141783  0.22094842  0.23545073  1  0  0.075961  0  2.584349  0  0  0.029925  0  3.096414  0  0  0.039628  0  3.057539  0  0.248607  0  0.285793  0.023981  0  3.121501  0
C  C76  1  0.21805357  0.23629078  0.46137532  1  0  0.043968  0  3.598871  0  0  0.047861  0  3.942262  0  0  0.051386  0  3.948832  0  0.784827  0  -0.009106  0.045233  0  3.938088  0
C  C77  1  0.78194742  0.76371214  0.53862365  1  0  0.04394  0  3.598847  0  0  0.047833  0  3.942242  0  0  0.051359  0  3.948812  0  0.784788  0  -0.009149  0.045208  0  3.938068  0
C  C78  1  0.00453151  0.11419030  0.33266567  1  0  0.046399  0  3.612621  0  0  0.049642  0  3.961013  0  0  0.054293  0  3.96602  0  0.775367  0  -0.008109  0.045692  0  3.957959  0
C  C79  1  0.99547110  0.88580645  0.66733594  1  0  0.046387  0  3.612626  0  0  0.049611  0  3.961038  0  0  0.054263  0  3.966041  0  0.775204  0  -0.008104  0.045663  0  3.95799  0
C  C80  1  0.61291053  0.07614434  0.11943143  1  0  0.065764  0  3.615965  0  0  0.072618  0  3.958929  0  0  0.075203  0  3.966543  0  0.795161  0  -0.005759  0.07097  0  3.951827  0
C  C81  1  0.38709082  0.92385549  0.88057217  1  0  0.065811  0  3.615955  0  0  0.072656  0  3.958897  0  0  0.075242  0  3.966509  0  0.795103  0  -0.005748  0.071008  0  3.951802  0
C  C82  1  0.25817469  0.17499229  0.99944578  1  0  0.063258  0  3.623563  0  0  0.069532  0  3.972282  0  0  0.072441  0  3.979279  0  0.828527  0  -0.003789  0.06729  0  3.966334  0
C  C83  1  0.74182858  0.82501166  0.00055164  1  0  0.063158  0  3.623645  0  0  0.069429  0  3.972363  0  0  0.072343  0  3.979349  0  0.828594  0  -0.003843  0.067189  0  3.966428  0
C  C84  1  0.80925567  0.57993590  0.82313826  1  0  0.060299  0  3.613033  0  0  0.065966  0  3.958295  0  0  0.069918  0  3.964256  0  0.808142  0  -0.00461  0.062493  0  3.955153  0
C  C85  1  0.19074382  0.42006187  0.17686314  1  0  0.060208  0  3.613007  0  0  0.065867  0  3.958279  0  0  0.069817  0  3.964243  0  0.808002  0  -0.004674  0.062395  0  3.955148  0
C  C86  1  0.60393364  0.97492575  0.69614920  1  0  0.040554  0  3.614992  0  0  0.044431  0  3.959599  0  0  0.047534  0  3.966522  0  0.814574  0  -0.012384  0.041755  0  3.955009  0
C  C87  1  0.39606681  0.02507409  0.30384845  1  0  0.040573  0  3.614873  0  0  0.044449  0  3.959484  0  0  0.047549  0  3.966403  0  0.814538  0  -0.012383  0.041771  0  3.954897  0
C  C88  1  0.93914517  0.34388978  0.10800815  1  0  -0.124004  0  3.592795  0  0  -0.15909  0  3.845222  0  0  -0.161072  0  3.859639  0  -0.120543  0  -0.149575  -0.15738  0  3.835514  0
C  C89  1  0.06085305  0.65611108  0.89199128  1  0  -0.124044  0  3.592784  0  0  -0.159172  0  3.845259  0  0  -0.161152  0  3.85968  0  -0.120539  0  -0.149598  -0.15746  0  3.835551  0
C  C90  1  0.81956130  0.44292687  0.13904408  1  0  -0.104389  0  3.669446  0  0  -0.14161  0  3.921391  0  0  -0.14358  0  3.937933  0  -0.014238  0  -0.165605  -0.140003  0  3.910004  0
C  C91  1  0.18043692  0.55707399  0.86095534  1  0  -0.104344  0  3.669431  0  0  -0.141573  0  3.921402  0  0  -0.143552  0  3.937956  0  -0.014271  0  -0.165588  -0.139966  0  3.910012  0
C  C92  1  0.70219780  0.49715503  0.06358848  1  0  -0.09806  0  3.678379  0  0  -0.136197  0  3.931243  0  0  -0.137345  0  3.947844  0  -0.028275  0  -0.165657  -0.135361  0  3.920026  0
C  C93  1  0.29779994  0.50284480  0.93640984  1  0  -0.09809  0  3.678393  0  0  -0.136221  0  3.931228  0  0  -0.137367  0  3.947829  0  -0.028321  0  -0.165697  -0.135379  0  3.920009  0
C  C94  1  0.70176743  0.37531976  0.03698587  1  0  -0.12241  0  3.558901  0  0  -0.15738  0  3.814188  0  0  -0.158839  0  3.826722  0  -0.134017  0  -0.145237  -0.156025  0  3.805781  0
C  C95  1  0.29823344  0.62467904  0.96301398  1  0  -0.122421  0  3.558957  0  0  -0.157419  0  3.814268  0  0  -0.158877  0  3.826801  0  -0.133883  0  -0.145233  -0.156062  0  3.80586  0
C  C96  1  0.80232316  0.09528297  0.87259646  1  0  -0.130758  0  3.593964  0  0  -0.165262  0  3.855487  0  0  -0.167775  0  3.869322  0  -0.125582  0  -0.149478  -0.163417  0  3.84598  0
C  C97  1  0.19767770  0.90471584  0.12740472  1  0  -0.130917  0  3.594019  0  0  -0.165394  0  3.855506  0  0  -0.167916  0  3.869351  0  -0.125723  0  -0.149512  -0.163547  0  3.845997  0
C  C98  1  0.68318985  0.20789945  0.80428529  1  0  -0.101439  0  3.686843  0  0  -0.14065  0  3.942609  0  0  -0.142275  0  3.959144  0  -0.034191  0  -0.165656  -0.139437  0  3.931267  0
C  C99  1  0.31681143  0.79209832  0.19571611  1  0  -0.101393  0  3.686809  0  0  -0.140568  0  3.942543  0  0  -0.14219  0  3.959076  0  -0.034044  0  -0.165606  -0.139356  0  3.931201  0
C  C100  1  0.73322724  0.23110779  0.70903723  1  0  -0.106303  0  3.672994  0  0  -0.144341  0  3.925739  0  0  -0.145571  0  3.941897  0  -0.015357  0  -0.167283  -0.143399  0  3.91483  0
C  C101  1  0.26677314  0.76888999  0.29096351  1  0  -0.10624  0  3.672929  0  0  -0.144365  0  3.925756  0  0  -0.145596  0  3.941945  0  -0.015402  0  -0.167282  -0.143428  0  3.914849  0
C  C102  1  0.85995007  0.25019296  0.72054273  1  0  -0.116788  0  3.545611  0  0  -0.151495  0  3.802686  0  0  -0.153102  0  3.814347  0  -0.102275  0  -0.142182  -0.150174  0  3.794559  0
C  C103  1  0.14004990  0.74980585  0.27945845  1  0  -0.116824  0  3.545576  0  0  -0.151527  0  3.802729  0  0  -0.153126  0  3.81437  0  -0.102291  0  -0.142198  -0.150205  0  3.794604  0
C  C104  1  0.30047143  0.27931002  0.74988730  1  0  -0.136165  0  3.616935  0  0  -0.173208  0  3.874902  0  0  -0.173559  0  3.88827  0  -0.137789  0  -0.157456  -0.173179  0  3.865891  0
C  C105  1  0.69952722  0.72068981  0.25011234  1  0  -0.136183  0  3.61696  0  0  -0.173236  0  3.874903  0  0  -0.173583  0  3.888268  0  -0.137861  0  -0.157448  -0.173208  0  3.865894  0
C  C106  1  0.16843989  0.29302100  0.70946015  1  0  -0.09973  0  3.677146  0  0  -0.13701  0  3.932519  0  0  -0.138368  0  3.946791  0  0.0081  0  -0.170329  -0.136084  0  3.922642  0
C  C107  1  0.83155923  0.70697986  0.29053927  1  0  -0.099785  0  3.677245  0  0  -0.137024  0  3.932584  0  0  -0.138381  0  3.946853  0  0.008147  0  -0.170351  -0.136104  0  3.922725  0
C  C108  1  0.08420655  0.44636952  0.66082564  1  0  -0.103465  0  3.683628  0  0  -0.141454  0  3.938939  0  0  -0.14322  0  3.956062  0  -0.019733  0  -0.169639  -0.139942  0  3.927108  0
C  C109  1  0.91579167  0.55363134  0.33917313  1  0  -0.103526  0  3.68373  0  0  -0.141464  0  3.938965  0  0  -0.143229  0  3.956085  0  -0.01976  0  -0.169634  -0.139953  0  3.927132  0
C  C110  1  0.17219114  0.50678191  0.60356486  1  0  -0.134778  0  3.615418  0  0  -0.170143  0  3.876199  0  0  -0.170977  0  3.888864  0  -0.093769  0  -0.156179  -0.169639  0  3.867467  0
C  C111  1  0.82780841  0.49321793  0.39643478  1  0  -0.13482  0  3.615417  0  0  -0.170168  0  3.876185  0  0  -0.171003  0  3.888848  0  -0.094041  0  -0.156178  -0.169663  0  3.867452  0
C  C112  1  0.48853810  0.37585533  0.34694241  1  0  -0.138114  0  3.606047  0  0  -0.173899  0  3.864531  0  0  -0.174528  0  3.87709  0  -0.133607  0  -0.156258  -0.173248  0  3.855746  0
C  C113  1  0.51146595  0.62414450  0.65305788  1  0  -0.138097  0  3.606073  0  0  -0.173951  0  3.864602  0  0  -0.174578  0  3.877183  0  -0.133628  0  -0.156299  -0.173289  0  3.855787  0
C  C114  1  0.58395353  0.26764058  0.30661688  1  0  -0.095669  0  3.684128  0  0  -0.131472  0  3.935929  0  0  -0.132794  0  3.9516  0  -0.012793  0  -0.169391  -0.130309  0  3.924914  0
C  C115  1  0.41604518  0.73236130  0.69338365  1  0  -0.095801  0  3.684304  0  0  -0.131576  0  3.936091  0  0  -0.132898  0  3.951757  0  -0.012777  0  -0.169429  -0.130403  0  3.925076  0
C  C116  1  0.65107661  0.13416672  0.38724724  1  0  -0.105504  0  3.682343  0  0  -0.140753  0  3.932635  0  0  -0.142963  0  3.949651  0  -0.030697  0  -0.168554  -0.139091  0  3.920867  0
C  C117  1  0.34892072  0.86583414  0.61275285  1  0  -0.105484  0  3.682402  0  0  -0.140767  0  3.932713  0  0  -0.142975  0  3.949732  0  -0.030696  0  -0.168587  -0.139106  0  3.92094  0
C  C118  1  0.70125946  0.17304841  0.46349013  1  0  -0.133144  0  3.620342  0  0  -0.169303  0  3.879306  0  0  -0.169842  0  3.892852  0  -0.106722  0  -0.155998  -0.168933  0  3.869737  0
C  C119  1  0.29873966  0.82695245  0.53650995  1  0  -0.133187  0  3.620353  0  0  -0.169326  0  3.879273  0  0  -0.169875  0  3.892824  0  -0.106695  0  -0.155998  -0.168956  0  3.869703  0
S  S120  1  0.87590174  0.24677395  0.05790890  1  0  0.02449  0  2.91045  0  0  0.053174  0  3.38156  0  0  0.063253  0  3.356262  0  -0.053089  0  -0.039812  0.044062  0  3.399128  0
S  S121  1  0.12409781  0.75322588  0.94209074  1  0  0.024506  0  2.910383  0  0  0.053202  0  3.381504  0  0  0.063284  0  3.356203  0  -0.053061  0  -0.039813  0.04409  0  3.399096  0
S  S122  1  0.94363608  0.13603864  0.83850563  1  0  0.007079  0  3.029618  0  0  0.020272  0  3.548369  0  0  0.035754  0  3.51447  0  -0.077448  0  -0.061375  0.007998  0  3.571588  0
S  S123  1  0.05636479  0.86396017  0.16149621  1  0  0.00706  0  3.029631  0  0  0.02027  0  3.548349  0  0  0.035749  0  3.514461  0  -0.077393  0  -0.061396  0.007989  0  3.571581  0
S  S124  1  0.34353355  0.40219073  0.66195925  1  0  -0.026701  0  2.612968  0  0  -0.001916  0  3.024886  0  0  -0.002065  0  3.016169  0  -0.053897  0  -0.039979  -0.001429  0  3.030281  0
S  S125  1  0.65646599  0.59780910  0.33804039  1  0  -0.026715  0  2.61301  0  0  -0.001932  0  3.024943  0  0  -0.002074  0  3.016212  0  -0.053919  0  -0.039994  -0.001443  0  3.030338  0
S  S126  1  0.56795354  0.33703223  0.46478133  1  0  -0.01878  0  2.638218  0  0  0.005276  0  3.061242  0  0  0.006921  0  3.04805  0  -0.049017  0  -0.044716  0.003403  0  3.070128  0
S  S127  1  0.43204606  0.66296965  0.53521920  1  0  -0.018732  0  2.638188  0  0  0.005329  0  3.06123  0  0  0.00699  0  3.048018  0  -0.048966  0  -0.044673  0.003455  0  3.070115  0
N  N128  1  0.29076126  0.26574193  0.49701288  1  0  -0.384834  0  3.245366  0  0  -0.329842  0  3.561111  0  0  -0.336112  0  3.566825  0  -1.318675  0  -0.405574  -0.326718  0  3.557441  0
N  N129  1  0.70924147  0.73425893  0.50298587  1  0  -0.384842  0  3.245318  0  0  -0.329851  0  3.561063  0  0  -0.336116  0  3.566761  0  -1.31856  0  -0.405553  -0.32673  0  3.557392  0
N  N130  1  0.94811474  0.07927038  0.28713529  1  0  -0.402656  0  3.257151  0  0  -0.349915  0  3.578734  0  0  -0.356027  0  3.584911  0  -1.32142  0  -0.418009  -0.346789  0  3.575464  0
N  N131  1  0.05188612  0.92072842  0.71286655  1  0  -0.402653  0  3.257126  0  0  -0.349898  0  3.578735  0  0  -0.356007  0  3.584905  0  -1.32145  0  -0.418008  -0.34677  0  3.575477  0
N  N132  1  0.71698546  0.05735522  0.15205744  1  0  -0.397208  0  3.268242  0  0  -0.345215  0  3.590932  0  0  -0.351117  0  3.598352  0  -1.324206  0  -0.419234  -0.340958  0  3.584659  0
N  N133  1  0.28301499  0.94264461  0.84794550  1  0  -0.397274  0  3.268234  0  0  -0.345262  0  3.590916  0  0  -0.351162  0  3.598328  0  -1.324116  0  -0.41925  -0.341005  0  3.584662  0
N  N134  1  0.15069655  0.21218606  0.96312762  1  0  -0.396713  0  3.261174  0  0  -0.346752  0  3.583591  0  0  -0.352555  0  3.590722  0  -1.361498  0  -0.417746  -0.3429  0  3.577833  0
N  N135  1  0.84930576  0.78781582  0.03687091  1  0  -0.396581  0  3.261287  0  0  -0.346615  0  3.583684  0  0  -0.352419  0  3.590818  0  -1.361534  0  -0.417688  -0.342766  0  3.577949  0
N  N136  1  0.87040407  0.46057289  0.85402686  1  0  -0.399687  0  3.2535  0  0  -0.347509  0  3.572691  0  0  -0.353322  0  3.579147  0  -1.349218  0  -0.417035  -0.344614  0  3.568838  0
N  N137  1  0.12959721  0.53942489  0.14597453  1  0  -0.399622  0  3.25348  0  0  -0.347434  0  3.572668  0  0  -0.353246  0  3.579127  0  -1.349167  0  -0.41699  -0.344543  0  3.568842  0
N  N138  1  0.54074609  0.08843981  0.64937235  1  0  -0.375916  0  3.259094  0  0  -0.319348  0  3.575033  0  0  -0.325095  0  3.581017  0  -1.347169  0  -0.407288  -0.316553  0  3.5712  0
N  N139  1  0.45925388  0.91155899  0.35062751  1  0  -0.375966  0  3.258955  0  0  -0.3194  0  3.574907  0  0  -0.325141  0  3.580881  0  -1.347153  0  -0.407311  -0.316601  0  3.571069  0
