# generated using pymatgen
data_Cd2H21C19(N3O4)2
_symmetry_space_group_name_H-M   'P 1'
_cell_length_a   8.91060064
_cell_length_b   10.56828882
_cell_length_c   12.82556081
_cell_angle_alpha   86.18966770
_cell_angle_beta   73.90912629
_cell_angle_gamma   83.28944736
_symmetry_Int_Tables_number   1
_chemical_formula_structural   Cd2H21C19(N3O4)2
_chemical_formula_sum   'Cd4 H42 C38 N12 O16'
_cell_volume   1151.77883215
_cell_formula_units_Z   2
loop_
 _symmetry_equiv_pos_site_id
 _symmetry_equiv_pos_as_xyz
  1  'x, y, z'
loop_
 _atom_site_type_symbol
 _atom_site_label
 _atom_site_symmetry_multiplicity
 _atom_site_fract_x
 _atom_site_fract_y
 _atom_site_fract_z
 _atom_site_occupancy
 _atom_site_hle17_bader_spin_density
 _atom_site_hle17_ddec_charge
 _atom_site_hle17_ddec_spin_density
 _atom_site_hle17_ddec_sum_bond_order
 _atom_site_hle17_magmom
 _atom_site_hse06_10hf_bader_spin_density
 _atom_site_hse06_10hf_ddec_charge
 _atom_site_hse06_10hf_ddec_spin_density
 _atom_site_hse06_10hf_ddec_sum_bond_order
 _atom_site_hse06_10hf_magmom
 _atom_site_hse06_bader_spin_density
 _atom_site_hse06_ddec_charge
 _atom_site_hse06_ddec_spin_density
 _atom_site_hse06_ddec_sum_bond_order
 _atom_site_hse06_magmom
 _atom_site_pbe_bader_spin_density
 _atom_site_pbe_cm5_charge
 _atom_site_pbe_ddec_charge
 _atom_site_pbe_ddec_spin_density
 _atom_site_pbe_ddec_sum_bond_order
 _atom_site_pbe_magmom
Cd  Cd0  1  0.15388132  0.49723139  0.08335246  1  0  1.179444  0  1.666326  0  0  0.999849  0  2.117187  0  0  1.055551  0  2.063667  0  0  0.774384  0.957277  0  2.155825  0
Cd  Cd1  1  0.84611791  0.50276868  0.91664884  1  0  1.179489  0  1.666303  0  0  0.999891  0  2.117173  0  0  1.055594  0  2.06365  0  0  0.774394  0.957322  0  2.155812  0
Cd  Cd2  1  0.57923912  0.82783562  0.30906793  1  0  1.102296  0  1.75817  0  0  0.914274  0  2.214456  0  0  0.967276  0  2.165469  0  0  0.773938  0.876401  0  2.247714  0
Cd  Cd3  1  0.42076024  0.17216350  0.69093183  1  0  1.102304  0  1.75811  0  0  0.914293  0  2.214384  0  0  0.967295  0  2.165398  0  0  0.773948  0.876421  0  2.247641  0
H  H4  1  0.78480522  0.39924352  0.18403870  1  0  0.104338  0  0.980279  0  0  0.111707  0  1.046227  0  0  0.113666  0  1.045982  0  0  0.112491  0.110223  0  1.046624  0
H  H5  1  0.21519401  0.60075656  0.81596181  1  0  0.104338  0  0.980308  0  0  0.111706  0  1.046258  0  0  0.113666  0  1.046012  0  0  0.112481  0.110222  0  1.046654  0
H  H6  1  0.73317634  0.17009119  0.30238048  1  0  0.135403  0  1.000293  0  0  0.140811  0  1.063224  0  0  0.145373  0  1.059634  0  0  0.120794  0.137358  0  1.065989  0
H  H7  1  0.26682301  0.82990793  0.69761927  1  0  0.135396  0  1.000272  0  0  0.140773  0  1.063238  0  0  0.145358  0  1.059618  0  0  0.120784  0.13732  0  1.066003  0
H  H8  1  0.20605558  0.24118108  0.25147863  1  0  0.088913  0  0.971812  0  0  0.097813  0  1.039556  0  0  0.099738  0  1.037135  0  0  0.132344  0.096306  0  1.041441  0
H  H9  1  0.79394365  0.75881899  0.74852188  1  0  0.088907  0  0.971827  0  0  0.097801  0  1.039583  0  0  0.099726  0  1.03716  0  0  0.132339  0.096294  0  1.041467  0
H  H10  1  0.13219080  0.01722204  0.31468635  1  0  0.074811  0  0.949951  0  0  0.088671  0  1.015498  0  0  0.088884  0  1.016833  0  0  0.108722  0.088481  0  1.014653  0
H  H11  1  0.86780972  0.98277709  0.68531318  1  0  0.07481  0  0.949945  0  0  0.088679  0  1.015502  0  0  0.088893  0  1.016836  0  0  0.108726  0.08849  0  1.014656  0
H  H12  1  0.93577745  0.98411592  0.33458854  1  0  0.095916  0  0.930941  0  0  0.109085  0  0.995491  0  0  0.110665  0  0.994194  0  0  0.11361  0.10795  0  0.996387  0
H  H13  1  0.06422295  0.01588416  0.66541175  1  0  0.095876  0  0.930941  0  0  0.109086  0  0.995465  0  0  0.110665  0  0.99417  0  0  0.113618  0.107952  0  0.996361  0
H  H14  1  0.85710789  0.10044518  0.51012366  1  0  0.07204  0  0.926366  0  0  0.092436  0  0.98266  0  0  0.092743  0  0.983816  0  0  0.09443  0.092096  0  0.982063  0
H  H15  1  0.14289146  0.89955395  0.48987610  1  0  0.072056  0  0.926346  0  0  0.092455  0  0.982642  0  0  0.092761  0  0.983798  0  0  0.094447  0.092113  0  0.982054  0
H  H16  1  0.05293128  0.13473840  0.48908803  1  0  0.074496  0  0.925993  0  0  0.09645  0  0.979158  0  0  0.096928  0  0.980167  0  0  0.096278  0.095693  0  0.979374  0
H  H17  1  0.94706795  0.86526168  0.51091170  1  0  0.074483  0  0.925996  0  0  0.096448  0  0.979152  0  0  0.096925  0  0.980161  0  0  0.096285  0.09569  0  0.979367  0
H  H18  1  0.54875962  0.54620287  0.20008542  1  0  0.099534  0  0.980941  0  0  0.1091  0  1.042537  0  0  0.110701  0  1.042628  0  0  0.112201  0.107809  0  1.042824  0
H  H19  1  0.45123973  0.45379626  0.79991433  1  0  0.09951  0  0.980949  0  0  0.109074  0  1.042549  0  0  0.110675  0  1.042638  0  0  0.112194  0.107783  0  1.042837  0
H  H20  1  0.36079309  0.36175907  0.31193642  1  0  0.116044  0  0.954453  0  0  0.128183  0  1.012126  0  0  0.1311  0  1.010077  0  0  0.12339  0.126002  0  1.013799  0
H  H21  1  0.63920627  0.63824006  0.68806334  1  0  0.115991  0  0.954523  0  0  0.128175  0  1.012149  0  0  0.131082  0  1.010112  0  0  0.123378  0.125992  0  1.01382  0
H  H22  1  0.33743638  0.66281184  0.51997906  1  0  0.095735  0  0.963041  0  0  0.098875  0  1.040439  0  0  0.101811  0  1.037151  0  0  0.129818  0.096749  0  1.042864  0
H  H23  1  0.66256414  0.33718729  0.48002047  1  0  0.095726  0  0.963038  0  0  0.098865  0  1.040442  0  0  0.101801  0  1.037156  0  0  0.129811  0.096738  0  1.042867  0
H  H24  1  0.19007840  0.48101428  0.60251736  1  0  0.076814  0  0.921548  0  0  0.093202  0  0.983779  0  0  0.0933  0  0.985101  0  0  0.11006  0.093136  0  0.982667  0
H  H25  1  0.80992211  0.51898485  0.39748217  1  0  0.076818  0  0.92153  0  0  0.093204  0  0.983761  0  0  0.093301  0  0.985084  0  0  0.11006  0.093137  0  0.982649  0
H  H26  1  0.25103183  0.33336784  0.53774557  1  0  0.085288  0  0.943765  0  0  0.097639  0  1.01198  0  0  0.098638  0  1.011158  0  0  0.108497  0.09663  0  1.012554  0
H  H27  1  0.74896752  0.66663129  0.46225419  1  0  0.085289  0  0.943776  0  0  0.097641  0  1.011991  0  0  0.098638  0  1.011169  0  0  0.1085  0.096629  0  1.012566  0
H  H28  1  0.05350958  0.38052371  0.43197241  1  0  0.058555  0  0.957661  0  0  0.074995  0  1.025773  0  0  0.075345  0  1.026883  0  0  0.085405  0.074446  0  1.025797  0
H  H29  1  0.94648965  0.61947637  0.56802810  1  0  0.058539  0  0.957659  0  0  0.074981  0  1.025785  0  0  0.075332  0  1.026894  0  0  0.085399  0.074433  0  1.025809  0
H  H30  1  0.96850903  0.37935806  0.57423568  1  0  0.087907  0  0.930415  0  0  0.104849  0  0.990917  0  0  0.10629  0  0.990578  0  0  0.096658  0.103567  0  0.991787  0
H  H31  1  0.03149149  0.62064107  0.42576385  1  0  0.087897  0  0.930396  0  0  0.104843  0  0.990908  0  0  0.106284  0  0.990569  0  0  0.096655  0.103561  0  0.991779  0
H  H32  1  0.48886069  0.12225103  0.20287135  1  0  0.111341  0  0.95357  0  0  0.121673  0  1.011344  0  0  0.124887  0  1.008754  0  0  0.118032  0.119176  0  1.013572  0
H  H33  1  0.51113854  0.87774904  0.79712916  1  0  0.111353  0  0.953576  0  0  0.121684  0  1.011347  0  0  0.124898  0  1.008758  0  0  0.118038  0.119187  0  1.013574  0
H  H34  1  0.34257909  0.15589426  0.03535012  1  0  0.132397  0  0.954269  0  0  0.139975  0  1.019283  0  0  0.143298  0  1.017052  0  0  0.123477  0.137476  0  1.021053  0
H  H35  1  0.65742013  0.84410582  0.96465039  1  0  0.132403  0  0.95426  0  0  0.139971  0  1.019291  0  0  0.14329  0  1.017059  0  0  0.123475  0.137473  0  1.021057  0
H  H36  1  0.30627931  0.78004968  0.17002355  1  0  0.109181  0  0.940514  0  0  0.11772  0  1.00549  0  0  0.120414  0  1.002221  0  0  0.135789  0.115519  0  1.008179  0
H  H37  1  0.69372016  0.21994850  0.82997624  1  0  0.109152  0  0.940543  0  0  0.11765  0  1.005562  0  0  0.120362  0  1.002274  0  0  0.135774  0.11545  0  1.008249  0
H  H38  1  0.20482959  0.83288768  0.00855844  1  0  0.090082  0  0.925791  0  0  0.105012  0  0.988456  0  0  0.105968  0  0.988193  0  0  0.114148  0.10413  0  0.988965  0
H  H39  1  0.79516951  0.16711335  0.99144048  1  0  0.090109  0  0.925738  0  0  0.105014  0  0.988435  0  0  0.105972  0  0.988172  0  0  0.114156  0.104134  0  0.988944  0
H  H40  1  0.27275239  0.96679772  0.92615388  1  0  0.073822  0  0.933278  0  0  0.091485  0  0.993828  0  0  0.091635  0  0.994422  0  0  0.109337  0.091061  0  0.994116  0
H  H41  1  0.72724672  0.03320331  0.07384582  1  0  0.07382  0  0.933269  0  0  0.091482  0  0.99382  0  0  0.091634  0  0.994416  0  0  0.109341  0.091059  0  0.994108  0
H  H42  1  0.05600774  0.11018020  0.04687619  1  0  0.075338  0  0.931779  0  0  0.094569  0  0.98988  0  0  0.094771  0  0.991623  0  0  0.093734  0.09448  0  0.9886  0
H  H43  1  0.94399148  0.88981988  0.95312354  1  0  0.075369  0  0.931764  0  0  0.094588  0  0.989857  0  0  0.09479  0  0.991598  0  0  0.093745  0.094498  0  0.988577  0
H  H44  1  0.98109504  0.97442643  0.12228245  1  0  0.073385  0  0.936716  0  0  0.092617  0  0.995593  0  0  0.09298  0  0.996872  0  0  0.093174  0.092162  0  0.995142  0
H  H45  1  0.01890407  0.02557460  0.87771726  1  0  0.073396  0  0.936755  0  0  0.092615  0  0.995626  0  0  0.092976  0  0.99691  0  0  0.093185  0.092162  0  0.995176  0
C  C46  1  0.92755304  0.71789732  0.21270132  1  0  0.526158  0  3.938346  0  0  0.484835  0  4.23104  0  0  0.514148  0  4.225883  0  0  0.194513  0.464752  0  4.233807  0
C  C47  1  0.07244852  0.28210276  0.78729952  1  0  0.526193  0  3.938348  0  0  0.484871  0  4.231057  0  0  0.514178  0  4.225909  0  0  0.194518  0.464788  0  4.233823  0
C  C48  1  0.84272389  0.68524028  0.12654334  1  0  0.531116  0  3.925381  0  0  0.487296  0  4.215865  0  0  0.517367  0  4.20993  0  0  0.197818  0.46692  0  4.218271  0
C  C49  1  0.15727872  0.31476076  0.87345803  1  0  0.531057  0  3.925341  0  0  0.487223  0  4.215853  0  0  0.517298  0  4.209916  0  0  0.197791  0.466848  0  4.21826  0
C  C50  1  0.51359773  0.43629640  0.03337948  1  0  0.522395  0  3.944738  0  0  0.480359  0  4.235736  0  0  0.509989  0  4.230896  0  0  0.194362  0.459962  0  4.238066  0
C  C51  1  0.48640279  0.56370273  0.96662161  1  0  0.522513  0  3.944527  0  0  0.480455  0  4.235551  0  0  0.510087  0  4.230708  0  0  0.194406  0.460057  0  4.237879  0
C  C52  1  0.52289879  0.05821277  0.45981530  1  0  0.519301  0  3.950951  0  0  0.478577  0  4.238946  0  0  0.50808  0  4.233233  0  0  0.192488  0.458286  0  4.242477  0
C  C53  1  0.47710394  0.94178732  0.54018219  1  0  0.519216  0  3.951058  0  0  0.478479  0  4.239067  0  0  0.50798  0  4.233359  0  0  0.192427  0.458188  0  4.242599  0
C  C54  1  0.86413589  0.33512680  0.21818812  1  0  -0.007804  0  3.767384  0  0  -0.041409  0  4.034978  0  0  -0.039744  0  4.056484  0  0  -0.011111  -0.042667  0  4.020611  0
C  C55  1  0.13586450  0.66487328  0.78181216  1  0  -0.007747  0  3.767383  0  0  -0.041354  0  4.034967  0  0  -0.039689  0  4.056474  0  0  -0.011058  -0.04261  0  4.020598  0
C  C56  1  0.83662327  0.22184410  0.27570323  1  0  -0.070297  0  3.650922  0  0  -0.106991  0  3.904583  0  0  -0.106238  0  3.922452  0  0  -0.00192  -0.107101  0  3.892698  0
C  C57  1  0.16337608  0.77815503  0.72429575  1  0  -0.070352  0  3.650984  0  0  -0.10701  0  3.904645  0  0  -0.106272  0  3.922497  0  0  -0.001925  -0.10712  0  3.892759  0
C  C58  1  0.08403203  0.25739538  0.25137670  1  0  0.142916  0  3.713353  0  0  0.080609  0  3.983682  0  0  0.094501  0  3.997569  0  0  0.132857  0.071744  0  3.974053  0
C  C59  1  0.91596708  0.74260565  0.74862379  1  0  0.142899  0  3.713375  0  0  0.080592  0  3.983705  0  0  0.094485  0  3.99759  0  0  0.132853  0.071729  0  3.974074  0
C  C60  1  0.00912384  0.05253788  0.35145922  1  0  -0.007109  0  3.617169  0  0  -0.069458  0  3.878753  0  0  -0.065498  0  3.889762  0  0  -0.053614  -0.071865  0  3.870883  0
C  C61  1  0.99087655  0.94746220  0.64854106  1  0  -0.007052  0  3.617086  0  0  -0.069474  0  3.87876  0  0  -0.065514  0  3.889767  0  0  -0.053625  -0.071879  0  3.870889  0
C  C62  1  0.98049188  0.06440287  0.47348728  1  0  -0.117768  0  3.681862  0  0  -0.157934  0  3.942659  0  0  -0.159433  0  3.956937  0  0  -0.159451  -0.156614  0  3.933019  0
C  C63  1  0.01950864  0.93559625  0.52651303  1  0  -0.117756  0  3.681816  0  0  -0.157922  0  3.942645  0  0  -0.159423  0  3.956926  0  0  -0.159446  -0.156603  0  3.933007  0
C  C64  1  0.47591019  0.54310159  0.28298337  1  0  -0.009792  0  3.778926  0  0  -0.041534  0  4.042349  0  0  -0.040545  0  4.065637  0  0  -0.010334  -0.041968  0  4.026572  0
C  C65  1  0.52408904  0.45689849  0.71701714  1  0  -0.009746  0  3.778906  0  0  -0.041487  0  4.042342  0  0  -0.040497  0  4.065625  0  0  -0.010315  -0.041922  0  4.026566  0
C  C66  1  0.38222802  0.45192913  0.33733242  1  0  -0.050416  0  3.663118  0  0  -0.090144  0  3.916809  0  0  -0.088446  0  3.93567  0  0  0.002611  -0.091737  0  3.904502  0
C  C67  1  0.61777133  0.54807000  0.66266812  1  0  -0.0504  0  3.663171  0  0  -0.090171  0  3.916858  0  0  -0.088463  0  3.935724  0  0  0.002616  -0.091758  0  3.904548  0
C  C68  1  0.36823909  0.60832845  0.44696683  1  0  0.162757  0  3.659408  0  0  0.100652  0  3.925952  0  0  0.114952  0  3.938262  0  0  0.136916  0.091384  0  3.917796  0
C  C69  1  0.63176352  0.39167259  0.55303298  1  0  0.16277  0  3.659398  0  0  0.100665  0  3.925949  0  0  0.114965  0  3.938259  0  0  0.136929  0.091396  0  3.917793  0
C  C70  1  0.20093793  0.43172000  0.52759801  1  0  -9.6e-05  0  3.615578  0  0  -0.062748  0  3.874844  0  0  -0.058705  0  3.886774  0  0  -0.053014  -0.065026  0  3.866056  0
C  C71  1  0.79906142  0.56827913  0.47240252  1  0  -8.6e-05  0  3.615599  0  0  -0.062725  0  3.874865  0  0  -0.058674  0  3.886787  0  0  -0.052986  -0.064997  0  3.866072  0
C  C72  1  0.04048389  0.43319022  0.50582208  1  0  -0.127391  0  3.676587  0  0  -0.169516  0  3.94094  0  0  -0.170983  0  3.954723  0  0  -0.167005  -0.168487  0  3.932271  0
C  C73  1  0.95951534  0.56680986  0.49417843  1  0  -0.127324  0  3.676544  0  0  -0.169492  0  3.940938  0  0  -0.170963  0  3.95472  0  0  -0.167  -0.168467  0  3.932268  0
C  C74  1  0.42925301  0.05627705  0.17141544  1  0  -0.018829  0  3.775443  0  0  -0.053401  0  4.051079  0  0  -0.05132  0  4.069382  0  0  -0.012694  -0.05475  0  4.038977  0
C  C75  1  0.57074634  0.94372207  0.82858431  1  0  -0.018824  0  3.775426  0  0  -0.053391  0  4.051065  0  0  -0.05131  0  4.069367  0  0  -0.0127  -0.05474  0  4.038962  0
C  C76  1  0.35676989  0.07445660  0.08920678  1  0  -0.056961  0  3.659129  0  0  -0.1023  0  3.928306  0  0  -0.100145  0  3.946186  0  0  0.00217  -0.10358  0  3.91578  0
C  C77  1  0.64322934  0.92554349  0.91079295  1  0  -0.056975  0  3.659146  0  0  -0.102312  0  3.928337  0  0  -0.100153  0  3.946212  0  0  0.002152  -0.103592  0  3.915811  0
C  C78  1  0.33931585  0.87668269  0.15745657  1  0  0.166528  0  3.646002  0  0  0.105089  0  3.911893  0  0  0.119189  0  3.924381  0  0  0.141346  0.096309  0  3.903317  0
C  C79  1  0.66068363  0.12331549  0.84254321  1  0  0.166602  0  3.64607  0  0  0.105196  0  3.911969  0  0  0.119277  0  3.924449  0  0  0.141368  0.096415  0  3.903393  0
C  C80  1  0.20870553  0.93633702  0.00838424  1  0  0.000832  0  3.633331  0  0  -0.061966  0  3.890283  0  0  -0.057981  0  3.902595  0  0  -0.05138  -0.064929  0  3.882724  0
C  C81  1  0.79129579  0.06366497  0.99161655  1  0  0.000971  0  3.633111  0  0  -0.061824  0  3.89005  0  0  -0.057846  0  3.902367  0  0  -0.051309  -0.064789  0  3.882492  0
C  C82  1  0.04532678  0.00832127  0.04093321  1  0  -0.124937  0  3.689498  0  0  -0.164717  0  3.949668  0  0  -0.166573  0  3.964537  0  0  -0.163815  -0.163507  0  3.939883  0
C  C83  1  0.95467349  0.99167976  0.95906627  1  0  -0.124946  0  3.689478  0  0  -0.164653  0  3.949576  0  0  -0.166506  0  3.964445  0  0  -0.163793  -0.16345  0  3.939807  0
N  N84  1  0.01902600  0.35630217  0.20362794  1  0  -0.406363  0  3.288354  0  0  -0.330254  0  3.576063  0  0  -0.352651  0  3.594231  0  0  -0.368574  -0.314775  0  3.563408  0
N  N85  1  0.98097335  0.64369696  0.79637259  1  0  -0.406395  0  3.288307  0  0  -0.33029  0  3.576023  0  0  -0.352687  0  3.594188  0  0  -0.36859  -0.314812  0  3.563367  0
N  N86  1  0.97757097  0.17362066  0.29550835  1  0  -0.057398  0  3.578058  0  0  0.035965  0  3.800191  0  0  0.021582  0  3.826648  0  0  -0.243088  0.045329  0  3.782163  0
N  N87  1  0.02242942  0.82637943  0.70449115  1  0  -0.057369  0  3.578074  0  0  0.036002  0  3.800211  0  0  0.021619  0  3.826672  0  0  -0.243105  0.045365  0  3.782183  0
N  N88  1  0.46670776  0.63998798  0.35222187  1  0  -0.399265  0  3.27205  0  0  -0.321776  0  3.555003  0  0  -0.343572  0  3.573532  0  0  -0.364356  -0.306938  0  3.541399  0
N  N89  1  0.53329159  0.36001114  0.64777867  1  0  -0.39927  0  3.271992  0  0  -0.32178  0  3.554947  0  0  -0.343577  0  3.573475  0  0  -0.364368  -0.306942  0  3.541343  0
N  N90  1  0.31447068  0.49491805  0.44087971  1  0  -0.059334  0  3.570293  0  0  0.037116  0  3.785297  0  0  0.022486  0  3.811907  0  0  -0.241142  0.0472  0  3.767349  0
N  N91  1  0.68552854  0.50508202  0.55912080  1  0  -0.059321  0  3.570341  0  0  0.037126  0  3.785358  0  0  0.022495  0  3.811963  0  0  -0.241152  0.047206  0  3.767407  0
N  N92  1  0.41764934  0.93253011  0.21336297  1  0  -0.410807  0  3.28163  0  0  -0.336691  0  3.572119  0  0  -0.357994  0  3.588935  0  0  -0.37049  -0.322155  0  3.560421  0
N  N93  1  0.58235001  0.06746901  0.78663679  1  0  -0.410844  0  3.281639  0  0  -0.336728  0  3.572123  0  0  -0.35803  0  3.588944  0  0  -0.370512  -0.322193  0  3.560424  0
N  N94  1  0.30017250  0.96007853  0.08193653  1  0  -0.060982  0  3.584696  0  0  0.034673  0  3.803336  0  0  0.0196  0  3.831052  0  0  -0.243313  0.044673  0  3.784052  0
N  N95  1  0.69982789  0.03992155  0.91806375  1  0  -0.061178  0  3.584684  0  0  0.034489  0  3.803318  0  0  0.019421  0  3.831034  0  0  -0.243364  0.044489  0  3.784036  0
O  O96  1  0.91832107  0.60399162  0.05617951  1  0  -0.637646  0  2.143846  0  0  -0.561639  0  2.412219  0  0  -0.591948  0  2.400191  0  0  -0.323866  -0.538744  0  2.419233  0
O  O97  1  0.08167804  0.39600940  0.94382175  1  0  -0.637625  0  2.143741  0  0  -0.561608  0  2.412113  0  0  -0.591916  0  2.400081  0  0  -0.323859  -0.538711  0  2.419126  0
O  O98  1  0.06740057  0.66946352  0.20247645  1  0  -0.599012  0  2.005925  0  0  -0.547175  0  2.251851  0  0  -0.572303  0  2.241696  0  0  -0.322691  -0.529521  0  2.258854  0
O  O99  1  0.93260087  0.33053751  0.79752592  1  0  -0.599082  0  2.005953  0  0  -0.547249  0  2.251896  0  0  -0.572381  0  2.241759  0  0  -0.322712  -0.529595  0  2.2589  0
O  O100  1  0.70836137  0.74014069  0.13128010  1  0  -0.577908  0  2.030916  0  0  -0.527607  0  2.276875  0  0  -0.551698  0  2.268737  0  0  -0.311099  -0.510545  0  2.28207  0
O  O101  1  0.29164044  0.25985749  0.86872002  1  0  -0.577856  0  2.030969  0  0  -0.527542  0  2.276917  0  0  -0.551634  0  2.268781  0  0  -0.311067  -0.51048  0  2.282113  0
O  O102  1  0.84916200  0.79250249  0.28674998  1  0  -0.599249  0  2.036319  0  0  -0.543373  0  2.286948  0  0  -0.56869  0  2.276043  0  0  -0.322389  -0.525264  0  2.293639  0
O  O103  1  0.15083944  0.20749854  0.71325006  1  0  -0.599215  0  2.036285  0  0  -0.543326  0  2.286894  0  0  -0.568645  0  2.276004  0  0  -0.322374  -0.525223  0  2.293598  0
O  O104  1  0.39410271  0.38643019  0.09080453  1  0  -0.593174  0  2.029106  0  0  -0.536206  0  2.278103  0  0  -0.56259  0  2.269159  0  0  -0.315257  -0.516566  0  2.283565  0
O  O105  1  0.60589548  0.61356893  0.90919624  1  0  -0.593206  0  2.029004  0  0  -0.536231  0  2.277994  0  0  -0.562616  0  2.269047  0  0  -0.315273  -0.516592  0  2.283451  0
O  O106  1  0.65461187  0.39139703  0.02676178  1  0  -0.600529  0  2.031646  0  0  -0.540895  0  2.279978  0  0  -0.567253  0  2.269266  0  0  -0.322102  -0.521971  0  2.287222  0
O  O107  1  0.34538877  0.60860115  0.97323778  1  0  -0.600551  0  2.031569  0  0  -0.540912  0  2.279917  0  0  -0.567271  0  2.2692  0  0  -0.322107  -0.521988  0  2.28716  0
O  O108  1  0.58394995  0.03526902  0.36030360  1  0  -0.59083  0  2.077232  0  0  -0.529691  0  2.319421  0  0  -0.555777  0  2.309731  0  0  -0.318381  -0.511075  0  2.325488  0
O  O109  1  0.41605044  0.96473106  0.63969435  1  0  -0.590767  0  2.077218  0  0  -0.529635  0  2.319407  0  0  -0.555728  0  2.309724  0  0  -0.318359  -0.51102  0  2.325474  0
O  O110  1  0.49729470  0.16804522  0.49869902  1  0  -0.601296  0  2.053361  0  0  -0.54885  0  2.304791  0  0  -0.573884  0  2.295136  0  0  -0.324776  -0.531014  0  2.31081  0
O  O111  1  0.50270686  0.83195487  0.50129870  1  0  -0.601254  0  2.05344  0  0  -0.548784  0  2.30487  0  0  -0.573817  0  2.29522  0  0  -0.324727  -0.530946  0  2.310892  0
