# generated using pymatgen
data_SmAsH6C7NO9
_symmetry_space_group_name_H-M   'P 1'
_cell_length_a   7.05526059
_cell_length_b   7.63837684
_cell_length_c   21.23200277
_cell_angle_alpha   89.99994978
_cell_angle_beta   89.99982287
_cell_angle_gamma   107.55973089
_symmetry_Int_Tables_number   1
_chemical_formula_structural   SmAsH6C7NO9
_chemical_formula_sum   'Sm4 As4 H24 C28 N4 O36'
_cell_volume   1090.89158497
_cell_formula_units_Z   4
loop_
 _symmetry_equiv_pos_site_id
 _symmetry_equiv_pos_as_xyz
  1  'x, y, z'
loop_
 _atom_site_type_symbol
 _atom_site_label
 _atom_site_symmetry_multiplicity
 _atom_site_fract_x
 _atom_site_fract_y
 _atom_site_fract_z
 _atom_site_occupancy
 _atom_site_hle17_bader_spin_density
 _atom_site_hle17_ddec_charge
 _atom_site_hle17_ddec_spin_density
 _atom_site_hle17_ddec_sum_bond_order
 _atom_site_hle17_magmom
 _atom_site_hse06_10hf_bader_spin_density
 _atom_site_hse06_10hf_ddec_charge
 _atom_site_hse06_10hf_ddec_spin_density
 _atom_site_hse06_10hf_ddec_sum_bond_order
 _atom_site_hse06_10hf_magmom
 _atom_site_hse06_bader_spin_density
 _atom_site_hse06_ddec_charge
 _atom_site_hse06_ddec_spin_density
 _atom_site_hse06_ddec_sum_bond_order
 _atom_site_hse06_magmom
 _atom_site_pbe_bader_spin_density
 _atom_site_pbe_cm5_charge
 _atom_site_pbe_ddec_charge
 _atom_site_pbe_ddec_spin_density
 _atom_site_pbe_ddec_sum_bond_order
 _atom_site_pbe_magmom
Sm  Sm0  1  0.77423582  0.58262714  0.04262903  1  0  2.34311  0  1.634827  0  0  2.201695  0  2.085502  0  0  2.302704  0  1.934089  0  0  1.484858  2.168789  0  2.118517  0
Sm  Sm1  1  0.72575904  0.91736995  0.54262846  1  0  2.343132  0  1.634828  0  0  2.201735  0  2.085468  0  0  2.302721  0  1.934091  0  0  1.484866  2.16883  0  2.118485  0
Sm  Sm2  1  0.22576753  0.41737283  0.95737111  1  0  2.343121  0  1.634795  0  0  2.201689  0  2.085495  0  0  2.302711  0  1.934055  0  0  1.484864  2.168788  0  2.118509  0
Sm  Sm3  1  0.27422930  0.08262325  0.45737121  1  0  2.343127  0  1.634845  0  0  2.201747  0  2.085452  0  0  2.302715  0  1.934103  0  0  1.484857  2.168845  0  2.118468  0
As  As4  1  0.75394866  0.48129709  0.89062583  1  0  1.607726  0  3.889676  0  0  1.547738  0  4.341975  0  0  1.596902  0  4.320545  0  0  0.627116  1.513253  0  4.363217  0
As  As5  1  0.74605819  0.01870748  0.39062409  1  0  1.607731  0  3.889526  0  0  1.547803  0  4.341793  0  0  1.596967  0  4.320355  0  0  0.627151  1.513317  0  4.363033  0
As  As6  1  0.24606784  0.51870829  0.10937619  1  0  1.607777  0  3.889651  0  0  1.547821  0  4.341937  0  0  1.596986  0  4.320505  0  0  0.62721  1.513334  0  4.363178  0
As  As7  1  0.25392682  0.98128850  0.60937558  1  0  1.6078  0  3.889531  0  0  1.547862  0  4.34181  0  0  1.597025  0  4.320374  0  0  0.627236  1.513374  0  4.363049  0
H  H8  1  0.71011546  0.86207139  0.86516094  1  0  0.106854  0  0.961243  0  0  0.114238  0  1.025475  0  0  0.117736  0  1.021743  0  0  0.110874  0.111743  0  1.027897  0
H  H9  1  0.78989878  0.63793751  0.36516052  1  0  0.106771  0  0.961286  0  0  0.114188  0  1.025469  0  0  0.117686  0  1.021737  0  0  0.110829  0.111689  0  1.027899  0
H  H10  1  0.28990009  0.13793537  0.13483921  1  0  0.106777  0  0.961245  0  0  0.114201  0  1.025426  0  0  0.1177  0  1.021692  0  0  0.110837  0.111704  0  1.027853  0
H  H11  1  0.21009984  0.36206525  0.63483915  1  0  0.106732  0  0.961292  0  0  0.114158  0  1.02547  0  0  0.117659  0  1.021731  0  0  0.11082  0.111662  0  1.027893  0
H  H12  1  0.69938542  0.03405509  0.76725980  1  0  0.131109  0  0.934669  0  0  0.140494  0  0.99173  0  0  0.14423  0  0.990794  0  0  0.108882  0.137847  0  0.992538  0
H  H13  1  0.80062801  0.46594875  0.26726069  1  0  0.131128  0  0.934546  0  0  0.140511  0  0.991603  0  0  0.144248  0  0.990666  0  0  0.108903  0.137867  0  0.992407  0
H  H14  1  0.30063017  0.96594754  0.23273987  1  0  0.13112  0  0.934557  0  0  0.140511  0  0.991616  0  0  0.144247  0  0.99068  0  0  0.108885  0.137866  0  0.992421  0
H  H15  1  0.19937439  0.53405261  0.73273898  1  0  0.13112  0  0.934589  0  0  0.140506  0  0.99164  0  0  0.144242  0  0.990705  0  0  0.108909  0.137862  0  0.992444  0
H  H16  1  0.78520908  0.41142992  0.75568755  1  0  0.126015  0  0.955419  0  0  0.129598  0  1.024735  0  0  0.133507  0  1.020551  0  0  0.119325  0.126743  0  1.02769  0
H  H17  1  0.71479320  0.08856993  0.25568723  1  0  0.126038  0  0.955415  0  0  0.129627  0  1.024723  0  0  0.133538  0  1.020536  0  0  0.119324  0.126773  0  1.027678  0
H  H18  1  0.21478866  0.58856596  0.24431259  1  0  0.126039  0  0.95543  0  0  0.129635  0  1.024723  0  0  0.133544  0  1.02054  0  0  0.119335  0.126781  0  1.027678  0
H  H19  1  0.28520825  0.91143281  0.74431244  1  0  0.126031  0  0.955346  0  0  0.12961  0  1.024671  0  0  0.13352  0  1.020485  0  0  0.119319  0.126755  0  1.027625  0
H  H20  1  0.78399881  0.19519231  0.89175388  1  0  0.419843  0  0.883075  0  0  0.388712  0  0.949055  0  0  0.401399  0  0.930614  0  0  0.304719  0.379715  0  0.962168  0
H  H21  1  0.71600008  0.30480542  0.39175349  1  0  0.419967  0  0.882977  0  0  0.3888  0  0.948973  0  0  0.401488  0  0.93053  0  0  0.304774  0.379799  0  0.962096  0
H  H22  1  0.21600175  0.80480355  0.10824768  1  0  0.419863  0  0.883136  0  0  0.38875  0  0.94902  0  0  0.401438  0  0.930576  0  0  0.30472  0.379753  0  0.962133  0
H  H23  1  0.28399200  0.69519050  0.60824571  1  0  0.419876  0  0.883053  0  0  0.388744  0  0.949017  0  0  0.401432  0  0.930574  0  0  0.304729  0.379746  0  0.962131  0
H  H24  1  0.67904877  0.18965684  0.07894601  1  0  0.424593  0  0.880816  0  0  0.390211  0  0.950448  0  0  0.401707  0  0.933601  0  0  0.298662  0.382011  0  0.962581  0
H  H25  1  0.82094703  0.31033992  0.57894586  1  0  0.424587  0  0.880824  0  0  0.390214  0  0.950437  0  0  0.401709  0  0.933593  0  0  0.29866  0.382016  0  0.962568  0
H  H26  1  0.32094988  0.81034179  0.92105366  1  0  0.424571  0  0.880852  0  0  0.390183  0  0.950495  0  0  0.401679  0  0.933648  0  0  0.298644  0.381981  0  0.962629  0
H  H27  1  0.17904647  0.68965599  0.42105334  1  0  0.424535  0  0.880897  0  0  0.390167  0  0.950508  0  0  0.401663  0  0.933661  0  0  0.298648  0.381967  0  0.96264  0
H  H28  1  0.49530152  0.20032624  0.03733298  1  0  0.440193  0  0.849508  0  0  0.4125  0  0.907498  0  0  0.42285  0  0.892303  0  0  0.307987  0.40505  0  0.918624  0
H  H29  1  0.00469529  0.29967082  0.53733174  1  0  0.440197  0  0.849497  0  0  0.412511  0  0.907474  0  0  0.422859  0  0.892283  0  0  0.307998  0.405061  0  0.9186  0
H  H30  1  0.50469947  0.79967512  0.96266716  1  0  0.440178  0  0.849536  0  0  0.412505  0  0.907487  0  0  0.422855  0  0.892295  0  0  0.308002  0.405056  0  0.918612  0
H  H31  1  0.99529541  0.70032099  0.46266652  1  0  0.440212  0  0.849485  0  0  0.412511  0  0.907496  0  0  0.422863  0  0.892297  0  0  0.307984  0.405057  0  0.918622  0
C  C32  1  0.74948540  0.62481417  0.81669873  1  0  -0.250234  0  3.724326  0  0  -0.236531  0  4.011126  0  0  -0.253823  0  4.037942  0  0  -0.048367  -0.225162  0  3.992567  0
C  C33  1  0.75051813  0.87518682  0.31670017  1  0  -0.250223  0  3.724432  0  0  -0.236557  0  4.011287  0  0  -0.253849  0  4.038102  0  0  -0.04837  -0.225186  0  3.992728  0
C  C34  1  0.25052216  0.37518989  0.18329905  1  0  -0.250255  0  3.72442  0  0  -0.236545  0  4.011219  0  0  -0.253836  0  4.038031  0  0  -0.048359  -0.225173  0  3.992659  0
C  C35  1  0.24947536  0.12480909  0.68329762  1  0  -0.250356  0  3.724408  0  0  -0.23668  0  4.011257  0  0  -0.253975  0  4.038069  0  0  -0.048349  -0.225305  0  3.992696  0
C  C36  1  0.72437649  0.80211072  0.81956750  1  0  0.020612  0  3.733587  0  0  -0.01369  0  4.00244  0  0  -0.004568  0  4.019531  0  0  -0.069276  -0.019023  0  3.990017  0
C  C37  1  0.77563829  0.69789430  0.31956850  1  0  0.020622  0  3.733576  0  0  -0.013686  0  4.002415  0  0  -0.004566  0  4.019509  0  0  -0.069272  -0.01902  0  3.99  0
C  C38  1  0.27563955  0.19789328  0.18043264  1  0  0.020615  0  3.733488  0  0  -0.013704  0  4.002345  0  0  -0.004585  0  4.019437  0  0  -0.069265  -0.019041  0  3.989934  0
C  C39  1  0.22435987  0.30210709  0.68043117  1  0  0.02067  0  3.733531  0  0  -0.013658  0  4.002395  0  0  -0.004536  0  4.01949  0  0  -0.069295  -0.018993  0  3.989977  0
C  C40  1  0.71779379  0.89758437  0.76509170  1  0  -0.187357  0  3.637117  0  0  -0.20072  0  3.888736  0  0  -0.213356  0  3.908168  0  0  -0.096584  -0.192597  0  3.875239  0
C  C41  1  0.78222160  0.60242096  0.26509273  1  0  -0.18726  0  3.63684  0  0  -0.200598  0  3.888445  0  0  -0.213232  0  3.907878  0  0  -0.096573  -0.192473  0  3.874946  0
C  C42  1  0.28222179  0.10241827  0.23490750  1  0  -0.187317  0  3.636888  0  0  -0.200687  0  3.888528  0  0  -0.213323  0  3.907963  0  0  -0.096599  -0.192564  0  3.875032  0
C  C43  1  0.21778172  0.39758314  0.73490695  1  0  -0.187269  0  3.636878  0  0  -0.20061  0  3.888506  0  0  -0.213249  0  3.907943  0  0  -0.09658  -0.192484  0  3.875004  0
C  C44  1  0.73263249  0.82498281  0.70340605  1  0  0.405924  0  3.838547  0  0  0.389793  0  4.104511  0  0  0.412965  0  4.115323  0  0  0.124064  0.374717  0  4.09783  0
C  C45  1  0.76737602  0.67502567  0.20340565  1  0  0.405898  0  3.838597  0  0  0.389759  0  4.104605  0  0  0.412932  0  4.115416  0  0  0.124082  0.374678  0  4.097929  0
C  C46  1  0.26737507  0.17502126  0.29659456  1  0  0.405961  0  3.838618  0  0  0.389826  0  4.104617  0  0  0.412999  0  4.115427  0  0  0.124077  0.374746  0  4.097943  0
C  C47  1  0.23262493  0.32497983  0.79659449  1  0  0.406047  0  3.838534  0  0  0.38987  0  4.104564  0  0  0.413045  0  4.115372  0  0  0.12414  0.374792  0  4.097889  0
C  C48  1  0.75882453  0.64397117  0.70347954  1  0  -0.054948  0  3.633825  0  0  -0.072682  0  3.882768  0  0  -0.08666  0  3.904031  0  0  0.071024  -0.063972  0  3.868343  0
C  C49  1  0.74118497  0.85603179  0.20348005  1  0  -0.05486  0  3.633881  0  0  -0.072651  0  3.882878  0  0  -0.086625  0  3.904137  0  0  0.071021  -0.063931  0  3.868455  0
C  C50  1  0.24118119  0.35602740  0.29652013  1  0  -0.055007  0  3.634103  0  0  -0.072796  0  3.883028  0  0  -0.086774  0  3.904286  0  0  0.071022  -0.064081  0  3.868607  0
C  C51  1  0.25881697  0.14396819  0.79652291  1  0  -0.055105  0  3.634121  0  0  -0.072808  0  3.883087  0  0  -0.086786  0  3.904343  0  0  0.071043  -0.064097  0  3.868667  0
C  C52  1  0.76608819  0.54697827  0.75928823  1  0  -0.057514  0  3.79218  0  0  -0.096933  0  4.06314  0  0  -0.087458  0  4.081573  0  0  -0.072634  -0.102505  0  4.050165  0
C  C53  1  0.73391927  0.95302439  0.25928872  1  0  -0.057605  0  3.792185  0  0  -0.097009  0  4.063175  0  0  -0.087536  0  4.081609  0  0  -0.072625  -0.102587  0  4.050202  0
C  C54  1  0.23391658  0.45302169  0.24071097  1  0  -0.057513  0  3.792273  0  0  -0.096932  0  4.063255  0  0  -0.087455  0  4.081684  0  0  -0.072638  -0.102508  0  4.05028  0
C  C55  1  0.26607934  0.04697836  0.74071095  1  0  -0.057442  0  3.79215  0  0  -0.096846  0  4.063118  0  0  -0.087368  0  4.081548  0  0  -0.072651  -0.10242  0  4.050144  0
C  C56  1  0.08559723  0.00344199  0.02344993  1  0  0.602026  0  3.857132  0  0  0.552311  0  4.156848  0  0  0.583229  0  4.149863  0  0  0.234894  0.531311  0  4.163741  0
C  C57  1  0.41440108  0.49656339  0.52345056  1  0  0.602225  0  3.856753  0  0  0.552453  0  4.156655  0  0  0.583368  0  4.149658  0  0  0.235018  0.531456  0  4.163554  0
C  C58  1  0.91440418  0.99656487  0.97655256  1  0  0.601963  0  3.857076  0  0  0.552295  0  4.156743  0  0  0.583166  0  4.149814  0  0  0.234936  0.531324  0  4.163604  0
C  C59  1  0.58559376  0.50344077  0.47655146  1  0  0.602125  0  3.857017  0  0  0.552329  0  4.156942  0  0  0.583216  0  4.149977  0  0  0.234879  0.531335  0  4.163838  0
N  N60  1  0.77598103  0.55227902  0.64702326  1  0  0.503272  0  3.931  0  0  0.56505  0  4.171963  0  0  0.58937  0  4.181557  0  0  0.046035  0.549277  0  4.165648  0
N  N61  1  0.72401920  0.94772433  0.14702329  1  0  0.503014  0  3.931155  0  0  0.564857  0  4.172039  0  0  0.589176  0  4.181631  0  0  0.045977  0.549078  0  4.165727  0
N  N62  1  0.22401900  0.44772373  0.35297594  1  0  0.503098  0  3.931193  0  0  0.565074  0  4.171921  0  0  0.589396  0  4.181508  0  0  0.046019  0.549296  0  4.165611  0
N  N63  1  0.27598083  0.05227842  0.85297685  1  0  0.503252  0  3.931247  0  0  0.56498  0  4.172247  0  0  0.589301  0  4.181841  0  0  0.045979  0.549206  0  4.165933  0
O  O64  1  0.95657101  0.54353891  0.93932202  1  0  -1.018797  0  1.765021  0  0  -0.972589  0  2.047043  0  0  -1.011507  0  2.027017  0  0  -0.532134  -0.95436  0  2.059532  0
O  O65  1  0.54342688  0.95646557  0.43932082  1  0  -1.018846  0  1.764963  0  0  -0.972623  0  2.046896  0  0  -1.011532  0  2.02687  0  0  -0.532183  -0.954394  0  2.059386  0
O  O66  1  0.04343273  0.45647070  0.06067812  1  0  -1.018923  0  1.764957  0  0  -0.972702  0  2.046935  0  0  -1.011621  0  2.026909  0  0  -0.532216  -0.954457  0  2.059388  0
O  O67  1  0.45656428  0.04352761  0.56067697  1  0  -1.018893  0  1.764934  0  0  -0.972669  0  2.046866  0  0  -1.01158  0  2.026843  0  0  -0.532235  -0.95444  0  2.059356  0
O  O68  1  0.57008953  0.48105798  0.94286123  1  0  -1.044644  0  1.875063  0  0  -0.990066  0  2.157178  0  0  -1.02969  0  2.136208  0  0  -0.563136  -0.971147  0  2.169945  0
O  O69  1  0.92990447  0.01894777  0.44286307  1  0  -1.044664  0  1.875142  0  0  -0.990101  0  2.157253  0  0  -1.029718  0  2.136287  0  0  -0.56313  -0.971184  0  2.170022  0
O  O70  1  0.42991429  0.51894337  0.05713891  1  0  -1.044568  0  1.875091  0  0  -0.989987  0  2.157183  0  0  -1.029612  0  2.136216  0  0  -0.563141  -0.971069  0  2.169946  0
O  O71  1  0.07008524  0.98104955  0.55713613  1  0  -1.044634  0  1.875195  0  0  -0.990078  0  2.157309  0  0  -1.029695  0  2.136347  0  0  -0.563157  -0.97116  0  2.170075  0
O  O72  1  0.72534281  0.26093999  0.85954026  1  0  -0.737551  0  1.787882  0  0  -0.692496  0  2.00041  0  0  -0.713164  0  1.977602  0  0  -0.423504  -0.677563  0  2.016095  0
O  O73  1  0.77465965  0.23906753  0.35954078  1  0  -0.737567  0  1.787751  0  0  -0.692567  0  2.000277  0  0  -0.713228  0  1.977455  0  0  -0.423545  -0.677632  0  2.015965  0
O  O74  1  0.27466239  0.73906547  0.14045988  1  0  -0.73756  0  1.787947  0  0  -0.692571  0  2.000469  0  0  -0.713233  0  1.977645  0  0  -0.423528  -0.677638  0  2.016154  0
O  O75  1  0.22533380  0.76093251  0.64046031  1  0  -0.737547  0  1.787818  0  0  -0.692541  0  2.000377  0  0  -0.713198  0  1.977544  0  0  -0.423516  -0.677611  0  2.016071  0
O  O76  1  0.77252316  0.38646878  0.64991327  1  0  -0.388323  0  1.809249  0  0  -0.360918  0  1.998273  0  0  -0.37557  0  1.993015  0  0  -0.127819  -0.350845  0  2.001666  0
O  O77  1  0.72747888  0.11353166  0.14991293  1  0  -0.388243  0  1.809391  0  0  -0.360842  0  1.998365  0  0  -0.375502  0  1.993126  0  0  -0.127798  -0.350767  0  2.001758  0
O  O78  1  0.22747973  0.61352981  0.35008640  1  0  -0.388187  0  1.809352  0  0  -0.360917  0  1.998371  0  0  -0.375582  0  1.993127  0  0  -0.127817  -0.350842  0  2.001764  0
O  O79  1  0.27252727  0.88647241  0.85008815  1  0  -0.388281  0  1.809349  0  0  -0.360847  0  1.998385  0  0  -0.375501  0  1.993126  0  0  -0.127794  -0.350769  0  2.001774  0
O  O80  1  0.79664363  0.63311286  0.59491793  1  0  -0.459429  0  1.948503  0  0  -0.448492  0  2.178408  0  0  -0.46721  0  2.17175  0  0  -0.171772  -0.439348  0  2.181971  0
O  O81  1  0.70334640  0.86688397  0.09491848  1  0  -0.459273  0  1.948434  0  0  -0.448358  0  2.178317  0  0  -0.467076  0  2.171659  0  0  -0.171708  -0.439212  0  2.18188  0
O  O82  1  0.20334703  0.36688307  0.40508174  1  0  -0.45937  0  1.948438  0  0  -0.448488  0  2.178274  0  0  -0.467203  0  2.171614  0  0  -0.171742  -0.439342  0  2.18184  0
O  O83  1  0.29664896  0.13311330  0.90508213  1  0  -0.4594  0  1.94847  0  0  -0.448452  0  2.178402  0  0  -0.467175  0  2.171744  0  0  -0.171749  -0.439307  0  2.181966  0
O  O84  1  0.71853070  0.91718664  0.65410217  1  0  -0.694672  0  2.057461  0  0  -0.660831  0  2.320357  0  0  -0.692853  0  2.310031  0  0  -0.406858  -0.643988  0  2.324293  0
O  O85  1  0.78147137  0.58281390  0.15410226  1  0  -0.69469  0  2.057505  0  0  -0.660837  0  2.320406  0  0  -0.692862  0  2.310078  0  0  -0.406884  -0.643999  0  2.324355  0
O  O86  1  0.28146983  0.08281335  0.34589750  1  0  -0.694612  0  2.05746  0  0  -0.660762  0  2.320349  0  0  -0.692777  0  2.31002  0  0  -0.406822  -0.643919  0  2.32429  0
O  O87  1  0.21853103  0.41718745  0.84589741  1  0  -0.694686  0  2.057417  0  0  -0.660816  0  2.320333  0  0  -0.692839  0  2.309999  0  0  -0.40687  -0.64398  0  2.324285  0
O  O88  1  0.07166157  0.85784163  0.05417983  1  0  -0.677976  0  2.144049  0  0  -0.623725  0  2.387575  0  0  -0.655245  0  2.376492  0  0  -0.34157  -0.606019  0  2.393772  0
O  O89  1  0.42832950  0.64215137  0.55417915  1  0  -0.677977  0  2.144242  0  0  -0.623678  0  2.387808  0  0  -0.655193  0  2.376725  0  0  -0.341531  -0.605971  0  2.394004  0
O  O90  1  0.92833659  0.14215976  0.94582219  1  0  -0.677918  0  2.144252  0  0  -0.62368  0  2.387792  0  0  -0.655186  0  2.376732  0  0  -0.341554  -0.605982  0  2.393977  0
O  O91  1  0.57165417  0.35783636  0.44582194  1  0  -0.678113  0  2.144006  0  0  -0.62379  0  2.38759  0  0  -0.655299  0  2.376521  0  0  -0.341596  -0.606079  0  2.393787  0
O  O92  1  0.22344337  0.15326492  0.02815029  1  0  -0.666049  0  2.129931  0  0  -0.610776  0  2.368688  0  0  -0.640058  0  2.356979  0  0  -0.338745  -0.594039  0  2.375154  0
O  O93  1  0.27654842  0.34672535  0.52814923  1  0  -0.666226  0  2.129553  0  0  -0.610953  0  2.368366  0  0  -0.640232  0  2.356655  0  0  -0.338865  -0.594212  0  2.37483  0
O  O94  1  0.77655620  0.84673645  0.97185126  1  0  -0.666027  0  2.129655  0  0  -0.610801  0  2.368408  0  0  -0.64007  0  2.356723  0  0  -0.33877  -0.594072  0  2.374857  0
O  O95  1  0.72343529  0.65325825  0.47184950  1  0  -0.666029  0  2.130035  0  0  -0.610726  0  2.368834  0  0  -0.639999  0  2.357138  0  0  -0.338687  -0.593984  0  2.375295  0
O  O96  1  0.64078418  0.25019409  0.04159203  1  0  -0.893817  0  1.869471  0  0  -0.851938  0  2.065949  0  0  -0.875479  0  2.028683  0  0  -0.646068  -0.839946  0  2.089544  0
O  O97  1  0.85921440  0.24980149  0.54159233  1  0  -0.893808  0  1.869486  0  0  -0.851947  0  2.065977  0  0  -0.875484  0  2.028716  0  0  -0.646097  -0.839954  0  2.089572  0
O  O98  1  0.35921822  0.74980727  0.95840764  1  0  -0.893808  0  1.869514  0  0  -0.851938  0  2.066008  0  0  -0.875482  0  2.02874  0  0  -0.646079  -0.839946  0  2.089603  0
O  O99  1  0.14077584  0.75018894  0.45840593  1  0  -0.893824  0  1.869514  0  0  -0.851947  0  2.065967  0  0  -0.875482  0  2.0287  0  0  -0.646075  -0.839945  0  2.089573  0
