# generated using pymatgen
data_CdH11C16N4O7
_symmetry_space_group_name_H-M   'P 1'
_cell_length_a   7.59496549
_cell_length_b   7.62090164
_cell_length_c   14.64602431
_cell_angle_alpha   98.99750306
_cell_angle_beta   97.88764065
_cell_angle_gamma   89.50005739
_symmetry_Int_Tables_number   1
_chemical_formula_structural   CdH11C16N4O7
_chemical_formula_sum   'Cd2 H22 C32 N8 O14'
_cell_volume   829.29615414
_cell_formula_units_Z   2
loop_
 _symmetry_equiv_pos_site_id
 _symmetry_equiv_pos_as_xyz
  1  'x, y, z'
loop_
 _atom_site_type_symbol
 _atom_site_label
 _atom_site_symmetry_multiplicity
 _atom_site_fract_x
 _atom_site_fract_y
 _atom_site_fract_z
 _atom_site_occupancy
 _atom_site_hle17_bader_spin_density
 _atom_site_hle17_ddec_charge
 _atom_site_hle17_ddec_spin_density
 _atom_site_hle17_ddec_sum_bond_order
 _atom_site_hle17_magmom
 _atom_site_hse06_10hf_bader_spin_density
 _atom_site_hse06_10hf_ddec_charge
 _atom_site_hse06_10hf_ddec_spin_density
 _atom_site_hse06_10hf_ddec_sum_bond_order
 _atom_site_hse06_10hf_magmom
 _atom_site_hse06_bader_spin_density
 _atom_site_hse06_ddec_charge
 _atom_site_hse06_ddec_spin_density
 _atom_site_hse06_ddec_sum_bond_order
 _atom_site_hse06_magmom
 _atom_site_pbe_bader_spin_density
 _atom_site_pbe_cm5_charge
 _atom_site_pbe_ddec_charge
 _atom_site_pbe_ddec_spin_density
 _atom_site_pbe_ddec_sum_bond_order
 _atom_site_pbe_magmom
Cd  Cd0  1  0.00000000  0.00000000  0.00000000  1  0  1.182123  0  1.802765  0  0  0.995771  0  2.270421  0  0  1.04657  0  2.218855  0  0  0.801003  0.959408  0  2.305842  0
Cd  Cd1  1  0.49999968  0.49999730  0.99999893  1  0  1.228861  0  1.559916  0  0  1.06292  0  1.999397  0  0  1.122586  0  1.937732  0  0  0.757022  1.020153  0  2.041961  0
H  H2  1  0.24188018  0.23670648  0.72194979  1  0  0.104022  0  0.960935  0  0  0.10726  0  1.033162  0  0  0.110662  0  1.030928  0  0  0.106266  0.104819  0  1.034752  0
H  H3  1  0.75812542  0.76329010  0.27805041  1  0  0.104048  0  0.960899  0  0  0.107268  0  1.033149  0  0  0.110674  0  1.030909  0  0  0.106273  0.10483  0  1.03474  0
H  H4  1  0.40583216  0.55610982  0.22808611  1  0  0.121218  0  0.952535  0  0  0.128896  0  1.019164  0  0  0.13229  0  1.01691  0  0  0.109281  0.126432  0  1.020814  0
H  H5  1  0.59416679  0.44388815  0.77191508  1  0  0.121271  0  0.95253  0  0  0.128944  0  1.019148  0  0  0.132339  0  1.016892  0  0  0.109311  0.126479  0  1.020797  0
H  H6  1  0.13727191  0.71536982  0.15989186  1  0  0.12251  0  0.934733  0  0  0.130192  0  0.999909  0  0  0.133238  0  0.995511  0  0  0.144717  0.127937  0  1.002986  0
H  H7  1  0.86272713  0.28463078  0.84010748  1  0  0.122563  0  0.934734  0  0  0.130249  0  0.999893  0  0  0.133294  0  0.995497  0  0  0.144746  0.127993  0  1.00297  0
H  H8  1  0.29729161  0.24988306  0.18186331  1  0  0.106966  0  0.922169  0  0  0.117701  0  0.981333  0  0  0.119845  0  0.978758  0  0  0.138421  0.116038  0  0.983336  0
H  H9  1  0.70271009  0.75011752  0.81813623  1  0  0.106963  0  0.922123  0  0  0.117686  0  0.981312  0  0  0.119832  0  0.978734  0  0  0.13842  0.116024  0  0.983317  0
H  H10  1  0.03378708  0.73907334  0.56317154  1  0  0.124264  0  0.938794  0  0  0.132408  0  0.998751  0  0  0.136511  0  0.995098  0  0  0.117663  0.129446  0  1.00143  0
H  H11  1  0.96621464  0.26092721  0.43682595  1  0  0.124266  0  0.938844  0  0  0.13241  0  0.998798  0  0  0.136512  0  0.995146  0  0  0.117658  0.129447  0  1.001475  0
H  H12  1  0.43506591  0.79258263  0.56569698  1  0  0.088222  0  0.995733  0  0  0.093554  0  1.068842  0  0  0.096504  0  1.067267  0  0  0.098056  0.091479  0  1.06992  0
H  H13  1  0.56493323  0.20742465  0.43430562  1  0  0.088268  0  0.995737  0  0  0.093605  0  1.068823  0  0  0.096556  0  1.067246  0  0  0.098084  0.091525  0  1.069922  0
H  H14  1  0.49598771  0.35969224  0.34371406  1  0  0.091871  0  0.989436  0  0  0.099876  0  1.058071  0  0  0.102619  0  1.056839  0  0  0.098965  0.097856  0  1.059111  0
H  H15  1  0.50400997  0.64030976  0.65628938  1  0  0.091844  0  0.98944  0  0  0.099845  0  1.058091  0  0  0.102586  0  1.056861  0  0  0.098951  0.09783  0  1.059126  0
H  H16  1  0.33396552  0.98349351  0.44863532  1  0  0.103845  0  0.958981  0  0  0.113362  0  1.021896  0  0  0.116112  0  1.021018  0  0  0.106059  0.111443  0  1.022466  0
H  H17  1  0.66603229  0.01651242  0.55136502  1  0  0.103747  0  0.959048  0  0  0.113295  0  1.02194  0  0  0.116043  0  1.021067  0  0  0.106032  0.111377  0  1.02251  0
H  H18  1  0.10250038  0.06642243  0.57196245  1  0  0.099466  0  0.938795  0  0  0.111641  0  0.994724  0  0  0.114556  0  0.993618  0  0  0.107606  0.109549  0  0.995655  0
H  H19  1  0.89750269  0.93357946  0.42803661  1  0  0.099444  0  0.938884  0  0  0.111602  0  0.994829  0  0  0.114518  0  0.993722  0  0  0.107582  0.10951  0  0.99576  0
H  H20  1  0.19294691  0.37053635  0.01395269  1  0  0.416134  0  0.89073  0  0  0.386251  0  0.953077  0  0  0.397438  0  0.936892  0  0  0.287214  0.37834  0  0.964492  0
H  H21  1  0.80705210  0.62946292  0.98604655  1  0  0.416147  0  0.890709  0  0  0.386258  0  0.953064  0  0  0.397447  0  0.936878  0  0  0.287215  0.378347  0  0.96448  0
H  H22  1  0.16812732  0.57827661  0.00379921  1  0  0.416257  0  0.892038  0  0  0.385247  0  0.956432  0  0  0.396643  0  0.939984  0  0  0.28751  0.377181  0  0.968045  0
H  H23  1  0.83187302  0.42172402  0.99620228  1  0  0.416226  0  0.892085  0  0  0.385211  0  0.956486  0  0  0.396607  0  0.940037  0  0  0.287485  0.377144  0  0.968099  0
C  C24  1  0.30634717  0.14851854  0.88656062  1  0  0.683704  0  3.865528  0  0  0.630784  0  4.159314  0  0  0.66631  0  4.150778  0  0  0.219551  0.606569  0  4.164449  0
C  C25  1  0.69365447  0.85147938  0.11343871  1  0  0.683758  0  3.865462  0  0  0.630816  0  4.159282  0  0  0.66634  0  4.150749  0  0  0.219539  0.606602  0  4.164419  0
C  C26  1  0.19918335  0.83886288  0.79582567  1  0  -0.075191  0  3.647749  0  0  -0.072906  0  3.89452  0  0  -0.072847  0  3.910839  0  0  0.00718  -0.073003  0  3.883831  0
C  C27  1  0.80081830  0.16113504  0.20417298  1  0  -0.075147  0  3.647863  0  0  -0.072893  0  3.894527  0  0  -0.072835  0  3.910848  0  0  0.007208  -0.072986  0  3.88384  0
C  C28  1  0.36038260  0.77989831  0.33196482  1  0  0.161746  0  3.795651  0  0  0.140446  0  4.045523  0  0  0.144594  0  4.068067  0  0  0.095901  0.137986  0  4.029852  0
C  C29  1  0.63961643  0.22010230  0.66803520  1  0  0.161693  0  3.795701  0  0  0.140362  0  4.045607  0  0  0.14451  0  4.068148  0  0  0.095907  0.137903  0  4.029934  0
C  C30  1  0.24990094  0.74336261  0.87909468  1  0  0.685778  0  3.909175  0  0  0.6242  0  4.220628  0  0  0.66022  0  4.210176  0  0  0.216215  0.599567  0  4.227017  0
C  C31  1  0.75009671  0.25663400  0.12090289  1  0  0.685569  0  3.909542  0  0  0.624174  0  4.220704  0  0  0.660196  0  4.210255  0  0  0.21622  0.599538  0  4.227093  0
C  C32  1  0.47132439  0.55830215  0.46486471  1  0  0.053409  0  3.755525  0  0  0.06976  0  3.978508  0  0  0.069412  0  4.003361  0  0  -0.006042  0.069962  0  3.96164  0
C  C33  1  0.52867336  0.44170250  0.53513827  1  0  0.053584  0  3.755531  0  0  0.069749  0  3.978683  0  0  0.069398  0  4.003537  0  0  -0.006087  0.069953  0  3.961812  0
C  C34  1  0.23945102  0.02013941  0.79910549  1  0  -0.071415  0  3.685106  0  0  -0.058699  0  3.928878  0  0  -0.065892  0  3.948738  0  0  -0.007193  -0.054335  0  3.915845  0
C  C35  1  0.76054931  0.97985986  0.20089453  1  0  -0.07143  0  3.685121  0  0  -0.058726  0  3.928906  0  0  -0.06592  0  3.948769  0  0  -0.007203  -0.054363  0  3.915874  0
C  C36  1  0.20765818  0.09713937  0.71758050  1  0  -0.025525  0  3.679635  0  0  -0.064759  0  3.951865  0  0  -0.061194  0  3.967309  0  0  -0.069644  -0.066779  0  3.941265  0
C  C37  1  0.79234212  0.90285857  0.28241941  1  0  -0.025585  0  3.679537  0  0  -0.064806  0  3.951762  0  0  -0.06124  0  3.967206  0  0  -0.069678  -0.066827  0  3.941167  0
C  C38  1  0.40698196  0.60466019  0.30217296  1  0  -0.136325  0  3.733412  0  0  -0.160848  0  3.996189  0  0  -0.164016  0  4.016512  0  0  -0.088962  -0.158549  0  3.982219  0
C  C39  1  0.59301577  0.39534446  0.69783069  1  0  -0.136386  0  3.733326  0  0  -0.160878  0  3.996096  0  0  -0.164048  0  4.016422  0  0  -0.089  -0.158579  0  3.982126  0
C  C40  1  0.12614476  0.74382261  0.70866146  1  0  0.05695  0  3.672466  0  0  0.037843  0  3.924381  0  0  0.034419  0  3.946102  0  0  0.078377  0.03977  0  3.910023  0
C  C41  1  0.87385823  0.25617529  0.29133660  1  0  0.056972  0  3.67244  0  0  0.037912  0  3.924295  0  0  0.034489  0  3.946019  0  0  0.078424  0.039833  0  3.909942  0
C  C42  1  0.19667170  0.84637295  0.18325650  1  0  0.20205  0  3.609272  0  0  0.122193  0  3.879958  0  0  0.137883  0  3.889645  0  0  0.170473  0.112389  0  3.872849  0
C  C43  1  0.80332869  0.15362898  0.81674372  1  0  0.201942  0  3.609293  0  0  0.122072  0  3.880012  0  0  0.13776  0  3.889698  0  0  0.170415  0.11227  0  3.8729  0
C  C44  1  0.27968598  0.11736162  0.19777537  1  0  0.211386  0  3.689813  0  0  0.155923  0  3.986056  0  0  0.168126  0  3.998472  0  0  0.148359  0.148025  0  3.977252  0
C  C45  1  0.72031570  0.88263897  0.80222486  1  0  0.211386  0  3.689735  0  0  0.15593  0  3.98598  0  0  0.168134  0  3.998392  0  0  0.148354  0.14803  0  3.977179  0
C  C46  1  0.09076151  0.82139491  0.62789388  1  0  -0.085054  0  3.717185  0  0  -0.116027  0  3.980106  0  0  -0.113582  0  3.996411  0  0  -0.074476  -0.117337  0  3.968958  0
C  C47  1  0.90923883  0.17860436  0.37210546  1  0  -0.085102  0  3.717169  0  0  -0.116103  0  3.980089  0  0  -0.113659  0  3.996395  0  0  -0.074512  -0.117407  0  3.968934  0
C  C48  1  0.42606650  0.73650007  0.49215437  1  0  -0.098988  0  3.741082  0  0  -0.114706  0  3.981016  0  0  -0.117909  0  4.003571  0  0  -0.088753  -0.112418  0  3.965671  0
C  C49  1  0.57392863  0.26350590  0.50784715  1  0  -0.099093  0  3.740997  0  0  -0.114783  0  3.981004  0  0  -0.117983  0  4.003557  0  0  -0.088751  -0.112498  0  3.965654  0
C  C50  1  0.46084176  0.49586003  0.36844123  1  0  -0.090432  0  3.721463  0  0  -0.112001  0  3.969702  0  0  -0.114881  0  3.9922  0  0  -0.088754  -0.10993  0  3.954411  0
C  C51  1  0.53915471  0.50414593  0.63156038  1  0  -0.090445  0  3.721483  0  0  -0.111969  0  3.969735  0  0  -0.114855  0  3.992248  0  0  -0.088744  -0.109903  0  3.954443  0
C  C52  1  0.36974845  0.84622519  0.42672533  1  0  -0.138188  0  3.760687  0  0  -0.159005  0  4.013828  0  0  -0.162589  0  4.035481  0  0  -0.090364  -0.156359  0  3.998769  0
C  C53  1  0.63025059  0.15377813  0.57327832  1  0  -0.138009  0  3.760616  0  0  -0.158835  0  4.013722  0  0  -0.162418  0  4.035375  0  0  -0.090329  -0.15619  0  3.998665  0
C  C54  1  0.13079898  0.00053391  0.63309470  1  0  -0.051223  0  3.732994  0  0  -0.06753  0  3.997183  0  0  -0.070612  0  4.015656  0  0  -0.081466  -0.065644  0  3.984579  0
C  C55  1  0.86920140  0.99946803  0.36690621  1  0  -0.051124  0  3.733004  0  0  -0.067415  0  3.997167  0  0  -0.070497  0  4.015642  0  0  -0.081394  -0.065529  0  3.984563  0
N  N56  1  0.30284353  0.89116574  0.26491506  1  0  0.015937  0  3.597004  0  0  0.135378  0  3.771581  0  0  0.124474  0  3.794973  0  0  -0.115842  0.140905  0  3.758568  0
N  N57  1  0.69715548  0.10883489  0.73508633  1  0  0.015965  0  3.596996  0  0  0.135411  0  3.771595  0  0  0.124515  0  3.794974  0  0  -0.115839  0.140937  0  3.758582  0
N  N58  1  0.07916467  0.55464015  0.69928402  1  0  0.474598  0  3.935286  0  0  0.527662  0  4.194589  0  0  0.548796  0  4.202678  0  0  0.058705  0.51346  0  4.189277  0
N  N59  1  0.92083431  0.44535780  0.30071511  1  0  0.47446  0  3.93529  0  0  0.527509  0  4.194589  0  0  0.548639  0  4.202685  0  0  0.058527  0.513309  0  4.189277  0
N  N60  1  0.35699679  0.06503773  0.27565649  1  0  -0.270883  0  2.851809  0  0  -0.269228  0  3.122803  0  0  -0.278837  0  3.138077  0  0  -0.216733  -0.262349  0  3.11243  0
N  N61  1  0.64300227  0.93496420  0.72434364  1  0  -0.270897  0  2.85179  0  0  -0.26924  0  3.12278  0  0  -0.27885  0  3.138052  0  0  -0.216728  -0.262364  0  3.112412  0
N  N62  1  0.17930861  0.98717887  0.13913346  1  0  -0.422673  0  3.204557  0  0  -0.351095  0  3.501699  0  0  -0.373868  0  3.515247  0  0  -0.350643  -0.335566  0  3.491841  0
N  N63  1  0.82069178  0.01282306  0.86086677  1  0  -0.422611  0  3.204548  0  0  -0.351031  0  3.501693  0  0  -0.373804  0  3.515241  0  0  -0.350624  -0.335503  0  3.491834  0
O  O64  1  0.21950073  0.49426471  0.04620104  1  0  -0.826445  0  1.862626  0  0  -0.764317  0  2.04917  0  0  -0.788409  0  2.014747  0  0  -0.586041  -0.747178  0  2.073015  0
O  O65  1  0.78050224  0.50573321  0.95379839  1  0  -0.826426  0  1.862617  0  0  -0.764295  0  2.049172  0  0  -0.788388  0  2.01475  0  0  -0.586034  -0.747153  0  2.07301  0
O  O66  1  0.21961331  0.15992828  0.95640863  1  0  -0.674802  0  2.075163  0  0  -0.599129  0  2.321216  0  0  -0.628848  0  2.308027  0  0  -0.328418  -0.578181  0  2.32963  0
O  O67  1  0.78038832  0.84006966  0.04359139  1  0  -0.674852  0  2.075157  0  0  -0.59917  0  2.321221  0  0  -0.628888  0  2.308031  0  0  -0.328438  -0.57822  0  2.329634  0
O  O68  1  0.43573988  0.24873245  0.88313261  1  0  -0.609084  0  1.982797  0  0  -0.55087  0  2.229243  0  0  -0.579647  0  2.219995  0  0  -0.305748  -0.530569  0  2.234903  0
O  O69  1  0.56426175  0.75126549  0.11686740  1  0  -0.609086  0  1.982728  0  0  -0.550856  0  2.229177  0  0  -0.579635  0  2.219931  0  0  -0.305722  -0.530555  0  2.234838  0
O  O70  1  0.14466126  0.74727220  0.94010790  1  0  -0.664107  0  2.093317  0  0  -0.594359  0  2.347716  0  0  -0.623496  0  2.334089  0  0  -0.324348  -0.573619  0  2.356275  0
O  O71  1  0.85533372  0.25272443  0.05988946  1  0  -0.664066  0  2.093592  0  0  -0.594323  0  2.347842  0  0  -0.62347  0  2.334235  0  0  -0.32432  -0.573583  0  2.356401  0
O  O72  1  0.05574822  0.49490270  0.77112261  1  0  -0.347979  0  1.787777  0  0  -0.334228  0  1.984359  0  0  -0.347234  0  1.981681  0  0  -0.11951  -0.325673  0  1.986341  0
O  O73  1  0.94425075  0.50509390  0.22887574  1  0  -0.347926  0  1.787709  0  0  -0.334163  0  1.984287  0  0  -0.347171  0  1.981613  0  0  -0.119445  -0.325608  0  1.986269  0
O  O74  1  0.06328905  0.46458223  0.62019620  1  0  -0.346246  0  1.735384  0  0  -0.336966  0  1.920777  0  0  -0.348361  0  1.917947  0  0  -0.124916  -0.329308  0  1.922813  0
O  O75  1  0.93670593  0.53541441  0.37980185  1  0  -0.34617  0  1.735431  0  0  -0.336884  0  1.920818  0  0  -0.34828  0  1.917992  0  0  -0.124829  -0.329227  0  1.922854  0
O  O76  1  0.39792114  0.66652639  0.88101052  1  0  -0.61134  0  1.97107  0  0  -0.553261  0  2.221391  0  0  -0.583022  0  2.211276  0  0  -0.307671  -0.532146  0  2.227553  0
O  O77  1  0.60207515  0.33347025  0.11898899  1  0  -0.611177  0  1.971039  0  0  -0.553272  0  2.221392  0  0  -0.583014  0  2.211235  0  0  -0.307693  -0.532155  0  2.227552  0
