# generated using pymatgen
data_CdH4(C2O3)2
_symmetry_space_group_name_H-M   'P 1'
_cell_length_a   6.25994889
_cell_length_b   8.31235729
_cell_length_c   12.08514092
_cell_angle_alpha   89.99990317
_cell_angle_beta   90.00037161
_cell_angle_gamma   103.36329934
_symmetry_Int_Tables_number   1
_chemical_formula_structural   CdH4(C2O3)2
_chemical_formula_sum   'Cd4 H16 C16 O24'
_cell_volume   611.82283285
_cell_formula_units_Z   4
loop_
 _symmetry_equiv_pos_site_id
 _symmetry_equiv_pos_as_xyz
  1  'x, y, z'
loop_
 _atom_site_type_symbol
 _atom_site_label
 _atom_site_symmetry_multiplicity
 _atom_site_fract_x
 _atom_site_fract_y
 _atom_site_fract_z
 _atom_site_occupancy
 _atom_site_pbe_bader_charge
 _atom_site_pbe_bader_spin_density
 _atom_site_pbe_cm5_charge
 _atom_site_pbe_ddec_charge
 _atom_site_pbe_ddec_spin_density
 _atom_site_pbe_ddec_sum_bond_order
 _atom_site_pbe_magmom
Cd  Cd0  1  0.29363052  0.76833304  0.63094701  1  1.341024  0  0.779401  1.065897  0  2.012754  0
Cd  Cd1  1  0.20637268  0.23166344  0.13094283  1  1.341082  0  0.77942  1.065931  0  2.012672  0
Cd  Cd2  1  0.70637461  0.23166637  0.36905524  1  1.341011  0  0.779416  1.065904  0  2.012629  0
Cd  Cd3  1  0.79363170  0.76833349  0.86905032  1  1.341064  0  0.779373  1.06584  0  2.012759  0
H  H4  1  0.23235883  0.95815719  0.44275995  1  0.64247  0  0.28884  0.3823  0  0.95851  0
H  H5  1  0.26764258  0.04184187  0.94275852  1  0.642451  0  0.288864  0.382313  0  0.958517  0
H  H6  1  0.76764659  0.04184839  0.55723816  1  0.64242  0  0.288865  0.382363  0  0.958434  0
H  H7  1  0.73235183  0.95815381  0.05723876  1  0.64241  0  0.288853  0.382353  0  0.95845  0
H  H8  1  0.18186810  0.76534548  0.40227939  1  0.652414  0  0.289409  0.381896  0  0.963285  0
H  H9  1  0.31813582  0.23465433  0.90228016  1  0.652416  0  0.289393  0.381874  0  0.963342  0
H  H10  1  0.81813694  0.23465887  0.59771955  1  0.652433  0  0.289405  0.381914  0  0.963278  0
H  H11  1  0.68186057  0.76534259  0.09771795  1  0.652474  0  0.289298  0.381821  0  0.963355  0
H  H12  1  0.32504167  0.74120155  0.86053234  1  0.633971  0  0.2917  0.385097  0  0.955597  0
H  H13  1  0.17496154  0.25879898  0.36053294  1  0.633967  0  0.291728  0.38512  0  0.955547  0
H  H14  1  0.67495792  0.25879537  0.13946660  1  0.63396  0  0.291713  0.385119  0  0.955562  0
H  H15  1  0.82504153  0.74120413  0.63946600  1  0.633966  0  0.291711  0.385102  0  0.955587  0
H  H16  1  0.36899840  0.56810580  0.81040934  1  0.63679  0  0.288239  0.374382  0  0.975489  0
H  H17  1  0.13100631  0.43189288  0.31040722  1  0.636792  0  0.288241  0.374413  0  0.975446  0
H  H18  1  0.63100354  0.43189360  0.18958960  1  0.636799  0  0.28823  0.374383  0  0.975491  0
H  H19  1  0.86899722  0.56810652  0.68959089  1  0.636799  0  0.288256  0.374433  0  0.97542  0
C  C20  1  0.29946548  0.38535725  0.59238592  1  0.809174  0  0.102433  0.185825  0  4.143074  0
C  C21  1  0.20053502  0.61464370  0.09238276  1  0.809255  0  0.102501  0.185931  0  4.142933  0
C  C22  1  0.70053175  0.61463720  0.40761881  1  0.809351  0  0.102361  0.185668  0  4.14354  0
C  C23  1  0.79946335  0.38535446  0.90761701  1  0.809271  0  0.102434  0.185696  0  4.143231  0
C  C24  1  0.31782423  0.31894234  0.70428139  1  0.824548  0  0.106149  0.167331  0  4.10123  0
C  C25  1  0.18217845  0.68105750  0.20427781  1  0.824495  0  0.106048  0.167132  0  4.10139  0
C  C26  1  0.68217207  0.68105952  0.29571838  1  0.824632  0  0.106124  0.167306  0  4.10111  0
C  C27  1  0.81782433  0.31893942  0.79572112  1  0.824527  0  0.106127  0.167356  0  4.101209  0
C  C28  1  0.32747783  0.15759471  0.65689475  1  0.833662  0  0.102864  0.184631  0  4.129095  0
C  C29  1  0.17252840  0.84240457  0.15689187  1  0.833738  0  0.10282  0.184708  0  4.129146  0
C  C30  1  0.67252073  0.84241458  0.34310501  1  0.833713  0  0.102826  0.184699  0  4.129359  0
C  C31  1  0.82747400  0.15759112  0.84310707  1  0.833597  0  0.102805  0.184665  0  4.128935  0
C  C32  1  0.31365634  0.22543681  0.54518381  1  0.758033  0  0.100351  0.166319  0  4.08797  0
C  C33  1  0.18634574  0.77456233  0.04517968  1  0.757925  0  0.10037  0.166322  0  4.088047  0
C  C34  1  0.68634193  0.77456629  0.45482092  1  0.757952  0  0.100305  0.166197  0  4.088098  0
C  C35  1  0.81364830  0.22543212  0.95481843  1  0.757962  0  0.100392  0.166377  0  4.08789  0
O  O36  1  0.27796454  0.51955602  0.55105542  1  -1.144123  0  -0.30546  -0.427297  0  2.367244  0
O  O37  1  0.22203807  0.48044443  0.05104976  1  -1.144172  0  -0.305506  -0.427351  0  2.367102  0
O  O38  1  0.72202961  0.48045450  0.44894517  1  -1.14418  0  -0.305342  -0.427111  0  2.367911  0
O  O39  1  0.77796076  0.51955002  0.94894669  1  -1.144097  0  -0.305411  -0.427189  0  2.367341  0
O  O40  1  0.32460847  0.37509933  0.80164790  1  -1.168006  0  -0.275242  -0.412115  0  2.371982  0
O  O41  1  0.17539723  0.62489801  0.30164879  1  -1.167937  0  -0.275134  -0.412033  0  2.372038  0
O  O42  1  0.67538661  0.62490377  0.19835352  1  -1.168014  0  -0.275225  -0.412138  0  2.372082  0
O  O43  1  0.82460875  0.37509892  0.69835428  1  -1.167936  0  -0.275212  -0.412143  0  2.371973  0
O  O44  1  0.34552496  0.02417644  0.70123391  1  -1.149038  0  -0.312689  -0.434929  0  2.360617  0
O  O45  1  0.15448319  0.97582585  0.20123103  1  -1.148969  0  -0.312659  -0.434931  0  2.360609  0
O  O46  1  0.65447904  0.97581925  0.29876917  1  -1.149121  0  -0.312668  -0.434928  0  2.361124  0
O  O47  1  0.84552514  0.02417356  0.79876707  1  -1.148976  0  -0.312675  -0.434942  0  2.360517  0
O  O48  1  0.31759736  0.17137615  0.44612514  1  -1.183214  0  -0.299675  -0.473768  0  2.401715  0
O  O49  1  0.18240255  0.82862295  0.94612061  1  -1.183287  0  -0.299679  -0.47377  0  2.401774  0
O  O50  1  0.68240214  0.82862571  0.55387546  1  -1.183327  0  -0.299646  -0.473668  0  2.401914  0
O  O51  1  0.81758754  0.17136902  0.05387999  1  -1.18332  0  -0.299691  -0.473809  0  2.401666  0
O  O52  1  0.17635083  0.84118147  0.46590771  1  -1.26301  0  -0.589839  -0.776049  0  2.141931  0
O  O53  1  0.32364959  0.15881787  0.96590563  1  -1.263026  0  -0.589856  -0.776051  0  2.14204  0
O  O54  1  0.82365505  0.15882041  0.53409205  1  -1.262998  0  -0.589852  -0.776133  0  2.14186  0
O  O55  1  0.67634398  0.84118028  0.03408834  1  -1.263091  0  -0.589747  -0.776013  0  2.141917  0
O  O56  1  0.41453137  0.69438795  0.80437346  1  -1.224696  0  -0.566508  -0.769537  0  2.184387  0
O  O57  1  0.08547036  0.30561188  0.30437455  1  -1.224683  0  -0.566526  -0.769575  0  2.184249  0
O  O58  1  0.58546737  0.30561144  0.19562382  1  -1.224671  0  -0.566509  -0.769557  0  2.184304  0
O  O59  1  0.91453553  0.69438999  0.69562604  1  -1.224659  0  -0.56651  -0.769581  0  2.18432  0
