# generated using pymatgen
data_ZnPH10C5NO6
_symmetry_space_group_name_H-M   'P 1'
_cell_length_a   8.79934287
_cell_length_b   10.38793874
_cell_length_c   10.78600915
_cell_angle_alpha   97.57544527
_cell_angle_beta   90.00302500
_cell_angle_gamma   115.04016175
_symmetry_Int_Tables_number   1
_chemical_formula_structural   ZnPH10C5NO6
_chemical_formula_sum   'Zn4 P4 H40 C20 N4 O24'
_cell_volume   883.74206221
_cell_formula_units_Z   4
loop_
 _symmetry_equiv_pos_site_id
 _symmetry_equiv_pos_as_xyz
  1  'x, y, z'
loop_
 _atom_site_type_symbol
 _atom_site_label
 _atom_site_symmetry_multiplicity
 _atom_site_fract_x
 _atom_site_fract_y
 _atom_site_fract_z
 _atom_site_occupancy
 _atom_site_pbe_bader_spin_density
 _atom_site_pbe_cm5_charge
 _atom_site_pbe_ddec_charge
 _atom_site_pbe_ddec_spin_density
 _atom_site_pbe_ddec_sum_bond_order
 _atom_site_pbe_magmom
Zn  Zn0  1  0.13995064  0.64913427  0.36646508  1  0  0.722034  1.066361  0  2.273817  0
Zn  Zn1  1  0.49085047  0.35077647  0.13354748  1  0  0.72184  1.065731  0  2.275046  0
Zn  Zn2  1  0.86005356  0.35086583  0.63353551  1  0  0.722044  1.066355  0  2.273782  0
Zn  Zn3  1  0.50915038  0.64922147  0.86645099  1  0  0.721852  1.065743  0  2.274993  0
P  P4  1  0.77067625  0.38187114  0.35417095  1  0  0.416834  1.546519  0  5.480473  0
P  P5  1  0.38870135  0.61808410  0.14580921  1  0  0.418122  1.548761  0  5.476453  0
P  P6  1  0.22932795  0.61812894  0.64582778  1  0  0.416916  1.546673  0  5.480125  0
P  P7  1  0.61129837  0.38191385  0.85419018  1  0  0.418073  1.548747  0  5.476564  0
H  H8  1  0.77554340  0.17210515  0.35327101  1  0  0.300963  0.381812  0  0.967964  0
H  H9  1  0.60345749  0.82773656  0.14668768  1  0  0.301113  0.381691  0  0.96816  0
H  H10  1  0.22445571  0.82789386  0.64672851  1  0  0.30095  0.3818  0  0.967985  0
H  H11  1  0.39654338  0.17226141  0.85331914  1  0  0.301125  0.381685  0  0.968145  0
H  H12  1  0.40772565  0.18199814  0.61532875  1  0  0.31552  0.27678  0  0.940476  0
H  H13  1  0.22559022  0.81814794  0.88474305  1  0  0.315752  0.277311  0  0.940555  0
H  H14  1  0.59227294  0.81799981  0.38467250  1  0  0.31551  0.276753  0  0.940478  0
H  H15  1  0.77440902  0.18184677  0.11525316  1  0  0.315755  0.277303  0  0.940576  0
H  H16  1  0.53098534  0.28566173  0.51439378  1  0  0.310578  0.284441  0  0.96803  0
H  H17  1  0.24534050  0.71435787  0.98554577  1  0  0.310526  0.284832  0  0.965973  0
H  H18  1  0.46901881  0.71434052  0.48560986  1  0  0.310599  0.284469  0  0.968081  0
H  H19  1  0.75465815  0.28563791  0.01445150  1  0  0.310525  0.284841  0  0.965975  0
H  H20  1  0.39748268  0.11860918  0.35290255  1  0  0.125794  0.108422  0  0.969516  0
H  H21  1  0.27901762  0.88132721  0.14712900  1  0  0.125923  0.108935  0  0.969294  0
H  H22  1  0.60251625  0.88139628  0.64709963  1  0  0.125796  0.108491  0  0.969486  0
H  H23  1  0.72098162  0.11866751  0.85286814  1  0  0.125902  0.108856  0  0.969341  0
H  H24  1  0.13804153  0.10994136  0.28618190  1  0  0.099844  0.110432  0  1.019657  0
H  H25  1  0.02842814  0.89008724  0.21411541  1  0  0.099838  0.110728  0  1.019602  0
H  H26  1  0.86195920  0.89006088  0.71381895  1  0  0.099846  0.110407  0  1.01976  0
H  H27  1  0.97157545  0.10991391  0.78588160  1  0  0.099849  0.110762  0  1.019607  0
H  H28  1  0.05003474  0.07338239  0.43331788  1  0  0.089164  0.083451  0  1.020539  0
H  H29  1  0.97677094  0.92673750  0.06705909  1  0  0.089053  0.083265  0  1.020162  0
H  H30  1  0.94996713  0.92661985  0.56668390  1  0  0.089172  0.083469  0  1.020493  0
H  H31  1  0.02323265  0.07326365  0.93293699  1  0  0.089056  0.083226  0  1.020205  0
H  H32  1  0.30098221  0.36240132  0.36552048  1  0  0.094715  0.106518  0  1.006235  0
H  H33  1  0.93879634  0.63758471  0.13460798  1  0  0.094855  0.106886  0  1.006179  0
H  H34  1  0.69902133  0.63760200  0.63448143  1  0  0.094685  0.1065  0  1.006272  0
H  H35  1  0.06120051  0.36241431  0.86539154  1  0  0.094837  0.106877  0  1.006164  0
H  H36  1  0.11360716  0.32560459  0.44308344  1  0  0.095715  0.098786  0  1.029863  0
H  H37  1  0.78821117  0.67453200  0.05720208  1  0  0.095539  0.098356  0  1.029955  0
H  H38  1  0.88639805  0.67439980  0.55691675  1  0  0.095694  0.098768  0  1.029857  0
H  H39  1  0.21178795  0.32546702  0.94279744  1  0  0.095539  0.098343  0  1.029962  0
H  H40  1  0.23227938  0.28725339  0.63273953  1  0  0.114499  0.104458  0  0.966477  0
H  H41  1  0.94494157  0.71298300  0.86750429  1  0  0.114398  0.104353  0  0.966408  0
H  H42  1  0.76772476  0.71274886  0.36726132  1  0  0.114496  0.104521  0  0.966436  0
H  H43  1  0.05505767  0.28701171  0.13249378  1  0  0.114412  0.104364  0  0.966412  0
H  H44  1  0.40884588  0.43256566  0.58762538  1  0  0.114526  0.099188  0  0.99701  0
H  H45  1  0.97629780  0.56756237  0.91238968  1  0  0.114239  0.099093  0  0.997003  0
H  H46  1  0.59115827  0.56743659  0.41237733  1  0  0.114527  0.099215  0  0.996919  0
H  H47  1  0.02370084  0.43243342  0.08761037  1  0  0.114233  0.099077  0  0.997065  0
C  C48  1  0.26118144  0.96193556  0.47198736  1  0  0.223305  0.579917  0  4.186652  0
C  C49  1  0.29915809  0.03801254  0.02810159  1  0  0.222489  0.578533  0  4.189205  0
C  C50  1  0.73882151  0.03806884  0.52801655  1  0  0.223326  0.580026  0  4.186956  0
C  C51  1  0.70084790  0.96198431  0.97189396  1  0  0.222503  0.578545  0  4.189402  0
C  C52  1  0.31197301  0.10796608  0.42903606  1  0  0.01031  -0.008007  0  3.719461  0
C  C53  1  0.20404053  0.89202078  0.07108456  1  0  0.010836  -0.009112  0  3.72141  0
C  C54  1  0.68802485  0.89203724  0.57096586  1  0  0.010295  -0.008276  0  3.719649  0
C  C55  1  0.79595985  0.10797394  0.92891258  1  0  0.010849  -0.008946  0  3.72125  0
C  C56  1  0.16354462  0.13746896  0.38767069  1  0  -0.160328  -0.179549  0  3.876406  0
C  C57  1  0.02627772  0.86262062  0.11261429  1  0  -0.160281  -0.179168  0  3.875969  0
C  C58  1  0.83645772  0.86253652  0.61233242  1  0  -0.160368  -0.179503  0  3.876368  0
C  C59  1  0.97372307  0.13737946  0.88738352  1  0  -0.160287  -0.179179  0  3.875926  0
C  C60  1  0.21982874  0.29753698  0.43233011  1  0  -0.16771  -0.170506  0  3.901048  0
C  C61  1  0.92249276  0.70256774  0.06790651  1  0  -0.168064  -0.170635  0  3.900241  0
C  C62  1  0.78017420  0.70246741  0.56767101  1  0  -0.167635  -0.170444  0  3.901019  0
C  C63  1  0.07750636  0.29743127  0.93209302  1  0  -0.168018  -0.170585  0  3.900134  0
C  C64  1  0.31602089  0.32238183  0.55678741  1  0  -0.062631  -0.018716  0  3.755544  0
C  C65  1  0.99367080  0.67775123  0.94335926  1  0  -0.062308  -0.01901  0  3.755405  0
C  C66  1  0.68398379  0.67762149  0.44321451  1  0  -0.062631  -0.01883  0  3.755544  0
C  C67  1  0.00633059  0.32224779  0.05664027  1  0  -0.062301  -0.018993  0  3.75541  0
N  N68  1  0.40537345  0.22649932  0.53513308  1  0  -0.477066  -0.230677  0  3.467718  0
N  N69  1  0.17883661  0.77355609  0.96491531  1  0  -0.477277  -0.230825  0  3.465589  0
N  N70  1  0.59462895  0.77350400  0.46486884  1  0  -0.477038  -0.230569  0  3.467813  0
N  N71  1  0.82116257  0.22644077  0.03508302  1  0  -0.477334  -0.2309  0  3.46545  0
O  O72  1  0.90599391  0.52403957  0.32532284  1  0  -0.380538  -0.803009  0  2.341424  0
O  O73  1  0.38183266  0.47583757  0.17455023  1  0  -0.381007  -0.803682  0  2.341657  0
O  O74  1  0.09401143  0.47596052  0.67467682  1  0  -0.380575  -0.803014  0  2.341368  0
O  O75  1  0.61816598  0.52415821  0.82544519  1  0  -0.380994  -0.803704  0  2.341703  0
O  O76  1  0.60103510  0.34423033  0.28713416  1  0  -0.391102  -0.810713  0  2.321224  0
O  O77  1  0.25675512  0.65576565  0.21290028  1  0  -0.390957  -0.811061  0  2.321214  0
O  O78  1  0.39897017  0.65577190  0.71286391  1  0  -0.391092  -0.8107  0  2.321231  0
O  O79  1  0.74324407  0.34423122  0.78709991  1  0  -0.390946  -0.811092  0  2.321236  0
O  O80  1  0.73925260  0.37928652  0.49610797  1  0  -0.381458  -0.818706  0  2.367821  0
O  O81  1  0.35996192  0.62086752  0.00388909  1  0  -0.381566  -0.818776  0  2.367194  0
O  O82  1  0.26075274  0.62071357  0.50389076  1  0  -0.381468  -0.818788  0  2.367889  0
O  O83  1  0.64004115  0.37913257  0.99611150  1  0  -0.381555  -0.818794  0  2.367233  0
O  O84  1  0.83415153  0.26129069  0.30901129  1  0  -0.392857  -0.716145  0  2.25134  0
O  O85  1  0.57272809  0.73860204  0.19102571  1  0  -0.393541  -0.716813  0  2.250071  0
O  O86  1  0.16584980  0.73871047  0.69098572  1  0  -0.392864  -0.716186  0  2.251269  0
O  O87  1  0.42726763  0.26139700  0.80897846  1  0  -0.393525  -0.71678  0  2.250051  0
O  O88  1  0.17081767  0.85446448  0.39122328  1  0  -0.314883  -0.563884  0  2.340425  0
O  O89  1  0.31646725  0.14547849  0.10896082  1  0  -0.314616  -0.563267  0  2.340814  0
O  O90  1  0.82918647  0.14553777  0.60877943  1  0  -0.314888  -0.563904  0  2.340595  0
O  O91  1  0.68353469  0.85452162  0.89104255  1  0  -0.314576  -0.563216  0  2.341084  0
O  O92  1  0.30971563  0.96015708  0.58177761  1  0  -0.305176  -0.527057  0  2.193879  0
O  O93  1  0.34918760  0.03979392  0.91822325  1  0  -0.304991  -0.526232  0  2.193867  0
O  O94  1  0.69028385  0.03984947  0.41822748  1  0  -0.305182  -0.527069  0  2.194022  0
O  O95  1  0.65081493  0.96020511  0.08177906  1  0  -0.305057  -0.526353  0  2.19377  0
