# generated using pymatgen
data_Zn4H24C36N8O29
_symmetry_space_group_name_H-M   'P 1'
_cell_length_a   17.73114312
_cell_length_b   18.64875454
_cell_length_c   23.27063574
_cell_angle_alpha   66.35404155
_cell_angle_beta   69.79720000
_cell_angle_gamma   89.91476591
_symmetry_Int_Tables_number   1
_chemical_formula_structural   Zn4H24C36N8O29
_chemical_formula_sum   'Zn8 H48 C72 N16 O58'
_cell_volume   6530.48152693
_cell_formula_units_Z   2
loop_
 _symmetry_equiv_pos_site_id
 _symmetry_equiv_pos_as_xyz
  1  'x, y, z'
loop_
 _atom_site_type_symbol
 _atom_site_label
 _atom_site_symmetry_multiplicity
 _atom_site_fract_x
 _atom_site_fract_y
 _atom_site_fract_z
 _atom_site_occupancy
 _atom_site_pbe_bader_charge
 _atom_site_pbe_bader_spin_density
 _atom_site_pbe_cm5_charge
 _atom_site_pbe_ddec_charge
 _atom_site_pbe_ddec_spin_density
 _atom_site_pbe_ddec_sum_bond_order
 _atom_site_pbe_magmom
Zn  Zn0  1  0.11907880  0.52676271  0.94528713  1  1.314254  0  0.67858  0.967586  0  2.352333  0
Zn  Zn1  1  0.97044273  0.56224627  0.04963424  1  1.31742  0  0.677124  0.962706  0  2.378072  0
Zn  Zn2  1  0.97981073  0.38820894  0.05012058  1  1.312313  0  0.677388  0.961538  0  2.385004  0
Zn  Zn3  1  0.93483668  0.53068969  0.93846655  1  1.316977  0  0.679577  0.974028  0  2.318603  0
Zn  Zn4  1  0.38334505  0.97322489  0.04863280  1  1.315744  0  0.677517  0.965906  0  2.355134  0
Zn  Zn5  1  0.52780751  0.11596818  0.94086506  1  1.310325  0  0.677814  0.961971  0  2.382802  0
Zn  Zn6  1  0.52121561  0.94295776  0.94019310  1  1.309937  0  0.677821  0.961732  0  2.377476  0
Zn  Zn7  1  0.57139898  0.97709223  0.04863585  1  1.317476  0  0.679823  0.975529  0  2.313445  0
H  H8  1  0.20015909  0.30022272  0.90908597  1  0.012268  0  0.093479  0.089361  0  0.974546  0
H  H9  1  0.12670775  0.22905804  0.98560604  1  0.023578  0  0.094442  0.093773  0  0.984997  0
H  H10  1  0.21411120  0.13561334  0.98439987  1  0.058392  0  0.094751  0.092186  0  0.977198  0
H  H11  1  0.28764771  0.20736218  0.90813679  1  0.036741  0  0.094712  0.093081  0  0.975257  0
H  H12  1  0.21372304  0.12060184  0.09731385  1  0.032512  0  0.095225  0.10021  0  0.982305  0
H  H13  1  0.28639725  0.18084956  0.10107841  1  0.0122  0  0.090844  0.08712  0  0.976408  0
H  H14  1  0.12632240  0.21458230  0.09826041  1  0.085707  0  0.095518  0.098969  0  0.981297  0
H  H15  1  0.19994830  0.27483559  0.10153866  1  0.010032  0  0.090982  0.085459  0  0.977617  0
H  H16  1  0.30542478  0.38886715  0.91351116  1  0.045153  0  0.093685  0.095167  0  0.977289  0
H  H17  1  0.30526597  0.37818740  0.99206412  1  0.019263  0  0.090595  0.087707  0  0.980749  0
H  H18  1  0.39313470  0.28501342  0.99061536  1  0.030838  0  0.090397  0.086261  0  0.978506  0
H  H19  1  0.39236560  0.29498811  0.91235650  1  0.045042  0  0.094564  0.09945  0  0.98272  0
H  H20  1  0.88994303  0.80308090  0.90273311  1  0.041324  0  0.092776  0.087966  0  0.976286  0
H  H21  1  0.88844470  0.78975711  0.98288532  1  0.055261  0  0.09427  0.094794  0  0.985961  0
H  H22  1  0.79978893  0.88222082  0.98506220  1  0.016659  0  0.094188  0.09248  0  0.979026  0
H  H23  1  0.80141772  0.89476916  0.90503884  1  0.064019  0  0.094043  0.091594  0  0.975391  0
H  H24  1  0.69526683  0.77801516  0.09215100  1  0.042603  0  0.095883  0.100972  0  0.981822  0
H  H25  1  0.62295880  0.71715982  0.08833008  1  0.032231  0  0.091134  0.086422  0  0.976771  0
H  H26  1  0.78382176  0.68529978  0.09000534  1  0.045577  0  0.095723  0.099375  0  0.981816  0
H  H27  1  0.71113393  0.62503324  0.08570951  1  0.003097  0  0.091049  0.085571  0  0.977965  0
H  H28  1  0.78668639  0.71482819  0.89604642  1  0.038626  0  0.093444  0.094488  0  0.974773  0
H  H29  1  0.71357164  0.64263890  0.97070687  1  0.021009  0  0.090477  0.088319  0  0.982574  0
H  H30  1  0.62520585  0.73542875  0.97192047  1  0.053668  0  0.090318  0.086895  0  0.979494  0
H  H31  1  0.69894358  0.80801222  0.89791311  1  0.029781  0  0.093486  0.098688  0  0.986042  0
H  H32  1  0.16097988  0.79337583  0.93610928  1  0.014339  0  0.091855  0.086551  0  0.978181  0
H  H33  1  0.24474020  0.75608519  0.89568538  1  0.039422  0  0.096443  0.101032  0  0.979121  0
H  H34  1  0.33302764  0.85077769  0.89333741  1  0.048464  0  0.096465  0.096193  0  0.974733  0
H  H35  1  0.24880870  0.88597626  0.93591909  1  0.033851  0  0.092643  0.088348  0  0.979112  0
H  H36  1  0.39179465  0.73918354  0.96056225  1  0.058679  0  0.094838  0.097731  0  0.984014  0
H  H37  1  0.35184492  0.69785567  0.04979409  1  0.002962  0  0.090305  0.084716  0  0.980365  0
H  H38  1  0.30143814  0.64443874  0.96476766  1  0.026848  0  0.095623  0.098061  0  0.981336  0
H  H39  1  0.26013027  0.60496213  0.05411216  1  0.021227  0  0.0907  0.085018  0  0.979168  0
H  H40  1  0.09978352  0.73522254  0.06523744  1  0.03238  0  0.092247  0.092023  0  0.979456  0
H  H41  1  0.13944449  0.65768368  0.11324577  1  0.047627  0  0.093199  0.095605  0  0.976583  0
H  H42  1  0.23053102  0.74970385  0.11136594  1  0.005855  0  0.091238  0.089374  0  0.974769  0
H  H43  1  0.19004650  0.82723025  0.06407515  1  0.051763  0  0.093257  0.09515  0  0.984822  0
H  H44  1  0.89928753  0.26768884  0.93010500  1  0.011474  0  0.091835  0.086675  0  0.978528  0
H  H45  1  0.85490411  0.34492702  0.88546905  1  0.050818  0  0.096893  0.100298  0  0.976121  0
H  H46  1  0.76738704  0.25019579  0.88697829  1  0.03899  0  0.0954  0.095086  0  0.973147  0
H  H47  1  0.80905968  0.17313152  0.93492634  1  0.019817  0  0.092493  0.088121  0  0.979748  0
H  H48  1  0.65066874  0.30433008  0.94631894  1  0.048112  0  0.095687  0.099081  0  0.983239  0
H  H49  1  0.60611786  0.26296525  0.03543122  1  0.02894  0  0.089655  0.084039  0  0.980437  0
H  H50  1  0.73886847  0.39586296  0.94782255  1  0.060511  0  0.09575  0.098268  0  0.981294  0
H  H51  1  0.69620371  0.35190055  0.03724454  1  0.045953  0  0.089975  0.084871  0  0.978684  0
H  H52  1  0.83998023  0.20396626  0.05921701  1  0.030997  0  0.092227  0.092012  0  0.979424  0
H  H53  1  0.75893452  0.23919739  0.10341598  1  0.048455  0  0.092408  0.094913  0  0.979745  0
H  H54  1  0.66578800  0.14961111  0.10500010  1  0.020133  0  0.091179  0.089063  0  0.975016  0
H  H55  1  0.74700001  0.11236465  0.06282698  1  0.034881  0  0.093384  0.095662  0  0.985351  0
C  C56  1  0.13867976  0.63400079  0.00371255  1  1.53606  0  0.239726  0.608145  0  4.081595  0
C  C57  1  0.91269640  0.41451544  0.17283515  1  1.672881  0  0.232069  0.609086  0  4.183162  0
C  C58  1  0.14640746  0.36184074  0.00052102  1  1.523356  0  0.23814  0.606759  0  4.088  0
C  C59  1  0.86185144  0.36622914  0.99300685  1  1.524487  0  0.239856  0.608806  0  4.082352  0
C  C60  1  0.08872237  0.58983719  0.81859027  1  1.68126  0  0.232052  0.611575  0  4.179906  0
C  C61  1  0.85946313  0.64521528  0.98850691  1  1.54003  0  0.238484  0.608156  0  4.087151  0
C  C62  1  0.35924887  0.13756573  0.99669815  1  1.53122  0  0.239399  0.607713  0  4.081453  0
C  C63  1  0.58503607  0.09008524  0.81780541  1  1.627489  0  0.231106  0.608349  0  4.18471  0
C  C64  1  0.35540558  0.85938347  0.99841367  1  1.547239  0  0.238427  0.604717  0  4.087786  0
C  C65  1  0.64520455  0.86897943  0.99123577  1  1.552904  0  0.239888  0.609659  0  4.082022  0
C  C66  1  0.42182732  0.91137528  0.17217464  1  1.662111  0  0.232016  0.61165  0  4.180037  0
C  C67  1  0.64391083  0.14385801  0.99512337  1  1.537832  0  0.238842  0.60941  0  4.082932  0
C  C68  1  0.38306904  0.87505856  0.24871184  1  0.128293  0  0.014206  -0.084094  0  3.867541  0
C  C69  1  0.42948569  0.85252552  0.28938501  1  0.263824  0  0.106589  0.04284  0  3.886645  0
C  C70  1  0.39340366  0.82101237  0.35963936  1  0.308001  0  0.10408  0.003926  0  3.84345  0
C  C71  1  0.30799985  0.80414745  0.39353629  1  0.183872  0  0.033892  0.082853  0  4.05088  0
C  C72  1  0.26144173  0.82431425  0.35248597  1  0.241022  0  0.103913  0.004568  0  3.845801  0
C  C73  1  0.29814543  0.86160003  0.28227204  1  0.334602  0  0.106571  0.043009  0  3.88368  0
C  C74  1  0.27098897  0.76873419  0.46466009  1  0.087594  0  -0.009458  -0.031147  0  4.032096  0
C  C75  1  0.23861287  0.73772453  0.52612912  1  -0.234576  0  -0.010431  -0.037752  0  4.03603  0
C  C76  1  0.20194272  0.70176833  0.59725944  1  0.162677  0  0.034116  0.08825  0  4.049425  0
C  C77  1  0.24887031  0.68120474  0.63802903  1  0.255677  0  0.104491  0.004314  0  3.846954  0
C  C78  1  0.21256745  0.64862981  0.70826695  1  0.335968  0  0.105026  0.041656  0  3.882808  0
C  C79  1  0.12773754  0.62862789  0.74212481  1  0.0992  0  0.014512  -0.08488  0  3.866927  0
C  C80  1  0.08093825  0.64605372  0.70176740  1  0.237896  0  0.106826  0.043531  0  3.881062  0
C  C81  1  0.11659123  0.68434298  0.63148508  1  0.303733  0  0.105437  0.004811  0  3.843625  0
C  C82  1  0.62524742  0.12805957  0.74166022  1  0.09538  0  0.015729  -0.080671  0  3.873272  0
C  C83  1  0.64731664  0.08234874  0.70488346  1  0.342703  0  0.106324  0.041475  0  3.88619  0
C  C84  1  0.68145709  0.11732234  0.63455750  1  0.250056  0  0.105085  0.005152  0  3.848558  0
C  C85  1  0.70091809  0.20046351  0.59737103  1  0.06971  0  0.033918  0.08535  0  4.054786  0
C  C86  1  0.68191905  0.24617368  0.63480120  1  0.363983  0  0.104215  0.003664  0  3.848422  0
C  C87  1  0.64246795  0.21076745  0.70479786  1  0.26168  0  0.106397  0.042395  0  3.884936  0
C  C88  1  0.73726374  0.23618109  0.52635069  1  0.075339  0  -0.010152  -0.035981  0  4.043558  0
C  C89  1  0.76809216  0.26734787  0.46485278  1  -0.169261  0  -0.01067  -0.033894  0  4.042873  0
C  C90  1  0.80335926  0.30323596  0.39378496  1  0.238212  0  0.034045  0.084241  0  4.056074  0
C  C91  1  0.82238521  0.25772893  0.35617780  1  0.402902  0  0.104167  0.0051  0  3.847301  0
C  C92  1  0.85424301  0.29352255  0.28582504  1  0.107827  0  0.106505  0.041823  0  3.887048  0
C  C93  1  0.87467287  0.37614692  0.24919420  1  0.147119  0  0.015585  -0.081052  0  3.872647  0
C  C94  1  0.85862970  0.42150668  0.28648183  1  0.261137  0  0.106577  0.042656  0  3.884831  0
C  C95  1  0.82122628  0.38641415  0.35667591  1  0.277204  0  0.10502  0.005636  0  3.846143  0
C  C96  1  0.19060966  0.25770213  0.96107468  1  0.000729  0  -0.154728  -0.169547  0  3.849186  0
C  C97  1  0.24875998  0.19573201  0.96034793  1  -0.053444  0  -0.152769  -0.168236  0  3.841762  0
C  C98  1  0.30337063  0.19892977  0.99918406  1  0.075688  0  -0.015881  0.018275  0  3.816594  0
C  C99  1  0.24815388  0.18072453  0.07261498  1  -0.00499  0  -0.159527  -0.172911  0  3.860917  0
C  C100  1  0.19032667  0.24292180  0.07322127  1  -0.058823  0  -0.156562  -0.170487  0  3.852553  0
C  C101  1  0.20587346  0.30333107  0.99989589  1  0.051316  0  -0.016419  0.016727  0  3.822293  0
C  C102  1  0.29470701  0.34484414  0.96516736  1  -0.009922  0  -0.162268  -0.174387  0  3.881318  0
C  C103  1  0.35272791  0.28291205  0.96434689  1  -0.052924  0  -0.162027  -0.17787  0  3.870698  0
C  C104  1  0.84956652  0.78900621  0.95517725  1  -0.048154  0  -0.155142  -0.169953  0  3.84858  0
C  C105  1  0.79058598  0.85031591  0.95665902  1  -0.059346  0  -0.15339  -0.170177  0  3.842848  0
C  C106  1  0.70135074  0.80738549  0.99045683  1  0.042076  0  -0.015438  0.021397  0  3.812555  0
C  C107  1  0.68673297  0.74665031  0.06324833  1  -0.035529  0  -0.159163  -0.174295  0  3.86368  0
C  C108  1  0.74539058  0.68534898  0.06176537  1  -0.004507  0  -0.156898  -0.172204  0  3.851134  0
C  C109  1  0.80069653  0.70460743  0.98770063  1  0.030901  0  -0.015451  0.020604  0  3.814125  0
C  C110  1  0.74754021  0.70271966  0.94827444  1  -0.013423  0  -0.162795  -0.176372  0  3.881632  0
C  C111  1  0.68901023  0.76422702  0.94940486  1  -0.026522  0  -0.162987  -0.179076  0  3.874689  0
C  C112  1  0.21731623  0.77031884  0.93915205  1  -0.00358  0  -0.154354  -0.17112  0  3.847568  0
C  C113  1  0.27618417  0.83245089  0.93813034  1  -0.04292  0  -0.15237  -0.167795  0  3.844044  0
C  C114  1  0.29621869  0.79681448  0.00292202  1  0.042137  0  -0.015987  0.020022  0  3.814927  0
C  C115  1  0.33511368  0.72223091  0.00510194  1  -0.014149  0  -0.159481  -0.174037  0  3.869885  0
C  C116  1  0.27495529  0.66006327  0.00752334  1  -0.014676  0  -0.156537  -0.172252  0  3.859169  0
C  C117  1  0.19560282  0.69328665  0.00525217  1  0.047835  0  -0.015884  0.02131  0  3.817484  0
C  C118  1  0.15670703  0.71256881  0.06636218  1  -0.037131  0  -0.162925  -0.178688  0  3.877676  0
C  C119  1  0.21666395  0.77378618  0.06523932  1  -0.015888  0  -0.161253  -0.174579  0  3.871556  0
C  C120  1  0.84117356  0.28912654  0.93116516  1  -0.019619  0  -0.153362  -0.170211  0  3.841792  0
C  C121  1  0.78162036  0.22656865  0.93292519  1  -0.023094  0  -0.15179  -0.166733  0  3.83463  0
C  C122  1  0.70167148  0.20316816  0.99606676  1  0.056488  0  -0.015466  0.019317  0  3.813652  0
C  C123  1  0.66444432  0.27892981  0.99231215  1  -0.034252  0  -0.16089  -0.175068  0  3.870819  0
C  C124  1  0.72381388  0.33917863  0.99283744  1  -0.071626  0  -0.157508  -0.173889  0  3.861564  0
C  C125  1  0.80313342  0.30561207  0.99448315  1  0.050907  0  -0.016327  0.018522  0  3.816432  0
C  C126  1  0.78331688  0.22737995  0.05839116  1  -0.0235  0  -0.163575  -0.175358  0  3.879059  0
C  C127  1  0.72220822  0.16706730  0.05992262  1  -0.018876  0  -0.161987  -0.177561  0  3.879731  0
N  N128  1  0.51979473  0.86153947  0.25786377  1  0.437264  0  0.061603  0.506675  0  4.282226  0
N  N129  1  0.24405794  0.88773578  0.24333318  1  0.465696  0  0.062509  0.505659  0  4.28602  0
N  N130  1  0.17149341  0.80550630  0.38584621  1  0.389238  0  0.064823  0.510314  0  4.244302  0
N  N131  1  0.44463778  0.80335122  0.40075831  1  0.392985  0  0.065906  0.510046  0  4.243739  0
N  N132  1  0.33876824  0.69574565  0.60433463  1  0.382647  0  0.064355  0.508625  0  4.247749  0
N  N133  1  0.06478109  0.70690041  0.59080965  1  0.410106  0  0.064526  0.509386  0  4.246244  0
N  N134  1  0.99061380  0.62332751  0.73354887  1  0.436836  0  0.060419  0.50596  0  4.283172  0
N  N135  1  0.26682396  0.63593511  0.74705270  1  0.443182  0  0.061878  0.507778  0  4.281206  0
N  N136  1  0.63560249  0.99423577  0.74083051  1  0.422872  0  0.062464  0.508039  0  4.281795  0
N  N137  1  0.61805718  0.26322538  0.74019228  1  0.45421  0  0.062257  0.507565  0  4.281596  0
N  N138  1  0.70409524  0.33359065  0.59783021  1  0.426006  0  0.06515  0.51102  0  4.242442  0
N  N139  1  0.69924790  0.06722638  0.59707017  1  0.416246  0  0.066811  0.513295  0  4.243525  0
N  N140  1  0.80667633  0.17012229  0.39340090  1  0.424414  0  0.064256  0.508233  0  4.246922  0
N  N141  1  0.80021380  0.43632602  0.39427213  1  0.430822  0  0.064672  0.508706  0  4.244279  0
N  N142  1  0.88249734  0.50937473  0.25133455  1  0.480039  0  0.062051  0.504482  0  4.281902  0
N  N143  1  0.86555322  0.24154942  0.24975406  1  0.457739  0  0.062579  0.506483  0  4.281806  0
O  O144  1  0.00081738  0.50266026  0.99465226  1  -1.23354  0  -0.576981  -1.03626  0  2.553126  0
O  O145  1  0.16652707  0.61289701  0.95531163  1  -1.167131  0  -0.315747  -0.552066  0  2.34923  0
O  O146  1  0.89975300  0.48432952  0.14381781  1  -1.157263  0  -0.297169  -0.517261  0  2.325469  0
O  O147  1  0.07083445  0.33225396  0.03124495  1  -1.166382  0  -0.315404  -0.548725  0  2.351861  0
O  O148  1  0.06749688  0.61018235  0.04994383  1  -1.178926  0  -0.312078  -0.543488  0  2.362932  0
O  O149  1  0.17501774  0.43569098  0.97029711  1  -1.17622  0  -0.310557  -0.54222  0  2.350191  0
O  O150  1  0.95368325  0.37274721  0.14587529  1  -1.153557  0  -0.296578  -0.517151  0  2.333792  0
O  O151  1  0.88889118  0.34305772  0.04062018  1  -1.165987  0  -0.312233  -0.54491  0  2.385269  0
O  O152  1  0.01542812  0.59797502  0.84405889  1  -1.160645  0  -0.295247  -0.517747  0  2.333701  0
O  O153  1  0.87946705  0.43593109  0.94458165  1  -1.17389  0  -0.314593  -0.55088  0  2.330141  0
O  O154  1  0.13375403  0.55327551  0.84900571  1  -1.159028  0  -0.297245  -0.52022  0  2.341359  0
O  O155  1  0.90573257  0.64313488  0.02068781  1  -1.184157  0  -0.317579  -0.553835  0  2.35891  0
O  O156  1  0.85863822  0.60153107  0.95820448  1  -1.166639  0  -0.309442  -0.542282  0  2.338169  0
O  O157  1  0.50084649  0.00137598  0.99627221  1  -1.228544  0  -0.576562  -1.035783  0  2.549324  0
O  O158  1  0.33316174  0.06720722  0.04378946  1  -1.171271  0  -0.31141  -0.543738  0  2.351862  0
O  O159  1  0.59697367  0.13094672  0.84701738  1  -1.147375  0  -0.29652  -0.517417  0  2.34237  0
O  O160  1  0.43072533  0.86433246  0.96411824  1  -1.173319  0  -0.312985  -0.544606  0  2.352272  0
O  O161  1  0.42760174  0.16027356  0.94675131  1  -1.170523  0  -0.316564  -0.551411  0  2.360321  0
O  O162  1  0.32603524  0.90397465  0.02756293  1  -1.177904  0  -0.312764  -0.54463  0  2.347606  0
O  O163  1  0.54374504  0.02161656  0.84451551  1  -1.155861  0  -0.296255  -0.515631  0  2.324113  0
O  O164  1  0.61658834  0.89332734  0.94455537  1  -1.184905  0  -0.315227  -0.549563  0  2.379635  0
O  O165  1  0.49497074  0.94566514  0.14555596  1  -1.159985  0  -0.294104  -0.515839  0  2.31889  0
O  O166  1  0.63175328  0.89277506  0.03784946  1  -1.164259  0  -0.313193  -0.548206  0  2.335153  0
O  O167  1  0.37622470  0.90317613  0.14293070  1  -1.158089  0  -0.299116  -0.523149  0  2.346634  0
O  O168  1  0.59766257  0.17233869  0.96259721  1  -1.172998  0  -0.313649  -0.54532  0  2.357533  0
O  O169  1  0.64608097  0.07017979  0.02581884  1  -1.174885  0  -0.313175  -0.550393  0  2.341151  0
O  O170  1  0.54621277  0.81546710  0.23277567  1  -0.389894  0  -0.097024  -0.27593  0  1.881983  0
O  O171  1  0.55876461  0.91308538  0.26148937  1  -0.392606  0  -0.101292  -0.278797  0  1.865753  0
O  O172  1  0.24535064  0.95970622  0.21581020  1  -0.409972  0  -0.096159  -0.276735  0  1.899441  0
O  O173  1  0.20169909  0.83463297  0.24437670  1  -0.402371  0  -0.102367  -0.27938  0  1.870208  0
O  O174  1  0.14300782  0.73519668  0.42375816  1  -0.402486  0  -0.096916  -0.28097  0  1.888012  0
O  O175  1  0.13398070  0.86184626  0.37281409  1  -0.376517  0  -0.096524  -0.273769  0  1.863456  0
O  O176  1  0.43208721  0.83471268  0.44013596  1  -0.377977  0  -0.098078  -0.282069  0  1.889125  0
O  O177  1  0.49438032  0.75877726  0.39200903  1  -0.377615  0  -0.095486  -0.271676  0  1.865147  0
O  O178  1  0.36709716  0.66348392  0.56624462  1  -0.388947  0  -0.097656  -0.281487  0  1.890793  0
O  O179  1  0.37641621  0.73888340  0.61732089  1  -0.380979  0  -0.095533  -0.27219  0  1.864034  0
O  O180  1  0.07633913  0.77749971  0.55137283  1  -0.398674  0  -0.097951  -0.282226  0  1.890695  0
O  O181  1  0.01554600  0.65298780  0.59998441  1  -0.385441  0  -0.095732  -0.272493  0  1.864652  0
O  O182  1  0.96449728  0.55212174  0.75880556  1  -0.380905  0  -0.097457  -0.276851  0  1.887552  0
O  O183  1  0.95133252  0.67842255  0.72970163  1  -0.406336  0  -0.101666  -0.279064  0  1.86597  0
O  O184  1  0.26611922  0.68098109  0.77390173  1  -0.397556  0  -0.097448  -0.277883  0  1.889604  0
O  O185  1  0.30850694  0.58313752  0.74670677  1  -0.390052  0  -0.102613  -0.28051  0  1.866946  0
O  O186  1  0.67999499  0.96710291  0.77233879  1  -0.389285  0  -0.095196  -0.276531  0  1.897037  0
O  O187  1  0.58415347  0.95744622  0.73406565  1  -0.404271  0  -0.102312  -0.28031  0  1.86631  0
O  O188  1  0.54460971  0.26393431  0.76423622  1  -0.404599  0  -0.097299  -0.276298  0  1.885235  0
O  O189  1  0.67407095  0.30196498  0.74037464  1  -0.398628  0  -0.102273  -0.280353  0  1.866634  0
O  O190  1  0.77658074  0.35928056  0.56184194  1  -0.406971  0  -0.097567  -0.282551  0  1.887407  0
O  O191  1  0.64802596  0.37212092  0.60633629  1  -0.40048  0  -0.095408  -0.27204  0  1.863236  0
O  O192  1  0.66706653  0.07931133  0.55549037  1  -0.397946  0  -0.098307  -0.283217  0  1.88932  0
O  O193  1  0.74486794  0.01866893  0.61079355  1  -0.388845  0  -0.09617  -0.273361  0  1.860691  0
O  O194  1  0.84081951  0.14165802  0.43368628  1  -0.407572  0  -0.097002  -0.280663  0  1.887358  0
O  O195  1  0.76066362  0.13428730  0.38085795  1  -0.399821  0  -0.09502  -0.271541  0  1.86536  0
O  O196  1  0.72810314  0.42597122  0.43119653  1  -0.399995  0  -0.097333  -0.281264  0  1.888736  0
O  O197  1  0.85680084  0.48294665  0.38536826  1  -0.393867  0  -0.09501  -0.271486  0  1.862172  0
O  O198  1  0.95599809  0.53422029  0.22569661  1  -0.40726  0  -0.09528  -0.274864  0  1.891443  0
O  O199  1  0.82620690  0.54821632  0.25286916  1  -0.401683  0  -0.101513  -0.278389  0  1.866461  0
O  O200  1  0.81964173  0.24485848  0.21972754  1  -0.408254  0  -0.096148  -0.276735  0  1.894042  0
O  O201  1  0.91831904  0.19912629  0.25501234  1  -0.391577  0  -0.100848  -0.278273  0  1.866135  0
