# generated using pymatgen
data_Sm2H22C8S3(NO10)2
_symmetry_space_group_name_H-M   'P 1'
_cell_length_a   6.58740102
_cell_length_b   12.55697620
_cell_length_c   13.44739125
_cell_angle_alpha   79.53132793
_cell_angle_beta   75.82045119
_cell_angle_gamma   74.79314112
_symmetry_Int_Tables_number   1
_chemical_formula_structural   Sm2H22C8S3(NO10)2
_chemical_formula_sum   'Sm4 H44 C16 S6 N4 O40'
_cell_volume   1032.45559086
_cell_formula_units_Z   2
loop_
 _symmetry_equiv_pos_site_id
 _symmetry_equiv_pos_as_xyz
  1  'x, y, z'
loop_
 _atom_site_type_symbol
 _atom_site_label
 _atom_site_symmetry_multiplicity
 _atom_site_fract_x
 _atom_site_fract_y
 _atom_site_fract_z
 _atom_site_occupancy
 _atom_site_hle17_bader_spin_density
 _atom_site_hle17_ddec_charge
 _atom_site_hle17_ddec_spin_density
 _atom_site_hle17_ddec_sum_bond_order
 _atom_site_hle17_magmom
 _atom_site_hse06_10hf_bader_spin_density
 _atom_site_hse06_10hf_ddec_charge
 _atom_site_hse06_10hf_ddec_spin_density
 _atom_site_hse06_10hf_ddec_sum_bond_order
 _atom_site_hse06_10hf_magmom
 _atom_site_hse06_bader_spin_density
 _atom_site_hse06_ddec_charge
 _atom_site_hse06_ddec_spin_density
 _atom_site_hse06_ddec_sum_bond_order
 _atom_site_hse06_magmom
 _atom_site_pbe_bader_charge
 _atom_site_pbe_bader_spin_density
 _atom_site_pbe_cm5_charge
 _atom_site_pbe_ddec_charge
 _atom_site_pbe_ddec_spin_density
 _atom_site_pbe_ddec_sum_bond_order
 _atom_site_pbe_magmom
Sm  Sm0  1  0.77988732  0.95019185  0.36789609  1  0  2.380319  0  1.574341  0  0  2.297213  0  1.917789  0  0  2.337035  0  1.875715  0  2.260281  0  1.512978  2.268077  0  1.947371  0
Sm  Sm1  1  0.09797912  0.54977247  0.13207657  1  0  2.380795  0  1.572875  0  0  2.297525  0  1.916156  0  0  2.337312  0  1.874109  0  2.262825  0  1.512492  2.268427  0  1.945711  0
Sm  Sm2  1  0.22011390  0.04980765  0.63210377  1  0  2.380311  0  1.574309  0  0  2.297209  0  1.917756  0  0  2.337029  0  1.875684  0  2.260321  0  1.512971  2.268073  0  1.94734  0
Sm  Sm3  1  0.90202099  0.45022787  0.86792393  1  0  2.380792  0  1.572854  0  0  2.297511  0  1.916132  0  0  2.337299  0  1.874085  0  2.262839  0  1.512482  2.268412  0  1.945687  0
H  H4  1  0.95396457  0.13502036  0.23901789  1  0  0.420643  0  0.893582  0  0  0.387154  0  0.963002  0  0  0.39771  0  0.947575  0  0.644671  0  0.291004  0.379687  0  0.973895  0
H  H5  1  0.32782864  0.36503928  0.26103360  1  0  0.421898  0  0.891425  0  0  0.388353  0  0.960861  0  0  0.398934  0  0.9454  0  0.630925  0  0.291821  0.380899  0  0.971739  0
H  H6  1  0.04603628  0.86497997  0.76098187  1  0  0.42061  0  0.893617  0  0  0.387105  0  0.963061  0  0  0.39766  0  0.947636  0  0.644675  0  0.290983  0.379639  0  0.973953  0
H  H7  1  0.67217158  0.63496105  0.73896523  1  0  0.421901  0  0.891419  0  0  0.388359  0  0.960849  0  0  0.398938  0  0.945391  0  0.630937  0  0.291833  0.380904  0  0.971727  0
H  H8  1  0.72127632  0.17010849  0.22097415  1  0  0.444399  0  0.842402  0  0  0.417022  0  0.899769  0  0  0.427059  0  0.885033  0  0.657766  0  0.301807  0.409918  0  0.910207  0
H  H9  1  0.11226752  0.32988544  0.27905230  1  0  0.443417  0  0.844172  0  0  0.416427  0  0.900798  0  0  0.426434  0  0.886122  0  0.649577  0  0.301601  0.409327  0  0.911219  0
H  H10  1  0.27872453  0.82989185  0.77902561  1  0  0.444395  0  0.842405  0  0  0.417018  0  0.899772  0  0  0.427053  0  0.885039  0  0.657767  0  0.301804  0.409913  0  0.910213  0
H  H11  1  0.88773370  0.67011406  0.72094756  1  0  0.443414  0  0.84418  0  0  0.416407  0  0.900832  0  0  0.426414  0  0.886156  0  0.649564  0  0.30159  0.409307  0  0.911254  0
H  H12  1  0.86137908  0.81754891  0.18192007  1  0  0.438234  0  0.846135  0  0  0.408518  0  0.916129  0  0  0.418483  0  0.901128  0  0.636462  0  0.312915  0.401404  0  0.926834  0
H  H13  1  0.86072165  0.68250608  0.31807724  1  0  0.438496  0  0.845046  0  0  0.40909  0  0.915298  0  0  0.419051  0  0.900298  0  0.637242  0  0.312989  0.401957  0  0.926048  0
H  H14  1  0.13861938  0.18245060  0.81807941  1  0  0.438287  0  0.846179  0  0  0.408564  0  0.916083  0  0  0.41853  0  0.901082  0  0.63646  0  0.312927  0.401449  0  0.926789  0
H  H15  1  0.13928133  0.31749425  0.68192197  1  0  0.438518  0  0.845038  0  0  0.409114  0  0.915267  0  0  0.419076  0  0.900266  0  0.637242  0  0.313004  0.401983  0  0.926015  0
H  H16  1  0.46450445  0.64264981  0.41801054  1  0  0.280077  0  0.895905  0  0  0.261745  0  0.957267  0  0  0.269505  0  0.951823  0  0.506933  0  0.320068  0.256252  0  0.961139  0
H  H17  1  0.52506371  0.85745925  0.08204168  1  0  0.28177  0  0.893407  0  0  0.263191  0  0.955011  0  0  0.270931  0  0.949595  0  0.503848  0  0.320303  0.257706  0  0.958875  0
H  H18  1  0.53549640  0.35735052  0.58198922  1  0  0.280075  0  0.895901  0  0  0.261745  0  0.957272  0  0  0.269505  0  0.951828  0  0.506954  0  0.320086  0.256252  0  0.961144  0
H  H19  1  0.47493714  0.14254109  0.91795808  1  0  0.2818  0  0.893356  0  0  0.263207  0  0.95498  0  0  0.270947  0  0.949565  0  0.503841  0  0.3203  0.257722  0  0.958846  0
H  H20  1  0.29404040  0.70920088  0.62730486  1  0  0.142802  0  0.923252  0  0  0.150014  0  0.985876  0  0  0.153628  0  0.983681  0  0.122049  0  0.129465  0.14735  0  0.987609  0
H  H21  1  0.63055910  0.79073849  0.87281061  1  0  0.143315  0  0.923428  0  0  0.150151  0  0.986779  0  0  0.153732  0  0.984595  0  0.126318  0  0.129265  0.147501  0  0.988518  0
H  H22  1  0.70596082  0.29079863  0.37269499  1  0  0.142823  0  0.923235  0  0  0.150038  0  0.985842  0  0  0.153654  0  0.983643  0  0.12205  0  0.129472  0.147375  0  0.987574  0
H  H23  1  0.36944350  0.20926102  0.12718944  1  0  0.1433  0  0.923406  0  0  0.150139  0  0.986783  0  0  0.153721  0  0.984597  0  0.126318  0  0.129245  0.14749  0  0.988521  0
H  H24  1  0.14658532  0.75373628  0.52563147  1  0  0.151801  0  0.928564  0  0  0.159403  0  0.990799  0  0  0.163279  0  0.988218  0  0.155462  0  0.134065  0.156531  0  0.992852  0
H  H25  1  0.42584780  0.74626880  0.97441187  1  0  0.151589  0  0.928226  0  0  0.159459  0  0.990391  0  0  0.163269  0  0.987817  0  0.168288  0  0.134269  0.156683  0  0.992364  0
H  H26  1  0.85341479  0.24626405  0.47436903  1  0  0.151768  0  0.928571  0  0  0.159357  0  0.990821  0  0  0.163237  0  0.988238  0  0.155467  0  0.134046  0.156484  0  0.992875  0
H  H27  1  0.57415306  0.25373154  0.02558789  1  0  0.151571  0  0.928229  0  0  0.159471  0  0.990377  0  0  0.16328  0  0.987804  0  0.168319  0  0.134264  0.156693  0  0.992352  0
H  H28  1  0.54703405  0.53685888  0.62665797  1  0  0.114542  0  0.917981  0  0  0.125089  0  0.979951  0  0  0.127131  0  0.978855  0  0.119449  0  0.128508  0.123547  0  0.980845  0
H  H29  1  0.71061916  0.96304222  0.87337475  1  0  0.115755  0  0.916456  0  0  0.125186  0  0.979417  0  0  0.127197  0  0.978319  0  0.113332  0  0.128926  0.123653  0  0.980321  0
H  H30  1  0.45296505  0.46314063  0.37334244  1  0  0.114532  0  0.917949  0  0  0.125078  0  0.979917  0  0  0.127121  0  0.97882  0  0.11946  0  0.128499  0.123536  0  0.98081  0
H  H31  1  0.28938244  0.03695812  0.12662426  1  0  0.11575  0  0.916463  0  0  0.125209  0  0.979412  0  0  0.127222  0  0.978313  0  0.113346  0  0.128929  0.123675  0  0.980317  0
H  H32  1  0.71244844  0.61658722  0.53492550  1  0  0.115379  0  0.904654  0  0  0.130609  0  0.957826  0  0  0.132034  0  0.957455  0  0.125403  0  0.129937  0.129445  0  0.958384  0
H  H33  1  0.86392930  0.88328143  0.96515705  1  0  0.115201  0  0.906193  0  0  0.131019  0  0.958204  0  0  0.13249  0  0.957748  0  0.124649  0  0.130473  0.129841  0  0.958793  0
H  H34  1  0.28755029  0.38341311  0.46507482  1  0  0.115375  0  0.904634  0  0  0.130603  0  0.957808  0  0  0.132029  0  0.957437  0  0.1254  0  0.129937  0.129439  0  0.958367  0
H  H35  1  0.13607266  0.11671807  0.03484206  1  0  0.115179  0  0.906236  0  0  0.131003  0  0.958274  0  0  0.132473  0  0.957819  0  0.124657  0  0.130469  0.129824  0  0.958862  0
H  H36  1  0.14194138  0.59026510  0.46604180  1  0  0.11523  0  0.900733  0  0  0.131629  0  0.953424  0  0  0.13291  0  0.953251  0  0.122716  0  0.131673  0.130601  0  0.953687  0
H  H37  1  0.19818494  0.90978656  0.03392038  1  0  0.115193  0  0.900812  0  0  0.131268  0  0.953572  0  0  0.132474  0  0.953453  0  0.122994  0  0.131253  0.130281  0  0.953809  0
H  H38  1  0.85805872  0.40973524  0.53395870  1  0  0.115237  0  0.900723  0  0  0.131628  0  0.95341  0  0  0.132909  0  0.953237  0  0.122718  0  0.131672  0.1306  0  0.953672  0
H  H39  1  0.80181591  0.09021377  0.96607938  1  0  0.115195  0  0.900775  0  0  0.131248  0  0.953565  0  0  0.132455  0  0.953445  0  0.12301  0  0.131251  0.130263  0  0.953798  0
H  H40  1  0.19913744  0.52383133  0.58930109  1  0  0.117719  0  0.937172  0  0  0.131754  0  0.993845  0  0  0.133843  0  0.992849  0  0.155884  0  0.12503  0.130102  0  0.994777  0
H  H41  1  0.31221591  0.97622033  0.91067456  1  0  0.118264  0  0.936452  0  0  0.132238  0  0.992817  0  0  0.134193  0  0.991989  0  0.153942  0  0.124727  0.130632  0  0.993713  0
H  H42  1  0.80086304  0.47616818  0.41069951  1  0  0.117712  0  0.937177  0  0  0.131737  0  0.993853  0  0  0.133826  0  0.992855  0  0.155881  0  0.125019  0.130084  0  0.994787  0
H  H43  1  0.68778431  0.02378000  0.08932427  1  0  0.118285  0  0.936446  0  0  0.13226  0  0.992806  0  0  0.134214  0  0.991978  0  0.153953  0  0.124738  0.130653  0  0.993702  0
H  H44  1  0.61106367  0.86171081  0.22217072  1  0  0.444243  0  0.852704  0  0  0.411844  0  0.919492  0  0  0.422643  0  0.903532  0  0.639741  0  0.305403  0.404174  0  0.930835  0
H  H45  1  0.69483706  0.63832005  0.27782330  1  0  0.445071  0  0.851019  0  0  0.413303  0  0.916776  0  0  0.424052  0  0.900877  0  0.650035  0  0.30698  0.405691  0  0.928034  0
H  H46  1  0.38893405  0.13828869  0.77782950  1  0  0.444289  0  0.852645  0  0  0.411872  0  0.919448  0  0  0.422671  0  0.903486  0  0.639757  0  0.305428  0.404204  0  0.930787  0
H  H47  1  0.30516304  0.36168028  0.72217720  1  0  0.445072  0  0.851015  0  0  0.413305  0  0.916774  0  0  0.424053  0  0.900876  0  0.650032  0  0.306977  0.405692  0  0.92803  0
C  C48  1  0.43343914  0.81350863  0.49567242  1  0  0.7614  0  3.818624  0  0  0.717561  0  4.115814  0  0  0.75261  0  4.103159  0  1.63734  0  0.236835  0.693648  0  4.124011  0
C  C49  1  0.74259810  0.68647732  0.00441890  1  0  0.763752  0  3.818738  0  0  0.719242  0  4.117235  0  0  0.754348  0  4.104419  0  1.639033  0  0.239071  0.695314  0  4.125502  0
C  C50  1  0.56655922  0.18649254  0.50432780  1  0  0.761452  0  3.818559  0  0  0.717561  0  4.115823  0  0  0.752618  0  4.103155  0  1.637335  0  0.236825  0.693647  0  4.124022  0
C  C51  1  0.25740100  0.31352218  0.99558152  1  0  0.763772  0  3.81871  0  0  0.719273  0  4.117213  0  0  0.754379  0  4.104398  0  1.63933  0  0.239098  0.695346  0  4.125479  0
C  C52  1  0.30811958  0.72451850  0.54311034  1  0  -0.184685  0  3.479047  0  0  -0.236179  0  3.713694  0  0  -0.239061  0  3.718175  0  0.202314  0  -0.054374  -0.234158  0  3.710887  0
C  C53  1  0.57567305  0.77547660  0.95699829  1  0  -0.184229  0  3.479621  0  0  -0.23625  0  3.716182  0  0  -0.238942  0  3.72043  0  0.179032  0  -0.055071  -0.234405  0  3.713543  0
C  C54  1  0.69187915  0.27548184  0.45688998  1  0  -0.184737  0  3.479041  0  0  -0.236185  0  3.713659  0  0  -0.239072  0  3.71814  0  0.202324  0  -0.054373  -0.234165  0  3.710853  0
C  C55  1  0.42432881  0.22452291  0.04300250  1  0  -0.184201  0  3.479547  0  0  -0.236295  0  3.716181  0  0  -0.238986  0  3.720428  0  0.17898  0  -0.055063  -0.234449  0  3.713541  0
C  C56  1  0.60846988  0.55884625  0.54394600  1  0  -0.026797  0  3.50314  0  0  -0.084629  0  3.755023  0  0  -0.081834  0  3.76428  0  0.217878  0  -0.052431  -0.08648  0  3.74893  0
C  C57  1  0.71128179  0.94110060  0.95608780  1  0  -0.026858  0  3.505774  0  0  -0.083379  0  3.755041  0  0  -0.080523  0  3.764226  0  0.213141  0  -0.052477  -0.085237  0  3.748955  0
C  C58  1  0.39153060  0.44115325  0.45605460  1  0  -0.026839  0  3.503179  0  0  -0.084667  0  3.7551  0  0  -0.081868  0  3.764346  0  0.217866  0  -0.052482  -0.086517  0  3.749004  0
C  C59  1  0.28871907  0.05889974  0.04391196  1  0  -0.026825  0  3.505782  0  0  -0.083425  0  3.755147  0  0  -0.080574  0  3.764341  0  0.213024  0  -0.052486  -0.085287  0  3.749073  0
C  C60  1  0.26920957  0.54402191  0.50728571  1  0  -0.033434  0  3.507812  0  0  -0.092327  0  3.758391  0  0  -0.089618  0  3.767558  0  0.175373  0  -0.055604  -0.09399  0  3.752248  0
C  C61  1  0.32046296  0.95603724  0.99270323  1  0  -0.035303  0  3.509344  0  0  -0.093801  0  3.758422  0  0  -0.090901  0  3.767549  0  0.181693  0  -0.056187  -0.095582  0  3.752329  0
C  C62  1  0.73079101  0.45597759  0.49271322  1  0  -0.033436  0  3.507785  0  0  -0.092291  0  3.758327  0  0  -0.089583  0  3.767492  0  0.17579  0  -0.055583  -0.093952  0  3.752182  0
C  C63  1  0.67953789  0.04396310  0.00729653  1  0  -0.035313  0  3.509278  0  0  -0.093819  0  3.758338  0  0  -0.09092  0  3.767464  0  0.181645  0  -0.056182  -0.095601  0  3.752248  0
S  S64  1  0.78667812  0.91177551  0.64205093  1  0  1.683919  0  5.744981  0  0  1.564543  0  6.283484  0  0  1.621538  0  6.242798  0  3.852719  0  0.604227  1.524913  0  6.310757  0
S  S65  1  0.34056024  0.58824953  0.85789890  1  0  1.685962  0  5.740142  0  0  1.565741  0  6.279634  0  0  1.622839  0  6.238922  0  3.857909  0  0.605458  1.526126  0  6.306838  0
S  S66  1  0.21332273  0.08822483  0.35794883  1  0  1.683957  0  5.744975  0  0  1.564615  0  6.283441  0  0  1.621613  0  6.24275  0  3.852733  0  0.60426  1.524984  0  6.310717  0
S  S67  1  0.65943897  0.41174997  0.14209983  1  0  1.685953  0  5.740081  0  0  1.565736  0  6.279577  0  0  1.622834  0  6.238866  0  3.857915  0  0.605461  1.526125  0  6.306777  0
S  S68  1  0.26209971  0.74996802  0.24994865  1  0  1.632066  0  5.752128  0  0  1.505243  0  6.302242  0  0  1.561668  0  6.263675  0  3.820822  0  0.59263  1.466174  0  6.327822  0
S  S69  1  0.73790087  0.25003149  0.75005028  1  0  1.632005  0  5.752265  0  0  1.505174  0  6.302385  0  0  1.561597  0  6.263821  0  3.82079  0  0.592589  1.466106  0  6.327966  0
N  N70  1  0.41766514  0.61901954  0.49780768  1  0  -0.071028  0  3.383218  0  0  0.006336  0  3.599284  0  0  -0.005297  0  3.617474  0  -1.040335  0  -0.353587  0.014248  0  3.586854  0
N  N71  1  0.53441402  0.88101049  0.00223456  1  0  -0.072376  0  3.383215  0  0  0.00459  0  3.598947  0  0  -0.007175  0  3.617211  0  -1.025768  0  -0.353059  0.012587  0  3.586483  0
N  N72  1  0.58233460  0.38098162  0.50219273  1  0  -0.070914  0  3.383233  0  0  0.006415  0  3.599297  0  0  -0.005216  0  3.617488  0  -1.040824  0  -0.353545  0.014327  0  3.586868  0
N  N73  1  0.46558757  0.11898985  0.99776446  1  0  -0.072388  0  3.383128  0  0  0.004621  0  3.598881  0  0  -0.007144  0  3.617145  0  -1.025699  0  -0.353064  0.012618  0  3.586416  0
O  O74  1  0.59188351  0.79354680  0.42056147  1  0  -0.720418  0  2.010017  0  0  -0.678074  0  2.256845  0  0  -0.70163  0  2.244912  0  -1.195683  0  -0.370436  -0.661709  0  2.26472  0
O  O75  1  0.80620670  0.70646244  0.07944384  1  0  -0.723252  0  2.011089  0  0  -0.680759  0  2.258619  0  0  -0.704356  0  2.246659  0  -1.195474  0  -0.372389  -0.664381  0  2.266511  0
O  O76  1  0.40811697  0.20645270  0.57943913  1  0  -0.720419  0  2.010002  0  0  -0.678059  0  2.256853  0  0  -0.701616  0  2.244914  0  -1.195711  0  -0.37042  -0.661695  0  2.264728  0
O  O77  1  0.19379267  0.29353790  0.92055740  1  0  -0.723235  0  2.011124  0  0  -0.680723  0  2.258629  0  0  -0.704319  0  2.246668  0  -1.195748  0  -0.372359  -0.664345  0  2.26652  0
O  O78  1  0.36984370  0.90400024  0.53364931  1  0  -0.781597  0  2.171712  0  0  -0.746802  0  2.444426  0  0  -0.770883  0  2.430807  0  -1.220477  0  -0.407523  -0.729939  0  2.453158  0
O  O79  1  0.80726197  0.59598488  0.96646340  1  0  -0.781785  0  2.171725  0  0  -0.746453  0  2.444339  0  0  -0.770589  0  2.43066  0  -1.221525  0  -0.407072  -0.729562  0  2.453116  0
O  O80  1  0.63015678  0.09599927  0.46635129  1  0  -0.781637  0  2.171633  0  0  -0.746821  0  2.444355  0  0  -0.770912  0  2.430743  0  -1.220493  0  -0.407541  -0.729954  0  2.453076  0
O  O81  1  0.19273666  0.40401546  0.03353859  1  0  -0.781833  0  2.171726  0  0  -0.7465  0  2.444334  0  0  -0.770636  0  2.430654  0  -1.221522  0  -0.407117  -0.729609  0  2.453111  0
O  O82  1  0.82270461  0.86722845  0.54223710  1  0  -0.819918  0  2.000124  0  0  -0.774419  0  2.270887  0  0  -0.795547  0  2.252072  0  -1.348097  0  -0.415764  -0.759431  0  2.283454  0
O  O83  1  0.23216491  0.63280408  0.95770618  1  0  -0.820127  0  2.000043  0  0  -0.774295  0  2.270928  0  0  -0.795363  0  2.251935  0  -1.352555  0  -0.415693  -0.759343  0  2.283577  0
O  O84  1  0.17729661  0.13277105  0.45776276  1  0  -0.81993  0  2.000111  0  0  -0.774427  0  2.270859  0  0  -0.79556  0  2.252053  0  -1.348097  0  -0.415754  -0.759438  0  2.283427  0
O  O85  1  0.76783493  0.36719543  0.04229349  1  0  -0.820124  0  2.000108  0  0  -0.774269  0  2.270963  0  0  -0.795335  0  2.251967  0  -1.352581  0  -0.415663  -0.759317  0  2.283611  0
O  O86  1  0.87021391  0.81953203  0.71967075  1  0  -0.751152  0  1.932749  0  0  -0.680839  0  2.161195  0  0  -0.704283  0  2.143922  0  -1.357737  0  -0.343737  -0.66428  0  2.172855  0
O  O87  1  0.40954052  0.68048553  0.78029759  1  0  -0.752168  0  1.931858  0  0  -0.680693  0  2.159606  0  0  -0.704437  0  2.142504  0  -1.354524  0  -0.344043  -0.664175  0  2.17136  0
O  O88  1  0.12979043  0.18046664  0.28032958  1  0  -0.751075  0  1.932718  0  0  -0.68086  0  2.161234  0  0  -0.704308  0  2.143965  0  -1.357696  0  -0.343728  -0.664299  0  2.172893  0
O  O89  1  0.59045820  0.31951314  0.21970367  1  0  -0.75216  0  1.931788  0  0  -0.680682  0  2.159526  0  0  -0.704428  0  2.142424  0  -1.354527  0  -0.344019  -0.664174  0  2.171284  0
O  O90  1  0.55444467  0.95665946  0.68219503  1  0  -0.81866  0  2.004872  0  0  -0.770261  0  2.281949  0  0  -0.792177  0  2.263124  0  -1.35912  0  -0.429877  -0.75452  0  2.294396  0
O  O91  1  0.19338947  0.54336226  0.81772942  1  0  -0.820026  0  2.003551  0  0  -0.771507  0  2.280714  0  0  -0.79354  0  2.262021  0  -1.356162  0  -0.431259  -0.755767  0  2.293188  0
O  O92  1  0.44555543  0.04333921  0.31780641  1  0  -0.818682  0  2.004931  0  0  -0.770256  0  2.28197  0  0  -0.792172  0  2.263145  0  -1.35912  0  -0.429897  -0.754517  0  2.294421  0
O  O93  1  0.80661101  0.45663725  0.18227118  1  0  -0.820011  0  2.003472  0  0  -0.77152  0  2.280647  0  0  -0.793552  0  2.261954  0  -1.356132  0  -0.431292  -0.755778  0  2.293118  0
O  O94  1  0.90240928  0.00186666  0.62835652  1  0  -0.840365  0  2.062985  0  0  -0.797822  0  2.348837  0  0  -0.819422  0  2.330074  0  -1.352618  0  -0.445398  -0.782495  0  2.361402  0
O  O95  1  0.53269916  0.49815388  0.87163146  1  0  -0.840585  0  2.060599  0  0  -0.797926  0  2.346862  0  0  -0.819409  0  2.327785  0  -1.359954  0  -0.444772  -0.782639  0  2.359543  0
O  O96  1  0.09758982  0.99813284  0.37164389  1  0  -0.840423  0  2.062947  0  0  -0.797874  0  2.348782  0  0  -0.819473  0  2.330017  0  -1.352646  0  -0.445438  -0.782548  0  2.361348  0
O  O97  1  0.46730032  0.50184645  0.12836811  1  0  -0.840594  0  2.060609  0  0  -0.797922  0  2.34685  0  0  -0.819409  0  2.327779  0  -1.359956  0  -0.444788  -0.782634  0  2.359529  0
O  O98  1  0.83989640  0.10344180  0.22558203  1  0  -0.913998  0  1.828464  0  0  -0.877495  0  2.017487  0  0  -0.895392  0  1.986895  0  -1.301605  0  -0.645751  -0.864753  0  2.038762  0
O  O99  1  0.16872114  0.39658790  0.27445898  1  0  -0.914309  0  1.828638  0  0  -0.87824  0  2.018204  0  0  -0.895955  0  1.987246  0  -1.280156  0  -0.646404  -0.865557  0  2.039602  0
O  O100  1  0.16010445  0.89655854  0.77441773  1  0  -0.913948  0  1.828485  0  0  -0.877446  0  2.017533  0  0  -0.895345  0  1.986946  0  -1.30159  0  -0.645729  -0.864705  0  2.038807  0
O  O101  1  0.83127759  0.60341244  0.72554133  1  0  -0.914299  0  1.828639  0  0  -0.878235  0  2.018232  0  0  -0.895949  0  1.987278  0  -1.280153  0  -0.646408  -0.865547  0  2.03962  0
O  O102  1  0.75348862  0.88040657  0.21077579  1  0  -0.904037  0  1.889264  0  0  -0.864359  0  2.08857  0  0  -0.881541  0  2.05612  0  -1.257481  0  -0.634242  -0.852205  0  2.111361  0
O  O103  1  0.84457776  0.61967005  0.28917682  1  0  -0.905018  0  1.88681  0  0  -0.866136  0  2.085637  0  0  -0.883269  0  2.053289  0  -1.270999  0  -0.635613  -0.854034  0  2.108364  0
O  O104  1  0.24650836  0.11959293  0.78922518  1  0  -0.904137  0  1.8893  0  0  -0.86443  0  2.088585  0  0  -0.88161  0  2.056133  0  -1.257527  0  -0.634274  -0.852275  0  2.111377  0
O  O105  1  0.15542346  0.38032946  0.71082304  1  0  -0.90502  0  1.886775  0  0  -0.866146  0  2.085582  0  0  -0.883276  0  2.053233  0  -1.270987  0  -0.635613  -0.854045  0  2.108309  0
O  O106  1  0.07012657  0.78019400  0.33511466  1  0  -0.831316  0  1.967417  0  0  -0.782534  0  2.241355  0  0  -0.803631  0  2.221612  0  -1.356076  0  -0.41506  -0.767558  0  2.254592  0
O  O107  1  0.18579368  0.71980027  0.16467080  1  0  -0.829745  0  1.969444  0  0  -0.780818  0  2.243317  0  0  -0.801956  0  2.223612  0  -1.354997  0  -0.414243  -0.765813  0  2.256503  0
O  O108  1  0.92987189  0.21980550  0.66488482  1  0  -0.831302  0  1.967428  0  0  -0.78252  0  2.241364  0  0  -0.803616  0  2.221621  0  -1.356096  0  -0.415031  -0.767544  0  2.2546  0
O  O109  1  0.81420690  0.28019924  0.83532812  1  0  -0.829694  0  1.969421  0  0  -0.780772  0  2.243292  0  0  -0.801914  0  2.223594  0  -1.354958  0  -0.414211  -0.765767  0  2.256478  0
O  O110  1  0.36346283  0.84605879  0.20881188  1  0  -0.730331  0  1.995713  0  0  -0.66777  0  2.244157  0  0  -0.69027  0  2.227689  0  -1.353223  0  -0.336802  -0.651905  0  2.255002  0
O  O111  1  0.41814041  0.65382318  0.29122446  1  0  -0.729772  0  1.996355  0  0  -0.668692  0  2.245619  0  0  -0.691325  0  2.229394  0  -1.353445  0  -0.337297  -0.652776  0  2.256367  0
O  O112  1  0.63653553  0.15394238  0.79118834  1  0  -0.730327  0  1.995814  0  0  -0.667726  0  2.244225  0  0  -0.69022  0  2.227751  0  -1.353224  0  -0.336776  -0.651866  0  2.255073  0
O  O113  1  0.58186156  0.34617633  0.70877465  1  0  -0.729786  0  1.996382  0  0  -0.668711  0  2.245656  0  0  -0.691347  0  2.229437  0  -1.35345  0  -0.337331  -0.652793  0  2.2564  0
