# generated using pymatgen
data_CuH8C15(NO)4
_symmetry_space_group_name_H-M   'P 1'
_cell_length_a   7.20103658
_cell_length_b   9.15711668
_cell_length_c   14.95688216
_cell_angle_alpha   95.94802426
_cell_angle_beta   98.81269535
_cell_angle_gamma   100.01598273
_symmetry_Int_Tables_number   1
_chemical_formula_structural   CuH8C15(NO)4
_chemical_formula_sum   'Cu2 H16 C30 N8 O8'
_cell_volume   951.13154607
_cell_formula_units_Z   2
loop_
 _symmetry_equiv_pos_site_id
 _symmetry_equiv_pos_as_xyz
  1  'x, y, z'
loop_
 _atom_site_type_symbol
 _atom_site_label
 _atom_site_symmetry_multiplicity
 _atom_site_fract_x
 _atom_site_fract_y
 _atom_site_fract_z
 _atom_site_occupancy
 _atom_site_pbe_bader_charge
 _atom_site_pbe_bader_spin_density
 _atom_site_pbe_cm5_charge
 _atom_site_pbe_ddec_charge
 _atom_site_pbe_ddec_spin_density
 _atom_site_pbe_ddec_sum_bond_order
 _atom_site_pbe_magmom
Cu  Cu0  1  0.99998683  0.49999738  0.99999331  1  1.045735  -0.541798  0.748523  0.746029  -0.736205  2.182369  -0.543
Cu  Cu1  1  0.99999718  0.00000751  0.50000499  1  1.066994  0.553141  0.770086  0.773331  0.743938  2.21578  0.554
H  H2  1  0.48618878  0.76198871  0.82534089  1  0.096853  -6.6e-05  0.109213  0.119277  -2.3e-05  1.015026  0.0
H  H3  1  0.10537635  0.46440443  0.60301156  1  0.086002  0.000506  0.108766  0.120657  0.000405  1.007539  0.0
H  H4  1  0.54930893  0.30469556  0.76781791  1  0.118857  -0.000261  0.11037  0.124274  -0.000272  0.999014  0.0
H  H5  1  0.16863204  0.72213992  0.53934335  1  0.185856  -0.000164  0.158416  0.135042  -0.000185  0.956524  0.0
H  H6  1  0.24678342  0.08542707  0.88451858  1  0.152468  -0.000141  0.123934  0.131629  -7.6e-05  0.962635  0.0
H  H7  1  0.27468051  0.06091001  0.04990848  1  0.143348  -0.001103  0.112473  0.128536  -0.000603  1.009087  -0.001
H  H8  1  0.19320415  0.80205420  0.09721910  1  0.135851  -0.001806  0.130666  0.108983  -0.000858  0.970964  -0.002
H  H9  1  0.03905542  0.60708156  0.82814451  1  0.097764  -0.002036  0.12515  0.099627  -0.000916  1.000577  -0.002
H  H10  1  0.51382296  0.23802196  0.17464827  1  0.096957  -6.6e-05  0.109252  0.119317  -2.3e-05  1.014878  0.0
H  H11  1  0.89463238  0.53559284  0.39698726  1  0.085889  0.000506  0.108759  0.12064  0.000405  1.007505  0.0
H  H12  1  0.45068657  0.69530855  0.23219076  1  0.118608  -0.000261  0.11035  0.124315  -0.000272  0.998892  0.0
H  H13  1  0.83135038  0.27786873  0.46065096  1  0.185776  -0.000164  0.158418  0.135078  -0.000185  0.956543  0.0
H  H14  1  0.75322023  0.91456686  0.11547957  1  0.15237  -0.00014  0.123966  0.131659  -7.6e-05  0.962596  0.0
H  H15  1  0.72531542  0.93908735  0.95009114  1  0.143362  -0.001103  0.112461  0.128526  -0.000603  1.009068  -0.001
H  H16  1  0.80678552  0.19794657  0.90278146  1  0.135875  -0.001806  0.130668  0.108945  -0.000858  0.971039  -0.002
H  H17  1  0.96095870  0.39291007  0.17185649  1  0.097907  -0.002036  0.12515  0.099591  -0.000916  1.000679  -0.002
C  C18  1  0.68085745  0.56199579  0.89165732  1  1.558494  0.00145  0.196638  0.563024  -0.00015  4.223768  0.003
C  C19  1  0.52923430  0.53505920  0.80716274  1  -0.001885  -0.008516  -0.013739  -0.004241  -0.006207  3.962799  -0.007
C  C20  1  0.43924966  0.65286568  0.78413115  1  -0.029742  -0.0015  -0.080704  -0.176936  -0.000979  3.957708  -0.001
C  C21  1  0.28952673  0.62719486  0.70981414  1  0.235774  -3.2e-05  0.087229  0.156147  -1e-06  4.059263  0.0
C  C22  1  0.22814540  0.48641967  0.65830721  1  0.052993  0.000129  -0.082198  -0.17732  0.000218  3.94422  0.0
C  C23  1  0.32458265  0.37090704  0.67866854  1  -0.019959  0.011418  -0.008497  0.009429  0.008127  3.951423  0.009
C  C24  1  0.47547377  0.39573501  0.75273609  1  -0.018206  0.000952  -0.070947  -0.104102  0.000542  3.896645  0.001
C  C25  1  0.26790675  0.21939763  0.62109723  1  1.578911  -0.001172  0.191097  0.560265  0.000491  4.24234  -0.003
C  C26  1  0.13893756  0.77857733  0.60136947  1  0.986275  -0.001133  0.176132  0.114119  -0.000422  3.863005  0.001
C  C27  1  0.13156109  0.84893270  0.74450722  1  0.9436  0.00243  0.230314  0.219198  0.002149  3.983487  0.003
C  C28  1  0.14782108  0.84688190  0.84300892  1  -0.026102  -0.004797  0.005723  -0.012097  -0.003358  4.020687  -0.004
C  C29  1  0.21037902  0.97596610  0.90676072  1  -0.001107  0.004016  -0.047437  -0.047822  0.002715  3.884408  0.003
C  C30  1  0.22698008  0.96144635  0.99941604  1  -0.006611  -0.006  -0.073418  -0.116439  -0.004287  3.958389  -0.005
C  C31  1  0.18015300  0.82019364  0.02587043  1  0.425208  0.001103  0.061165  0.102814  2.9e-05  3.890449  0.001
C  C32  1  0.09765356  0.70966555  0.87503627  1  0.541509  0.002349  0.056431  0.054522  0.000803  3.915873  0.002
C  C33  1  0.31914561  0.43800265  0.10834504  1  1.558273  0.001449  0.196633  0.563101  -0.00015  4.223724  0.003
C  C34  1  0.47077136  0.46494818  0.19283703  1  -0.002025  -0.008517  -0.013813  -0.004429  -0.006207  3.962933  -0.007
C  C35  1  0.56074784  0.34714062  0.21586177  1  -0.029912  -0.001501  -0.080698  -0.176847  -0.00098  3.957703  -0.001
C  C36  1  0.71047341  0.37280581  0.29018004  1  0.236006  -3.1e-05  0.087267  0.156171  -0.0  4.059213  0.0
C  C37  1  0.77186211  0.51357760  0.34168948  1  0.053045  0.000128  -0.082275  -0.177378  0.000217  3.94419  0.0
C  C38  1  0.67542524  0.62909360  0.32133373  1  -0.019845  0.011418  -0.00849  0.0094  0.008127  3.951425  0.009
C  C39  1  0.52452973  0.60427127  0.24726877  1  -0.018104  0.000952  -0.070903  -0.104037  0.000542  3.896287  0.001
C  C40  1  0.73208789  0.78060086  0.37890435  1  1.578882  -0.001172  0.191001  0.560186  0.000492  4.242561  -0.003
C  C41  1  0.86104860  0.22142570  0.39862956  1  0.986669  -0.001139  0.17609  0.114024  -0.000424  3.863086  0.001
C  C42  1  0.86844221  0.15106125  0.25549491  1  0.943655  0.002429  0.230149  0.219017  0.002148  3.983339  0.003
C  C43  1  0.85219332  0.15311085  0.15699218  1  -0.025927  -0.004798  0.005688  -0.012137  -0.003358  4.02072  -0.004
C  C44  1  0.78963124  0.02402667  0.09323932  1  -0.001129  0.004016  -0.047452  -0.047854  0.002715  3.884502  0.003
C  C45  1  0.77302315  0.03855208  0.00058433  1  -0.007081  -0.005999  -0.073428  -0.116459  -0.004285  3.958474  -0.005
C  C46  1  0.81983801  0.17980712  0.97413093  1  0.425748  0.001106  0.061188  0.10284  3.1e-05  3.890474  0.001
C  C47  1  0.90235541  0.29032837  0.12496572  1  0.54128  0.002347  0.056463  0.054586  0.000801  3.915895  0.002
N  N48  1  0.19196487  0.74507113  0.68686297  1  -1.242164  0.001323  -0.207809  -0.047184  0.000886  3.730081  0.001
N  N49  1  0.05372754  0.89486115  0.60697597  1  -0.722618  0.075973  -0.253079  -0.154821  0.0545  3.6312  0.068
N  N50  1  0.04838785  0.94060622  0.69628968  1  -0.628214  0.006157  -0.212256  -0.216768  0.004032  3.126302  0.004
N  N51  1  0.11298799  0.69714768  0.96398423  1  -1.179632  -0.087975  -0.339792  -0.205653  -0.061749  3.631573  -0.077
N  N52  1  0.80803790  0.25492953  0.31313347  1  -1.241926  0.001322  -0.207786  -0.047241  0.000886  3.730144  0.001
N  N53  1  0.94626427  0.10514410  0.39302974  1  -0.723293  0.075979  -0.252936  -0.154604  0.054501  3.630887  0.068
N  N54  1  0.95161292  0.05939000  0.30371568  1  -0.628218  0.006156  -0.212218  -0.216675  0.004032  3.12597  0.004
N  N55  1  0.88701086  0.30285079  0.03601773  1  -1.179581  -0.08797  -0.339778  -0.205553  -0.061745  3.63146  -0.077
O  O56  1  0.69219185  0.67081227  0.95102030  1  -1.159688  -0.000547  -0.331428  -0.559903  -8.6e-05  2.104688  -0.001
O  O57  1  0.79332747  0.46452581  0.89449635  1  -1.109699  -0.115805  -0.337128  -0.560629  -0.077574  2.351976  -0.105
O  O58  1  0.38150309  0.13180688  0.62381799  1  -1.138796  0.001768  -0.337657  -0.547311  0.000863  2.069994  0.002
O  O59  1  0.09696842  0.19670751  0.57172124  1  -1.111794  0.117811  -0.34693  -0.575962  0.078122  2.352416  0.107
O  O60  1  0.30780642  0.32918730  0.04897565  1  -1.159426  -0.000548  -0.331505  -0.559969  -8.6e-05  2.104495  -0.001
O  O61  1  0.20668340  0.53547481  0.10550420  1  -1.109553  -0.115814  -0.337089  -0.560749  -0.077581  2.351983  -0.105
O  O62  1  0.61848695  0.86818940  0.37618102  1  -1.1389  0.00177  -0.337542  -0.547187  0.000864  2.069998  0.002
O  O63  1  0.90301908  0.80329217  0.42828441  1  -1.111656  0.117811  -0.346895  -0.57599  0.078121  2.352426  0.107
