# generated using pymatgen
data_MnH8C10N2F3
_symmetry_space_group_name_H-M   'P 1'
_cell_length_a   7.97038932
_cell_length_b   10.49752305
_cell_length_c   11.32681281
_cell_angle_alpha   89.98510688
_cell_angle_beta   89.99846658
_cell_angle_gamma   89.99922546
_symmetry_Int_Tables_number   1
_chemical_formula_structural   MnH8C10N2F3
_chemical_formula_sum   'Mn4 H32 C40 N8 F12'
_cell_volume   947.70698252
_cell_formula_units_Z   4
loop_
 _symmetry_equiv_pos_site_id
 _symmetry_equiv_pos_as_xyz
  1  'x, y, z'
loop_
 _atom_site_type_symbol
 _atom_site_label
 _atom_site_symmetry_multiplicity
 _atom_site_fract_x
 _atom_site_fract_y
 _atom_site_fract_z
 _atom_site_occupancy
 _atom_site_hle17_ddec_charge
 _atom_site_hle17_ddec_spin_density
 _atom_site_hle17_ddec_sum_bond_order
 _atom_site_hle17_magmom
 _atom_site_hse06_10hf_ddec_charge
 _atom_site_hse06_10hf_ddec_spin_density
 _atom_site_hse06_10hf_ddec_sum_bond_order
 _atom_site_hse06_10hf_magmom
 _atom_site_hse06_ddec_charge
 _atom_site_hse06_ddec_spin_density
 _atom_site_hse06_ddec_sum_bond_order
 _atom_site_hse06_magmom
 _atom_site_pbe_cm5_charge
 _atom_site_pbe_ddec_charge
 _atom_site_pbe_ddec_spin_density
 _atom_site_pbe_ddec_sum_bond_order
 _atom_site_pbe_magmom
Mn  Mn0  1  0.37497643  0.24686484  0.99702208  1  1.340647  4.038073  2.401761  3.963  1.260066  3.822092  2.931597  3.723  1.383421  3.875605  2.815327  3.787  0.743671  1.173631  3.766389  3.013582  3.659
Mn  Mn1  1  0.87497742  0.25312931  0.00297977  1  1.340911  4.037808  2.401761  3.963  1.260301  3.821966  2.931596  3.723  1.383658  3.875494  2.815309  3.787  0.743761  1.173549  3.766217  3.014078  3.658
Mn  Mn2  1  0.62529653  0.74736764  0.50417540  1  1.331987  4.0162  2.394785  3.932  1.245509  3.792705  2.928616  3.685  1.370295  3.864759  2.811214  3.767  0.733967  1.154872  3.710148  3.013149  3.594
Mn  Mn3  1  0.12528970  0.75263534  0.49582930  1  1.331909  -4.1384  2.392369  -3.933  1.245473  -3.83946  2.927119  -3.685  1.370249  -3.927639  2.809531  -3.768  0.734053  1.154471  -3.738248  3.012354  -3.594
H  H4  1  0.47179484  0.42580162  0.19341072  1  0.084697  -0.000539  0.949799  -0.001  0.089224  0.000109  1.018926  0.0  0.09177  -6.6e-05  1.016859  0.0  0.11897  0.087415  0.000236  1.020748  0.0
H  H5  1  0.97187226  0.07420493  0.80656461  1  0.084765  -0.000482  0.949593  -0.001  0.089228  0.000143  1.018786  0.0  0.091781  -3.1e-05  1.0167  0.0  0.118954  0.087411  0.000267  1.020628  0.0
H  H6  1  0.52693832  0.92667486  0.30865479  1  0.085748  -0.000623  0.949434  -0.001  0.090358  -5.1e-05  1.018496  0.0  0.092537  -0.000143  1.016708  0.0  0.119788  0.08828  4.5e-05  1.02064  0.0
H  H7  1  0.02690720  0.57333671  0.69133937  1  0.085608  0.00058  0.949545  0.001  0.090258  3.1e-05  1.018577  0.0  0.092417  0.000117  1.016792  0.0  0.119765  0.088137  -5.9e-05  1.020804  0.0
H  H8  1  0.27125348  0.06348983  0.19109917  1  0.083815  -0.000502  0.953789  -0.001  0.088199  0.000123  1.023258  0.0  0.090669  -4.2e-05  1.021414  0.0  0.118736  0.086514  0.000236  1.024834  0.0
H  H9  1  0.77130398  0.43651962  0.80890813  1  0.0838  -0.000528  0.953774  -0.001  0.088226  9.6e-05  1.0232  0.0  0.090688  -7.2e-05  1.021372  0.0  0.118754  0.086484  0.000209  1.024848  0.0
H  H10  1  0.72896316  0.56491020  0.31031143  1  0.085226  -0.000605  0.951551  -0.001  0.088986  -5.3e-05  1.021307  0.0  0.091195  -0.000146  1.019619  0.0  0.119647  0.086938  4.2e-05  1.023329  0.0
H  H11  1  0.22895673  0.93508891  0.68968164  1  0.085243  0.000559  0.951493  0.001  0.089026  2e-05  1.021222  0.0  0.091237  0.000109  1.01953  0.0  0.119637  0.086962  -7.3e-05  1.023278  0.0
H  H12  1  0.47349051  0.43422689  0.41543331  1  0.137305  -0.000702  0.979731  0.0  0.141613  -0.000285  1.045798  0.0  0.147085  -0.000359  1.041526  0.0  0.105289  0.137725  -0.000185  1.048972  0.0
H  H13  1  0.97347630  0.06576249  0.58454023  1  0.137312  0.000339  0.979374  0.0  0.141593  0.000448  1.04548  0.0  0.147081  0.00045  1.041214  0.0  0.105298  0.137734  0.000416  1.048606  0.0
H  H14  1  0.52380466  0.93528978  0.08680054  1  0.135554  -0.000749  0.977148  0.0  0.140221  -0.000367  1.042705  0.0  0.145526  -0.000433  1.03873  0.0  0.105474  0.136397  -0.000214  1.045909  0.0
H  H15  1  0.02378521  0.56470467  0.91318308  1  0.13562  -0.000243  0.977213  0.0  0.140245  -0.000349  1.042793  0.0  0.145553  -0.000389  1.038817  0.0  0.105513  0.13628  -0.000231  1.046181  0.0
H  H16  1  0.26902482  0.05148079  0.41303775  1  0.134685  9.5e-05  0.961024  0.0  0.138161  0.000316  1.027603  0.0  0.143239  0.000336  1.023853  0.0  0.109645  0.134548  0.00028  1.030358  0.0
H  H17  1  0.76906861  0.44852107  0.58696695  1  0.134671  -0.000445  0.961322  0.0  0.138136  -0.00011  1.027894  0.0  0.143216  -0.000216  1.024139  0.0  0.109665  0.134544  -2e-06  1.030617  0.0
H  H18  1  0.73170895  0.55374707  0.08861579  1  0.135902  -0.000629  0.966314  0.0  0.139541  -0.000269  1.032553  0.0  0.144662  -0.000361  1.028896  0.0  0.108097  0.135595  -0.000123  1.035745  0.0
H  H19  1  0.23170754  0.94625201  0.91137369  1  0.13592  -0.000108  0.966159  0.0  0.139551  -0.000266  1.032423  0.0  0.144672  -0.000329  1.028765  0.0  0.1081  0.135732  -0.000158  1.035466  0.0
H  H20  1  0.49211353  0.05568397  0.58062336  1  0.133479  -0.000443  0.963592  0.0  0.138135  -9.5e-05  1.029111  0.0  0.143196  -0.000205  1.025437  0.0  0.109268  0.134501  1.4e-05  1.031864  0.0
H  H21  1  0.99219148  0.44431667  0.41938427  1  0.13348  9.7e-05  0.963215  0.0  0.1382  0.000289  1.028701  0.0  0.143194  0.000315  1.025118  0.0  0.109207  0.134414  0.00025  1.031642  0.0
H  H22  1  0.50720946  0.55775212  0.91988566  1  0.134189  -0.000622  0.971222  0.0  0.138692  -0.000261  1.036633  0.0  0.143865  -0.00035  1.032887  0.0  0.107174  0.134922  -0.000114  1.039616  0.0
H  H23  1  0.00717877  0.94222534  0.08013536  1  0.133985  -0.000153  0.971254  0.0  0.138424  -0.000275  1.036715  0.0  0.143599  -0.000329  1.032976  0.0  0.107066  0.134655  -0.00017  1.039711  0.0
H  H24  1  0.26127819  0.42992315  0.57882687  1  0.13682  0.000391  0.980433  0.0  0.140677  0.000462  1.04768  0.0  0.146027  0.000461  1.043562  0.0  0.105227  0.136742  0.000432  1.050854  0.0
H  H25  1  0.76126393  0.07009116  0.42118504  1  0.136897  -0.000742  0.98015  0.0  0.14075  -0.00031  1.047432  0.0  0.146094  -0.00038  1.043334  0.0  0.105194  0.136982  -0.000211  1.05042  0.0
H  H26  1  0.74047185  0.93107792  0.92116174  1  0.134085  -0.000759  0.979552  0.0  0.139128  -0.000373  1.045165  0.0  0.144364  -0.000432  1.041299  0.0  0.105289  0.135437  -0.000217  1.048179  0.0
H  H27  1  0.24048079  0.56891822  0.07885848  1  0.134196  -0.000286  0.979598  0.0  0.139129  -0.000376  1.045313  0.0  0.144358  -0.000405  1.041464  0.0  0.105238  0.135443  -0.000264  1.048306  0.0
H  H28  1  0.49203762  0.06833028  0.80234881  1  0.086578  -0.000564  0.95244  -0.001  0.091386  2e-05  1.02053  0.0  0.093842  -0.000128  1.018741  0.0  0.119115  0.089789  0.000122  1.021976  0.0
H  H29  1  0.99212813  0.43167131  0.19764557  1  0.086537  -0.000566  0.952254  -0.001  0.091312  4.2e-05  1.020386  0.0  0.093777  -0.000103  1.018579  0.0  0.11905  0.089647  0.000149  1.021914  0.0
H  H30  1  0.50832650  0.56966203  0.69839118  1  0.08901  -0.000659  0.95432  -0.001  0.094323  -0.000113  1.021191  0.0  0.096641  -0.000212  1.019624  0.0  0.119484  0.092288  -4e-06  1.022962  0.0
H  H31  1  0.00830880  0.93031923  0.30162363  1  0.08906  0.000634  0.954324  0.001  0.094428  8.9e-05  1.021144  0.0  0.096753  0.000185  1.019552  0.0  0.119565  0.092384  -2.1e-05  1.022934  0.0
H  H32  1  0.26327389  0.42082812  0.80069001  1  0.087331  -0.000504  0.950793  -0.001  0.092208  5.9e-05  1.018587  0.0  0.09466  -9.2e-05  1.016787  0.0  0.119438  0.090581  0.000169  1.020058  0.0
H  H33  1  0.76337468  0.07916332  0.19930685  1  0.087383  -0.000548  0.950637  -0.001  0.092228  3e-05  1.018433  0.0  0.094667  -0.000121  1.016667  0.0  0.11935  0.090594  0.000143  1.019927  0.0
H  H34  1  0.73772478  0.92174477  0.69950125  1  0.088695  -0.000659  0.953559  -0.001  0.093415  -9.4e-05  1.021231  0.0  0.095728  -0.000199  1.019633  0.0  0.119208  0.091274  2.2e-05  1.023143  0.0
H  H35  1  0.23777517  0.57826283  0.30050667  1  0.088699  0.00062  0.953591  0.001  0.093353  8.3e-05  1.021344  0.0  0.095701  0.00018  1.019701  0.0  0.119204  0.091125  -3e-05  1.023365  0.0
C  C36  1  0.42737263  0.34614801  0.24658666  1  0.131385  0.002226  3.695845  0.002  0.102427  0.002906  3.955563  0.003  0.110495  0.002562  3.97502  0.003  0.05585  0.097178  0.003642  3.94243  0.003
C  C37  1  0.92743306  0.15385040  0.75340010  1  0.131458  0.002306  3.695913  0.002  0.102605  0.003095  3.955536  0.003  0.110684  0.002717  3.974975  0.003  0.055919  0.097372  0.003722  3.942411  0.003
C  C38  1  0.57179361  0.84726429  0.25542923  1  0.132867  0.003125  3.687937  0.003  0.102874  0.003292  3.947941  0.003  0.111355  0.003185  3.967831  0.003  0.056815  0.097107  0.003664  3.935132  0.003
C  C39  1  0.07177903  0.65274684  0.74456586  1  0.133096  -0.003266  3.687896  -0.003  0.103028  -0.003188  3.947915  -0.003  0.111536  -0.003144  3.967788  -0.003  0.056844  0.097217  -0.003504  3.935184  -0.003
C  C40  1  0.31611526  0.14212536  0.24529690  1  0.132623  0.002205  3.691411  0.002  0.103524  0.002946  3.95024  0.003  0.111694  0.002575  3.969728  0.003  0.05611  0.098228  0.003664  3.937035  0.003
C  C41  1  0.81616680  0.35787699  0.75471399  1  0.132722  0.002252  3.690907  0.002  0.103609  0.003034  3.949753  0.003  0.111779  0.002655  3.969244  0.003  0.056249  0.098311  0.003679  3.936597  0.003
C  C42  1  0.68366581  0.64363271  0.25640367  1  0.134433  0.003027  3.683103  0.003  0.105824  0.003277  3.941225  0.003  0.114335  0.00317  3.961033  0.003  0.057372  0.10001  0.003653  3.928513  0.003
C  C43  1  0.18364747  0.85636304  0.74358759  1  0.134735  -0.003191  3.68294  -0.003  0.106055  -0.003178  3.941042  -0.003  0.114571  -0.003119  3.960849  -0.003  0.057595  0.100223  -0.003515  3.928386  -0.003
C  C44  1  0.42798250  0.34976889  0.36913613  1  -0.160225  -0.004227  3.669729  -0.004  -0.179285  -0.001097  3.91857  -0.001  -0.186668  -0.001593  3.936775  -0.002  -0.078515  -0.174321  -0.00065  3.906307  -0.001
C  C45  1  0.92799378  0.15023999  0.63085944  1  -0.160182  -0.00282  3.669752  -0.003  -0.179124  -0.000618  3.918518  -0.001  -0.186536  -0.00106  3.936757  -0.001  -0.078432  -0.174146  -0.000256  3.906215  0.0
C  C46  1  0.57078846  0.85104802  0.13277204  1  -0.161096  -0.00514  3.66778  -0.005  -0.180715  -0.001698  3.917365  -0.002  -0.188177  -0.002186  3.935617  -0.002  -0.079025  -0.175673  -0.001224  3.90515  -0.001
C  C47  1  0.07077298  0.64894025  0.86721690  1  -0.161084  0.003916  3.667285  0.004  -0.18068  0.001352  3.916948  0.001  -0.188148  0.001679  3.935193  0.002  -0.079037  -0.175614  0.001357  3.904836  0.001
C  C48  1  0.31651819  0.13611444  0.36792789  1  -0.159009  -0.003489  3.66459  -0.003  -0.176274  -0.00088  3.91286  -0.001  -0.183681  -0.001307  3.931286  -0.001  -0.076836  -0.171283  -0.000541  3.900411  -0.001
C  C49  1  0.81656684  0.36391077  0.63205562  1  -0.158913  -0.003435  3.664132  -0.003  -0.176183  -0.000714  3.912568  -0.001  -0.183569  -0.001244  3.93097  -0.001  -0.076828  -0.171181  -0.000222  3.900069  0.0
C  C50  1  0.68339095  0.63810283  0.13365401  1  -0.162081  -0.004804  3.664564  -0.004  -0.180339  -0.001478  3.913344  -0.001  -0.187843  -0.001983  3.931636  -0.002  -0.078446  -0.175333  -0.001024  3.901442  -0.001
C  C51  1  0.18339286  0.86189102  0.86633725  1  -0.162208  0.004198  3.664154  0.004  -0.180466  0.00157  3.912973  0.001  -0.187976  0.001873  3.93127  0.002  -0.078512  -0.175469  0.001565  3.901007  0.002
C  C52  1  0.37305650  0.24227793  0.43169151  1  0.105262  0.003983  3.742903  0.003  0.116586  0.00353  3.972499  0.003  0.12071  0.003294  3.993737  0.003  0.017878  0.113966  0.004105  3.957626  0.003
C  C53  1  0.87308951  0.25773339  0.56831303  1  0.105303  0.003778  3.742944  0.003  0.116368  0.003455  3.972858  0.003  0.120479  0.003211  3.994118  0.003  0.017801  0.113754  0.004119  3.957993  0.003
C  C54  1  0.62643162  0.74406560  0.06966874  1  0.105382  0.004661  3.735646  0.004  0.117415  0.003949  3.964897  0.003  0.12176  0.003826  3.985889  0.003  0.018354  0.114737  0.004273  3.949984  0.003
C  C55  1  0.12642425  0.75592784  0.93033329  1  0.105553  -0.004895  3.734916  -0.004  0.11755  -0.003702  3.964309  -0.003  0.121895  -0.003766  3.985287  -0.003  0.01838  0.114861  -0.003801  3.949404  -0.003
C  C56  1  0.37468125  0.24214351  0.56196470  1  0.107412  0.004308  3.740057  0.004  0.120421  0.003944  3.967538  0.003  0.124756  0.003663  3.988411  0.003  0.018183  0.117651  0.004679  3.952996  0.004
C  C57  1  0.87471303  0.25787446  0.43803010  1  0.107255  0.004425  3.739716  0.004  0.120374  0.004021  3.967155  0.003  0.124722  0.003747  3.988004  0.003  0.018117  0.11761  0.004677  3.952586  0.004
C  C58  1  0.62524550  0.74394708  0.93898745  1  0.108572  0.005229  3.731875  0.004  0.12147  0.004487  3.959512  0.004  0.126043  0.004341  3.980043  0.003  0.019058  0.118559  0.004823  3.945032  0.004
C  C59  1  0.12525917  0.75604351  0.06101548  1  0.108436  -0.005478  3.731723  -0.004  0.12116  -0.004221  3.95957  -0.003  0.125772  -0.004275  3.980047  -0.003  0.019126  0.118243  -0.004332  3.945099  -0.003
C  C60  1  0.43937419  0.13857655  0.62556910  1  -0.15816  -0.003911  3.668184  -0.004  -0.176515  -0.001062  3.915787  -0.001  -0.183943  -0.001608  3.934165  -0.001  -0.076546  -0.171564  -0.000563  3.903394  -0.001
C  C61  1  0.93943786  0.36141126  0.37441920  1  -0.158217  -0.003912  3.668505  -0.004  -0.176643  -0.001264  3.915997  -0.001  -0.184034  -0.001702  3.934426  -0.002  -0.07657  -0.17162  -0.000913  3.903625  -0.001
C  C62  1  0.56049177  0.64056240  0.87512469  1  -0.15886  -0.005534  3.666581  -0.005  -0.177536  -0.00189  3.914937  -0.002  -0.184988  -0.002457  3.933133  -0.002  -0.07771  -0.172604  -0.001344  3.902903  -0.002
C  C63  1  0.06048222  0.85942787  0.12488827  1  -0.158302  0.004743  3.665612  0.005  -0.176838  0.001884  3.913981  0.002  -0.184307  0.002256  3.932167  0.002  -0.077447  -0.171922  0.001804  3.901989  0.002
C  C64  1  0.31202717  0.34698740  0.62475667  1  -0.160218  -0.003257  3.671255  -0.003  -0.179403  -0.00094  3.920328  -0.001  -0.186691  -0.001403  3.938423  -0.001  -0.078535  -0.174539  -0.000562  3.908271  -0.001
C  C65  1  0.81204701  0.15302642  0.37524105  1  -0.160357  -0.004708  3.671434  -0.005  -0.179558  -0.001523  3.920446  -0.002  -0.186854  -0.002028  3.93854  -0.002  -0.078507  -0.174705  -0.001061  3.908268  -0.001
C  C66  1  0.68847478  0.84826594  0.87566253  1  -0.159069  -0.005927  3.67038  -0.006  -0.179404  -0.002187  3.919797  -0.002  -0.186766  -0.002721  3.937934  -0.003  -0.078518  -0.174484  -0.001637  3.907649  -0.002
C  C67  1  0.18849172  0.65172976  0.12434718  1  -0.159269  0.004355  3.670078  0.004  -0.179473  0.001625  3.91963  0.002  -0.186847  0.002025  3.937757  0.002  -0.07863  -0.174555  0.001558  3.907504  0.002
C  C68  1  0.44067032  0.14474564  0.74820213  1  0.130744  0.002597  3.688214  0.003  0.101634  0.003352  3.948203  0.003  0.109774  0.002962  3.967894  0.003  0.055123  0.096378  0.004081  3.934783  0.004
C  C69  1  0.94075264  0.35525359  0.25181175  1  0.130802  0.002566  3.688567  0.003  0.101744  0.003274  3.948546  0.003  0.109891  0.002895  3.968222  0.003  0.055228  0.096486  0.00406  3.935141  0.004
C  C70  1  0.55967982  0.64617801  0.75238605  1  0.129843  0.003426  3.679531  0.004  0.100573  0.003639  3.939348  0.004  0.108772  0.003519  3.959561  0.004  0.0558  0.094955  0.004094  3.926345  0.004
C  C71  1  0.05967567  0.85380561  0.24763841  1  0.129777  -0.003607  3.679207  -0.004  0.100392  -0.003567  3.938983  -0.004  0.108595  -0.003485  3.9592  -0.004  0.055759  0.094772  -0.003911  3.926013  -0.004
C  C72  1  0.31334095  0.34334277  0.74728318  1  0.1298  0.002536  3.692784  0.003  0.100886  0.003346  3.953111  0.003  0.108895  0.002971  3.972734  0.003  0.054658  0.095693  0.004038  3.939811  0.004
C  C73  1  0.81342067  0.15665390  0.25272511  1  0.129627  0.002436  3.693641  0.003  0.100812  0.003197  3.953851  0.003  0.108818  0.002849  3.973475  0.003  0.054729  0.095627  0.003979  3.940553  0.004
C  C74  1  0.68734675  0.84446121  0.75304422  1  0.130198  0.003503  3.684041  0.004  0.101501  0.00365  3.943928  0.004  0.109579  0.003523  3.964173  0.004  0.055575  0.096047  0.004098  3.93088  0.004
C  C75  1  0.18737770  0.65553735  0.24697787  1  0.130152  -0.003588  3.683429  -0.004  0.101436  -0.003563  3.943351  -0.004  0.109493  -0.003495  3.96358  -0.004  0.055518  0.09596  -0.003901  3.930396  -0.004
N  N76  1  0.37175137  0.24461471  0.18587716  1  -0.305692  -0.009668  3.28739  -0.023  -0.258589  0.014052  3.569473  0.0  -0.286675  0.010119  3.590999  -0.003  -0.320108  -0.23973  0.016361  3.55502  0.002
N  N77  1  0.87183516  0.25538711  0.81410533  1  -0.305819  -0.009677  3.287544  -0.023  -0.258851  0.014051  3.569724  0.0  -0.286945  0.01013  3.591253  -0.003  -0.320288  -0.240049  0.016489  3.555389  0.002
N  N78  1  0.62783330  0.74582301  0.31630806  1  -0.297087  -0.021506  3.279118  -0.036  -0.249308  0.004228  3.560335  -0.011  -0.279439  0.001997  3.583392  -0.013  -0.31686  -0.22914  0.006271  3.545252  -0.009
N  N79  1  0.12781918  0.75418662  0.68366569  1  -0.297139  0.020393  3.278779  0.036  -0.249308  -0.004213  3.560077  0.011  -0.279446  -0.002286  3.583095  0.013  -0.316953  -0.229155  -0.005827  3.545165  0.01
N  N80  1  0.37749943  0.24454592  0.80792413  1  -0.305136  -0.010794  3.275649  -0.024  -0.258402  0.012838  3.559372  -0.002  -0.286462  0.008868  3.580676  -0.005  -0.319102  -0.239809  0.015564  3.545309  0.0
N  N81  1  0.87758968  0.25544726  0.19208209  1  -0.304891  -0.010775  3.275716  -0.024  -0.258259  0.012832  3.559415  -0.002  -0.286321  0.008866  3.580723  -0.005  -0.319049  -0.23964  0.01548  3.545412  0.0
N  N82  1  0.62309227  0.74574578  0.69216495  1  -0.29597  -0.023397  3.267472  -0.039  -0.250075  0.002599  3.55226  -0.013  -0.280096  0.000336  3.575114  -0.015  -0.31633  -0.230097  0.004715  3.537539  -0.012
N  N83  1  0.12310647  0.75425341  0.30785480  1  -0.295662  0.022223  3.267173  0.039  -0.249722  -0.002581  3.552047  0.014  -0.279757  -0.000654  3.574909  0.015  -0.316311  -0.229757  -0.004261  3.537464  0.012
F  F84  1  0.35156191  0.42110525  0.99602213  1  -0.547383  -0.008263  0.84453  -0.024  -0.506181  0.027086  1.044009  0.017  -0.539009  0.015395  1.020429  0.004  -0.313216  -0.486833  0.043611  1.062332  0.036
F  F85  1  0.85156110  0.07892534  0.00398016  1  -0.547325  -0.008196  0.844744  -0.024  -0.506083  0.027162  1.044228  0.017  -0.538926  0.015468  1.020642  0.004  -0.313172  -0.486652  0.043662  1.062596  0.036
F  F86  1  0.66652751  0.91906203  0.50560567  1  -0.544294  -0.009129  0.848953  -0.025  -0.506481  0.030525  1.052964  0.021  -0.539854  0.019133  1.029363  0.008  -0.312337  -0.482172  0.040947  1.06948  0.032
F  F87  1  0.16646247  0.58092912  0.49438237  1  -0.544429  0.006997  0.848465  0.025  -0.506549  -0.031227  1.052766  -0.021  -0.539901  -0.019999  1.029102  -0.008  -0.312305  -0.481967  -0.04138  1.069357  -0.032
F  F88  1  0.39790668  0.07278087  0.99656707  1  -0.546784  -0.008475  0.841929  -0.024  -0.50527  0.027459  1.040973  0.018  -0.538172  0.015484  1.017532  0.004  -0.312803  -0.4859  0.044308  1.059262  0.037
F  F89  1  0.89789562  0.42718449  0.00342819  1  -0.546888  -0.008377  0.842253  -0.024  -0.50531  0.027537  1.041274  0.018  -0.538218  0.015555  1.017826  0.004  -0.312834  -0.485753  0.044399  1.059609  0.037
F  F90  1  0.58475932  0.57581391  0.50503083  1  -0.54256  -0.009338  0.847485  -0.026  -0.504798  0.030849  1.050975  0.021  -0.538263  0.019262  1.027419  0.008  -0.3119  -0.480453  0.041418  1.067502  0.033
F  F91  1  0.08481832  0.92419995  0.49494018  1  -0.542643  0.007196  0.847013  0.025  -0.504895  -0.031556  1.050883  -0.021  -0.538334  -0.020139  1.027279  -0.008  -0.311898  -0.480414  -0.041863  1.06745  -0.033
F  F92  1  0.62446501  0.27348203  0.00280924  1  -0.616215  0.068751  0.922089  0.052  -0.581264  0.105477  1.16114  0.092  -0.625009  0.097756  1.132559  0.087  -0.325156  -0.541479  0.104386  1.177468  0.087
F  F93  1  0.12448320  0.22652696  0.99718666  1  -0.616209  0.068661  0.922279  0.052  -0.581292  0.105473  1.161322  0.092  -0.625052  0.097773  1.132745  0.087  -0.325171  -0.541489  0.104354  1.177651  0.087
F  F94  1  0.37598721  0.79269860  0.49732652  1  -0.64495  -0.001273  0.885614  -0.001  -0.595471  -0.000738  1.116927  -0.001  -0.635494  -0.000769  1.087  -0.001  -0.336495  -0.562751  -0.000666  1.13723  -0.001
F  F95  1  0.87594090  0.70730479  0.50271061  1  -0.644861  -0.000303  0.885709  0.0  -0.595426  8.1e-05  1.117069  0.001  -0.635425  -4.8e-05  1.087121  0.0  -0.336518  -0.56269  0.000191  1.137341  0.001
