# generated using pymatgen
data_Cu3H14C12(N8O3)2
_symmetry_space_group_name_H-M   'P 1'
_cell_length_a   6.07219358
_cell_length_b   10.09813973
_cell_length_c   10.65937300
_cell_angle_alpha   112.03329854
_cell_angle_beta   100.66030485
_cell_angle_gamma   105.70066850
_symmetry_Int_Tables_number   1
_chemical_formula_structural   Cu3H14C12(N8O3)2
_chemical_formula_sum   'Cu3 H14 C12 N16 O6'
_cell_volume   552.38990798
_cell_formula_units_Z   1
loop_
 _symmetry_equiv_pos_site_id
 _symmetry_equiv_pos_as_xyz
  1  'x, y, z'
loop_
 _atom_site_type_symbol
 _atom_site_label
 _atom_site_symmetry_multiplicity
 _atom_site_fract_x
 _atom_site_fract_y
 _atom_site_fract_z
 _atom_site_occupancy
 _atom_site_hle17_ddec_charge
 _atom_site_hle17_ddec_spin_density
 _atom_site_hle17_ddec_sum_bond_order
 _atom_site_hle17_magmom
 _atom_site_hse06_10hf_ddec_charge
 _atom_site_hse06_10hf_ddec_spin_density
 _atom_site_hse06_10hf_ddec_sum_bond_order
 _atom_site_hse06_10hf_magmom
 _atom_site_hse06_ddec_charge
 _atom_site_hse06_ddec_spin_density
 _atom_site_hse06_ddec_sum_bond_order
 _atom_site_hse06_magmom
 _atom_site_pbe_cm5_charge
 _atom_site_pbe_ddec_charge
 _atom_site_pbe_ddec_spin_density
 _atom_site_pbe_ddec_sum_bond_order
 _atom_site_pbe_magmom
Cu  Cu0  1  0.50000803  0.99999987  0.99999728  1  0.806375  -0.732768  1.932083  -0.509  0.782715  -0.803773  2.331079  -0.621  0.868748  -0.864444  2.260618  -0.704  0.763702  0.738122  -0.773648  2.375767  -0.578
Cu  Cu1  1  0.75978272  0.51993597  0.50211448  1  0.831746  -0.558191  1.930949  -0.391  0.858067  -0.703658  2.345228  -0.55  0.953541  -0.793131  2.266998  -0.65  0.762163  0.804054  -0.634947  2.395553  -0.48
Cu  Cu2  1  0.24021848  0.48006950  0.49788755  1  0.831718  -0.558195  1.93099  -0.391  0.858031  -0.703653  2.345285  -0.549  0.953436  -0.79311  2.267081  -0.65  0.762138  0.804016  -0.634942  2.395613  -0.48
H  H3  1  0.85091938  0.82037804  0.00032646  1  0.11641  -0.001642  0.925886  -0.002  0.119419  -0.001391  0.992446  -0.002  0.122345  -0.001031  0.989998  -0.001  0.126957  0.117233  -0.001647  0.994467  -0.002
H  H4  1  0.14909761  0.17962287  0.99967659  1  0.116385  -0.001643  0.925969  -0.002  0.119432  -0.001391  0.992501  -0.002  0.122358  -0.001031  0.99005  -0.001  0.126967  0.117244  -0.001648  0.994519  -0.002
H  H5  1  0.66049159  0.94956096  0.44560251  1  0.107369  -0.00082  0.953263  -0.002  0.110909  -0.000684  1.02254  -0.001  0.114579  -0.000386  1.01932  -0.001  0.124065  0.107784  -0.001171  1.025665  -0.001
H  H6  1  0.33949488  0.05043642  0.55439228  1  0.10739  -0.000819  0.953186  -0.002  0.110912  -0.000684  1.022458  -0.001  0.114585  -0.000386  1.019236  -0.001  0.124045  0.107786  -0.00117  1.025585  -0.001
H  H7  1  0.15129176  0.70917354  0.26474007  1  0.132202  -0.000403  0.937138  0.0  0.151499  -0.000261  0.99776  0.0  0.153049  -0.000169  0.997668  0.0  0.098536  0.149973  -0.000311  0.998579  0.0
H  H8  1  0.84871079  0.29082848  0.73526371  1  0.132218  -0.000402  0.937083  0.0  0.151511  -0.000261  0.997715  0.0  0.153062  -0.000169  0.997623  0.0  0.098549  0.149986  -0.00031  0.99853  0.0
H  H9  1  0.11900805  0.70062527  0.09018850  1  0.123051  -0.000117  0.973179  0.0  0.138965  -0.000193  1.043191  0.0  0.139994  -0.000158  1.043618  0.0  0.092638  0.138415  -0.000218  1.042682  0.0
H  H10  1  0.88099515  0.29937791  0.90981669  1  0.123033  -0.000118  0.97314  0.0  0.138983  -0.000193  1.043125  0.0  0.140012  -0.000158  1.04355  0.0  0.092653  0.138432  -0.000218  1.042617  0.0
H  H11  1  0.89446704  0.56937914  0.11553761  1  0.133556  -0.000558  0.939743  0.0  0.153242  -0.000474  1.004214  0.0  0.154046  -0.000425  1.004524  0.0  0.101518  0.15334  -0.000517  1.003101  0.0
H  H12  1  0.10553819  0.43062175  0.88446698  1  0.133523  -0.000558  0.939756  0.0  0.153222  -0.000474  1.004223  0.0  0.154027  -0.000425  1.004532  0.0  0.101504  0.153317  -0.000517  1.00311  0.0
H  H13  1  0.90037604  0.77727563  0.46400900  1  0.379406  9e-05  0.932222  0.0  0.34364  8.5e-05  1.014021  0.0  0.355086  0.000111  0.997818  0.0  0.276553  0.335848  4.8e-05  1.025046  0.0
H  H14  1  0.09962715  0.22272757  0.53600182  1  0.37933  9.1e-05  0.932419  0.0  0.343553  8.5e-05  1.014173  0.0  0.355  0.000111  0.997969  0.0  0.276501  0.33576  4.8e-05  1.025198  0.0
H  H15  1  0.79197792  0.80997661  0.59018317  1  0.412815  0.000327  0.895382  0.0  0.384574  0.000193  0.956586  0.0  0.397141  0.000183  0.938533  0.0  0.279382  0.375942  0.000158  0.968923  0.0
H  H16  1  0.20799678  0.19002074  0.40981597  1  0.412826  0.000327  0.895334  0.0  0.384597  0.000193  0.956521  0.0  0.397163  0.000183  0.93847  0.0  0.279422  0.375966  0.000158  0.968857  0.0
C  C17  1  0.80697338  0.84636276  0.09924405  1  0.062031  0.009412  3.564804  0.006  0.030387  0.001385  3.82018  0.001  0.035526  0.00344  3.835768  0.002  0.070313  0.027244  1.3e-05  3.810101  0.0
C  C18  1  0.19303758  0.15363354  0.90075673  1  0.062059  0.009429  3.564954  0.006  0.03031  0.001384  3.820516  0.001  0.035454  0.003439  3.836106  0.002  0.070252  0.027166  1.3e-05  3.810427  0.0
C  C19  1  0.61396953  0.96670954  0.24709255  1  0.046945  0.008876  3.737978  0.006  0.051595  0.002663  3.984397  0.001  0.049531  0.004213  4.004741  0.003  0.11228  0.052739  0.001381  3.971546  0.001
C  C20  1  0.38603340  0.03328443  0.75290279  1  0.046777  0.008892  3.738099  0.006  0.051473  0.002663  3.984427  0.001  0.049411  0.004214  4.004775  0.003  0.112216  0.052609  0.001382  3.97158  0.001
C  C21  1  0.88870195  0.79373572  0.19709227  1  0.294916  -0.010529  3.679187  -0.011  0.298246  -0.004699  3.935479  -0.006  0.30432  -0.004097  3.952006  -0.005  0.142137  0.294125  -0.004969  3.923996  -0.006
C  C22  1  0.11130194  0.20626287  0.80291043  1  0.295014  -0.010542  3.678855  -0.011  0.298233  -0.004698  3.935373  -0.006  0.304311  -0.004096  3.951889  -0.005  0.142166  0.294113  -0.00497  3.92389  -0.006
C  C23  1  0.45287558  0.05687513  0.26559592  1  0.617428  0.006591  3.919215  0.006  0.569148  0.001192  4.226554  0.001  0.604437  0.001141  4.222993  0.001  0.211754  0.545242  0.000675  4.228018  0.001
C  C24  1  0.54710960  0.94311417  0.73438837  1  0.617364  0.00659  3.919177  0.006  0.568992  0.001192  4.226618  0.001  0.604276  0.001143  4.223055  0.001  0.211671  0.545084  0.000675  4.228085  0.001
C  C25  1  0.70225164  0.91910177  0.34561748  1  0.106152  -0.007322  3.650356  -0.007  0.070082  -0.002966  3.902701  -0.003  0.07507  -0.002765  3.915785  -0.003  0.06821  0.066576  -0.002931  3.894422  -0.003
C  C26  1  0.29773954  0.08089216  0.65437566  1  0.106159  -0.007334  3.650124  -0.007  0.070135  -0.002966  3.902348  -0.003  0.075122  -0.002766  3.91543  -0.003  0.068259  0.066626  -0.002931  3.894073  -0.003
C  C27  1  0.02453488  0.68915710  0.16587583  1  -0.389378  -0.001276  3.71398  0.0  -0.476686  -0.001386  3.957088  -0.001  -0.479865  -0.001048  3.966452  0.0  -0.24188  -0.474184  -0.001944  3.950296  -0.001
C  C28  1  0.97546800  0.31084264  0.83412999  1  -0.389374  -0.001273  3.713767  0.0  -0.476691  -0.001385  3.956911  -0.001  -0.479874  -0.001047  3.966277  0.0  -0.241889  -0.474188  -0.001943  3.950117  -0.001
N  N29  1  0.66856201  0.92961996  0.12490494  1  -0.253614  -0.075079  3.371851  -0.091  -0.216654  -0.052158  3.66367  -0.068  -0.240494  -0.042779  3.684633  -0.06  -0.332747  -0.20377  -0.057465  3.652711  -0.071
N  N30  1  0.33144425  0.07037976  0.87509279  1  -0.253547  -0.075091  3.371977  -0.091  -0.216503  -0.05216  3.663716  -0.068  -0.240353  -0.04278  3.68469  -0.06  -0.332672  -0.203601  -0.057468  3.652736  -0.071
N  N31  1  0.83611041  0.83246230  0.32010196  1  -0.301902  0.008087  3.069315  0.007  -0.252861  0.003076  3.31731  0.002  -0.262999  0.004046  3.329933  0.003  -0.279003  -0.245577  0.002006  3.308976  0.002
N  N32  1  0.16388142  0.16753280  0.67989728  1  -0.301909  0.0081  3.069125  0.007  -0.252823  0.003074  3.31711  0.002  -0.262966  0.004045  3.329737  0.003  -0.279009  -0.245535  0.002007  3.308775  0.002
N  N33  1  0.94905114  0.46605645  0.36139158  1  -0.529134  -0.090274  2.865507  -0.109  -0.565699  -0.059864  3.236162  -0.079  -0.617879  -0.038218  3.244794  -0.059  -0.347608  -0.536541  -0.071876  3.233554  -0.088
N  N34  1  0.05094836  0.53394902  0.63861778  1  -0.529233  -0.090196  2.865901  -0.109  -0.565808  -0.059833  3.236551  -0.079  -0.617972  -0.038183  3.245174  -0.059  -0.347598  -0.536658  -0.071852  3.233949  -0.088
N  N35  1  0.56110476  0.54946941  0.63960528  1  -0.538312  -0.11013  2.89731  -0.133  -0.587023  -0.070455  3.287846  -0.093  -0.643748  -0.047813  3.298992  -0.073  -0.359099  -0.556238  -0.082701  3.284663  -0.101
N  N36  1  0.43888910  0.45053486  0.36038335  1  -0.538104  -0.110054  2.897383  -0.133  -0.586807  -0.070427  3.287887  -0.093  -0.643526  -0.04778  3.299043  -0.073  -0.358956  -0.556029  -0.082671  3.284708  -0.101
N  N37  1  0.87748370  0.36462818  0.24014069  1  0.415562  0.047584  4.112456  0.048  0.468791  0.012162  4.403559  0.014  0.491263  0.0187  4.439051  0.018  0.103987  0.455218  0.005361  4.380776  0.009
N  N38  1  0.12251450  0.63536924  0.75986006  1  0.415923  0.047644  4.112406  0.048  0.469162  0.012183  4.403504  0.014  0.491636  0.018728  4.438999  0.018  0.104184  0.455582  0.005381  4.380717  0.009
N  N39  1  0.57993852  0.51981500  0.74070274  1  0.392483  0.056232  4.112171  0.057  0.443071  0.014214  4.416047  0.016  0.464121  0.022412  4.452773  0.021  0.098764  0.42982  0.006653  4.393539  0.011
N  N40  1  0.42005900  0.48018702  0.25929861  1  0.392481  0.056278  4.112042  0.057  0.443074  0.014234  4.41595  0.016  0.464123  0.022436  4.452694  0.021  0.098735  0.429824  0.006667  4.39344  0.011
N  N41  1  0.81656963  0.27220365  0.12192336  1  -0.323062  -0.137946  2.438653  -0.153  -0.337249  -0.078692  2.685743  -0.092  -0.348668  -0.0677  2.692892  -0.084  -0.147984  -0.333111  -0.08729  2.68245  -0.097
N  N42  1  0.18344594  0.72780648  0.87809499  1  -0.323384  -0.1381  2.438188  -0.153  -0.337608  -0.07875  2.685322  -0.092  -0.349042  -0.067758  2.69248  -0.085  -0.148199  -0.333446  -0.087359  2.682006  -0.098
N  N43  1  0.59993856  0.49696781  0.84038748  1  -0.266964  -0.158145  2.332588  -0.173  -0.277085  -0.08653  2.552384  -0.099  -0.286768  -0.07418  2.567197  -0.091  -0.122497  -0.272456  -0.095071  2.543229  -0.104
N  N44  1  0.40006098  0.50303764  0.15960593  1  -0.267147  -0.158284  2.33217  -0.173  -0.277301  -0.086584  2.551999  -0.099  -0.287007  -0.074231  2.56683  -0.091  -0.122636  -0.272664  -0.095123  2.54285  -0.105
O  O45  1  0.36757168  0.07726628  0.15691885  1  -0.574873  -0.096047  2.02846  -0.125  -0.554054  -0.061977  2.307547  -0.09  -0.596847  -0.046868  2.302098  -0.074  -0.324379  -0.525994  -0.071774  2.311349  -0.098
O  O46  1  0.63244200  0.92273461  0.84307163  1  -0.574753  -0.096062  2.028254  -0.125  -0.553877  -0.061981  2.307298  -0.09  -0.596702  -0.046871  2.301929  -0.074  -0.324315  -0.525815  -0.071779  2.311095  -0.098
O  O47  1  0.40777981  0.10386620  0.38073516  1  -0.565661  -0.017067  1.971538  -0.022  -0.522928  -0.008408  2.196786  -0.013  -0.550492  -0.003524  2.188444  -0.006  -0.290494  -0.502558  -0.013127  2.201787  -0.018
O  O48  1  0.59217786  0.89611040  0.61924733  1  -0.565631  -0.017061  1.971651  -0.022  -0.522834  -0.008407  2.196887  -0.013  -0.550385  -0.003524  2.188542  -0.006  -0.29043  -0.50247  -0.013124  2.20189  -0.018
O  O49  1  0.90404816  0.76204594  0.55150169  1  -0.832375  -0.005249  1.944724  -0.008  -0.792784  0.000722  2.150813  0.0  -0.820644  0.002257  2.116061  0.001  -0.605426  -0.772209  -0.001494  2.173952  -0.003
O  O50  1  0.09594831  0.23795723  0.44850934  1  -0.832292  -0.005256  1.944791  -0.008  -0.792696  0.000717  2.150827  0.0  -0.82054  0.00225  2.116061  0.001  -0.605399  -0.772142  -0.001499  2.174002  -0.003
