# generated using pymatgen
data_HgH16C18N2(ClO)2
_symmetry_space_group_name_H-M   'P 1'
_cell_length_a   9.08005119
_cell_length_b   10.33539347
_cell_length_c   10.89325545
_cell_angle_alpha   86.07720884
_cell_angle_beta   67.40016009
_cell_angle_gamma   73.27812079
_symmetry_Int_Tables_number   1
_chemical_formula_structural   HgH16C18N2(ClO)2
_chemical_formula_sum   'Hg2 H32 C36 N4 Cl4 O4'
_cell_volume   902.84893528
_cell_formula_units_Z   2
loop_
 _symmetry_equiv_pos_site_id
 _symmetry_equiv_pos_as_xyz
  1  'x, y, z'
loop_
 _atom_site_type_symbol
 _atom_site_label
 _atom_site_symmetry_multiplicity
 _atom_site_fract_x
 _atom_site_fract_y
 _atom_site_fract_z
 _atom_site_occupancy
 _atom_site_hle17_bader_spin_density
 _atom_site_hle17_ddec_charge
 _atom_site_hle17_ddec_spin_density
 _atom_site_hle17_ddec_sum_bond_order
 _atom_site_hle17_magmom
 _atom_site_hse06_10hf_bader_spin_density
 _atom_site_hse06_10hf_ddec_charge
 _atom_site_hse06_10hf_ddec_spin_density
 _atom_site_hse06_10hf_ddec_sum_bond_order
 _atom_site_hse06_10hf_magmom
 _atom_site_hse06_bader_spin_density
 _atom_site_hse06_ddec_charge
 _atom_site_hse06_ddec_spin_density
 _atom_site_hse06_ddec_sum_bond_order
 _atom_site_hse06_magmom
 _atom_site_pbe_bader_spin_density
 _atom_site_pbe_cm5_charge
 _atom_site_pbe_ddec_charge
 _atom_site_pbe_ddec_spin_density
 _atom_site_pbe_ddec_sum_bond_order
 _atom_site_pbe_magmom
Hg  Hg0  1  0.13972965  0.31714931  0.31682707  1  0  0.759185  0  2.076914  0  0  0.585742  0  2.582307  0  0  0.636363  0  2.546517  0  0  0.539532  0.551024  0  2.606418  0
Hg  Hg1  1  0.86026804  0.68285051  0.68317532  1  0  0.759208  0  2.076948  0  0  0.585765  0  2.582348  0  0  0.636387  0  2.546558  0  0  0.539555  0.551049  0  2.606458  0
H  H2  1  0.38397436  0.42737983  0.08187833  1  0  0.068112  0  0.966636  0  0  0.076152  0  1.034943  0  0  0.077947  0  1.033555  0  0  0.105228  0.074702  0  1.036275  0
H  H3  1  0.61602452  0.57261999  0.91812275  1  0  0.068106  0  0.96666  0  0  0.076154  0  1.034955  0  0  0.07795  0  1.033566  0  0  0.105228  0.074705  0  1.036289  0
H  H4  1  0.59182072  0.38184643  0.84458514  1  0  0.102641  0  0.990273  0  0  0.110683  0  1.056295  0  0  0.113762  0  1.05549  0  0  0.093939  0.108394  0  1.05704  0
H  H5  1  0.40817902  0.61815438  0.15541651  1  0  0.102677  0  0.9902  0  0  0.110742  0  1.056192  0  0  0.113804  0  1.055405  0  0  0.093957  0.108452  0  1.056935  0
H  H6  1  0.61159347  0.18014161  0.71654876  1  0  0.092307  0  0.944033  0  0  0.101805  0  1.006113  0  0  0.103963  0  1.00505  0  0  0.100721  0.100005  0  1.007296  0
H  H7  1  0.38840967  0.81985617  0.28345014  1  0  0.092324  0  0.944088  0  0  0.101821  0  1.006164  0  0  0.103982  0  1.005096  0  0  0.100716  0.100009  0  1.007356  0
H  H8  1  0.42413961  0.03494299  0.82820910  1  0  0.120367  0  0.951015  0  0  0.125554  0  1.016511  0  0  0.129621  0  1.014342  0  0  0.107501  0.122597  0  1.018142  0
H  H9  1  0.57586116  0.96505480  0.17179149  1  0  0.120327  0  0.951033  0  0  0.125508  0  1.016533  0  0  0.129574  0  1.014365  0  0  0.107492  0.122553  0  1.018164  0
H  H10  1  0.21024273  0.04086309  0.18015119  1  0  0.060853  0  0.963537  0  0  0.069142  0  1.041529  0  0  0.069363  0  1.041093  0  0  0.09442  0.068906  0  1.042118  0
H  H11  1  0.78975993  0.95913267  0.81984983  1  0  0.060793  0  0.963555  0  0  0.069096  0  1.041538  0  0  0.069304  0  1.041114  0  0  0.09441  0.068859  0  1.042127  0
H  H12  1  0.06259025  0.13359963  0.11118419  1  0  0.068139  0  0.943606  0  0  0.078563  0  1.015409  0  0  0.078329  0  1.0167  0  0  0.101203  0.078816  0  1.014745  0
H  H13  1  0.93740830  0.86640119  0.88881785  1  0  0.068098  0  0.943639  0  0  0.078515  0  1.01545  0  0  0.078282  0  1.016738  0  0  0.101195  0.078767  0  1.014785  0
H  H14  1  0.98401683  0.96200634  0.25208965  1  0  0.091905  0  0.994559  0  0  0.101649  0  1.062569  0  0  0.103934  0  1.0619  0  0  0.09461  0.100122  0  1.062919  0
H  H15  1  0.01598100  0.03799651  0.74790974  1  0  0.091927  0  0.994559  0  0  0.101665  0  1.062574  0  0  0.103948  0  1.061908  0  0  0.094628  0.100137  0  1.062922  0
H  H16  1  0.85012166  0.78350758  0.33334341  1  0  0.097854  0  0.989819  0  0  0.105727  0  1.058447  0  0  0.108719  0  1.056694  0  0  0.089028  0.103851  0  1.059347  0
H  H17  1  0.14987925  0.21649324  0.66665602  1  0  0.097856  0  0.989839  0  0  0.10573  0  1.058463  0  0  0.108722  0  1.056711  0  0  0.08904  0.103853  0  1.059363  0
H  H18  1  0.13868252  0.55941028  0.95649083  1  0  0.113966  0  0.97571  0  0  0.11973  0  1.042068  0  0  0.123709  0  1.039647  0  0  0.100436  0.116711  0  1.044238  0
H  H19  1  0.86131927  0.44059153  0.04351101  1  0  0.113969  0  0.975767  0  0  0.11974  0  1.042114  0  0  0.123718  0  1.039694  0  0  0.100456  0.116723  0  1.044287  0
H  H20  1  0.27942082  0.74220741  0.87477089  1  0  0.098931  0  0.973073  0  0  0.110341  0  1.033805  0  0  0.112785  0  1.033629  0  0  0.095842  0.108793  0  1.033864  0
H  H21  1  0.72057466  0.25779544  0.12523294  1  0  0.098903  0  0.973003  0  0  0.110273  0  1.033791  0  0  0.112716  0  1.033615  0  0  0.095841  0.108726  0  1.033849  0
H  H22  1  0.68470966  0.64134706  0.32585126  1  0  0.068022  0  0.929652  0  0  0.080679  0  0.993511  0  0  0.081219  0  0.993633  0  0  0.10104  0.08037  0  0.99331  0
H  H23  1  0.31529438  0.35865171  0.67415096  1  0  0.06797  0  0.929643  0  0  0.080646  0  0.993499  0  0  0.081184  0  0.993621  0  0  0.101001  0.080336  0  0.993299  0
H  H24  1  0.84286853  0.57705128  0.39261710  1  0  0.0665  0  0.966865  0  0  0.071843  0  1.047291  0  0  0.072445  0  1.046362  0  0  0.092128  0.071364  0  1.047959  0
H  H25  1  0.15713413  0.42294448  0.60738301  1  0  0.066543  0  0.966811  0  0  0.071864  0  1.047273  0  0  0.072479  0  1.04633  0  0  0.092139  0.071383  0  1.047939  0
H  H26  1  0.50700349  0.50484393  0.34160242  1  0  0.110974  0  0.972455  0  0  0.118081  0  1.037966  0  0  0.120971  0  1.038016  0  0  0.099057  0.115923  0  1.038183  0
H  H27  1  0.49300007  0.49515588  0.65838887  1  0  0.110948  0  0.972437  0  0  0.118026  0  1.037985  0  0  0.120918  0  1.038032  0  0  0.099038  0.115887  0  1.038187  0
H  H28  1  0.43789186  0.28630535  0.40033833  1  0  0.086506  0  0.980268  0  0  0.091661  0  1.052488  0  0  0.094082  0  1.050401  0  0  0.093602  0.0899  0  1.053899  0
H  H29  1  0.56210983  0.71369649  0.59965436  1  0  0.086502  0  0.980313  0  0  0.091677  0  1.052509  0  0  0.094098  0  1.050423  0  0  0.093602  0.089915  0  1.053923  0
H  H30  1  0.65012453  0.08830413  0.44121896  1  0  0.116386  0  0.954969  0  0  0.126156  0  1.012307  0  0  0.1294  0  1.011358  0  0  0.10188  0.123945  0  1.012883  0
H  H31  1  0.34987038  0.91169673  0.55878059  1  0  0.116352  0  0.954998  0  0  0.126116  0  1.012348  0  0  0.129358  0  1.011398  0  0  0.101853  0.123904  0  1.012924  0
H  H32  1  0.92577951  0.11781303  0.41227057  1  0  0.077871  0  0.960583  0  0  0.081772  0  1.034296  0  0  0.084358  0  1.031522  0  0  0.105962  0.079774  0  1.036389  0
H  H33  1  0.07421578  0.88218680  0.58773076  1  0  0.07785  0  0.960563  0  0  0.081757  0  1.034277  0  0  0.084343  0  1.031503  0  0  0.105941  0.079758  0  1.03637  0
C  C34  1  0.39765449  0.34212113  0.02069205  1  0  0.129962  0  3.714737  0  0  0.10139  0  3.962351  0  0  0.108907  0  3.98173  0  0  0.041568  0.095977  0  3.95007  0
C  C35  1  0.60234917  0.65787866  0.97930747  1  0  0.129993  0  3.714602  0  0  0.101425  0  3.962196  0  0  0.108942  0  3.98157  0  0  0.041564  0.096009  0  3.94992  0
C  C36  1  0.51110114  0.31710260  0.88965557  1  0  -0.122154  0  3.735795  0  0  -0.13595  0  3.983931  0  0  -0.14367  0  4.005996  0  0  -0.088744  -0.130287  0  3.96897  0
C  C37  1  0.48890081  0.68289518  0.11034372  1  0  -0.122254  0  3.735616  0  0  -0.136074  0  3.983759  0  0  -0.143781  0  4.005834  0  0  -0.088767  -0.130409  0  3.96879  0
C  C38  1  0.52184370  0.20527502  0.81868468  1  0  0.00587  0  3.719787  0  0  -0.009842  0  3.969358  0  0  -0.005676  0  3.987306  0  0  -0.066182  -0.01273  0  3.956978  0
C  C39  1  0.47816137  0.79472072  0.18131740  1  0  0.005857  0  3.719921  0  0  -0.009853  0  3.969476  0  0  -0.005689  0  3.987431  0  0  -0.066192  -0.012731  0  3.957098  0
C  C40  1  0.41865344  0.12335016  0.88034043  1  0  -0.148079  0  3.686626  0  0  -0.170478  0  3.93734  0  0  -0.177877  0  3.957507  0  0  -0.083999  -0.165206  0  3.92357  0
C  C41  1  0.58134613  0.87664764  0.11966055  1  0  -0.147982  0  3.686688  0  0  -0.17038  0  3.937381  0  0  -0.177779  0  3.957552  0  0  -0.083972  -0.16511  0  3.923609  0
C  C42  1  0.30794601  0.15475147  0.01241239  1  0  0.241254  0  3.69744  0  0  0.241935  0  3.940394  0  0  0.250527  0  3.960812  0  0  0.124434  0.23587  0  3.927128  0
C  C43  1  0.69205527  0.84524833  0.98758882  1  0  0.241155  0  3.69741  0  0  0.241862  0  3.940324  0  0  0.250454  0  3.960743  0  0  0.124425  0.235796  0  3.927059  0
C  C44  1  0.19274368  0.07148197  0.08622401  1  0  0.011616  0  3.673053  0  0  -0.052895  0  3.93451  0  0  -0.046462  0  3.939888  0  0  -0.065155  -0.057564  0  3.931463  0
C  C45  1  0.80725639  0.92851784  0.91377668  1  0  0.011766  0  3.67299  0  0  -0.052746  0  3.934438  0  0  -0.046307  0  3.939824  0  0  -0.065136  -0.057414  0  3.931388  0
C  C46  1  0.14162723  0.86374858  0.05747831  1  0  0.250054  0  3.824613  0  0  0.239748  0  4.085596  0  0  0.249641  0  4.101547  0  0  0.068402  0.23267  0  4.075111  0
C  C47  1  0.85837062  0.13625427  0.94252291  1  0  0.249814  0  3.82479  0  0  0.23955  0  4.085726  0  0  0.249437  0  4.101684  0  0  0.068324  0.232473  0  4.075242  0
C  C48  1  0.01961977  0.87505725  0.18547861  1  0  -0.173576  0  3.77204  0  0  -0.19335  0  4.02169  0  0  -0.196696  0  4.041511  0  0  -0.11485  -0.19026  0  4.007625  0
C  C49  1  0.98037924  0.12494560  0.81452039  1  0  -0.173504  0  3.772072  0  0  -0.193292  0  4.021716  0  0  -0.196631  0  4.041526  0  0  -0.114851  -0.190201  0  4.007648  0
C  C50  1  0.94153859  0.77257452  0.23164728  1  0  -0.171244  0  3.793289  0  0  -0.190054  0  4.042573  0  0  -0.193423  0  4.063084  0  0  -0.114869  -0.187755  0  4.02795  0
C  C51  1  0.05846111  0.22742631  0.76835072  1  0  -0.171243  0  3.793233  0  0  -0.190047  0  4.042519  0  0  -0.193415  0  4.06303  0  0  -0.114886  -0.187747  0  4.027894  0
C  C52  1  0.98660684  0.65867069  0.14942836  1  0  0.241773  0  3.817228  0  0  0.233026  0  4.077298  0  0  0.241268  0  4.09491  0  0  0.061465  0.227847  0  4.064803  0
C  C53  1  0.01339087  0.34132913  0.85057494  1  0  0.241771  0  3.817091  0  0  0.233016  0  4.077163  0  0  0.241256  0  4.094775  0  0  0.061499  0.227837  0  4.06467  0
C  C54  1  0.10728375  0.64807155  0.02002199  1  0  -0.159661  0  3.76211  0  0  -0.182286  0  4.022103  0  0  -0.184931  0  4.040072  0  0  -0.109651  -0.18055  0  4.010793  0
C  C55  1  0.89271240  0.35192928  0.97998083  1  0  -0.159704  0  3.762237  0  0  -0.182319  0  4.022199  0  0  -0.184964  0  4.04017  0  0  -0.109709  -0.180587  0  4.010894  0
C  C56  1  0.18414040  0.74987354  0.97454436  1  0  -0.170401  0  3.787948  0  0  -0.189944  0  4.042509  0  0  -0.192913  0  4.061191  0  0  -0.112066  -0.188544  0  4.030623  0
C  C57  1  0.81586019  0.25012828  0.02545695  1  0  -0.170263  0  3.787986  0  0  -0.189795  0  4.042549  0  0  -0.192764  0  4.061233  0  0  -0.112047  -0.188397  0  4.030665  0
C  C58  1  0.79653801  0.55827727  0.31740061  1  0  0.005472  0  3.662827  0  0  -0.057718  0  3.923799  0  0  -0.050827  0  3.927157  0  0  -0.067965  -0.062346  0  3.921055  0
C  C59  1  0.20346513  0.44172050  0.68259829  1  0  0.005543  0  3.662774  0  0  -0.057666  0  3.92379  0  0  -0.050789  0  3.927151  0  0  -0.067923  -0.062294  0  3.921044  0
C  C60  1  0.75343114  0.42633649  0.34342020  1  0  0.232784  0  3.700906  0  0  0.231409  0  3.943286  0  0  0.23926  0  3.96372  0  0  0.12136  0.226177  0  3.929452  0
C  C61  1  0.24657046  0.57366230  0.65657914  1  0  0.232707  0  3.700802  0  0  0.231326  0  3.943232  0  0  0.239172  0  3.963672  0  0  0.121291  0.226091  0  3.929401  0
C  C62  1  0.59776639  0.41714417  0.35705520  1  0  -0.151712  0  3.700821  0  0  -0.167233  0  3.941463  0  0  -0.175245  0  3.963714  0  0  -0.079805  -0.162092  0  3.926766  0
C  C63  1  0.40223533  0.58285767  0.64294023  1  0  -0.151586  0  3.7007  0  0  -0.167082  0  3.941362  0  0  -0.175094  0  3.963613  0  0  -0.07972  -0.161961  0  3.926661  0
C  C64  1  0.55853726  0.29508994  0.39088831  1  0  0.002309  0  3.721058  0  0  -0.012441  0  3.96459  0  0  -0.008571  0  3.982586  0  0  -0.066659  -0.0147  0  3.952293  0
C  C65  1  0.44146326  0.70491191  0.60910660  1  0  0.002229  0  3.721112  0  0  -0.012535  0  3.964621  0  0  -0.008666  0  3.982619  0  0  -0.066689  -0.014792  0  3.952325  0
C  C66  1  0.67565397  0.18502041  0.41219777  1  0  -0.109526  0  3.707213  0  0  -0.120793  0  3.95083  0  0  -0.128048  0  3.971881  0  0  -0.078684  -0.116222  0  3.936426  0
C  C67  1  0.32434213  0.81498044  0.58780048  1  0  -0.109424  0  3.707223  0  0  -0.120688  0  3.950841  0  0  -0.12794  0  3.971892  0  0  -0.078645  -0.116118  0  3.936432  0
C  C68  1  0.82974989  0.20016624  0.39540206  1  0  0.121336  0  3.704467  0  0  0.088854  0  3.95738  0  0  0.096244  0  3.976547  0  0  0.045693  0.084079  0  3.944245  0
C  C69  1  0.17024811  0.79983258  0.60459661  1  0  0.12126  0  3.704501  0  0  0.088776  0  3.957416  0  0  0.096166  0  3.976579  0  0  0.045678  0.084002  0  3.944276  0
N  N70  1  0.29898100  0.26257312  0.08084170  1  0  -0.331996  0  3.217507  0  0  -0.256351  0  3.475205  0  0  -0.278245  0  3.495495  0  0  -0.303573  -0.242012  0  3.462124  0
N  N71  1  0.70102027  0.73742669  0.91915860  1  0  -0.331943  0  3.217504  0  0  -0.256321  0  3.475201  0  0  -0.278213  0  3.495491  0  0  -0.303547  -0.241982  0  3.462122  0
N  N72  1  0.86777073  0.31715556  0.35998513  1  0  -0.309687  0  3.26782  0  0  -0.226417  0  3.523803  0  0  -0.2485  0  3.545697  0  0  -0.299925  -0.211664  0  3.508798  0
N  N73  1  0.13222968  0.68284324  0.64001459  1  0  -0.309581  0  3.267755  0  0  -0.226316  0  3.523747  0  0  -0.248397  0  3.545645  0  0  -0.299875  -0.211562  0  3.508736  0
Cl  Cl74  1  0.20257505  0.52323475  0.35107232  1  0  -0.490385  0  1.005519  0  0  -0.428055  0  1.28687  0  0  -0.445969  0  1.270564  0  0  -0.261321  -0.415286  0  1.29781  0
Cl  Cl75  1  0.79742436  0.47676707  0.64893121  1  0  -0.490411  0  1.005539  0  0  -0.428063  0  1.286885  0  0  -0.445984  0  1.270586  0  0  -0.261338  -0.415294  0  1.297827  0
Cl  Cl76  1  0.24422705  0.09973795  0.41282516  1  0  -0.53654  0  0.871318  0  0  -0.472581  0  1.122779  0  0  -0.489703  0  1.103772  0  0  -0.29891  -0.460511  0  1.135835  0
Cl  Cl77  1  0.75577185  0.90026186  0.58717774  1  0  -0.536549  0  0.871332  0  0  -0.472587  0  1.122802  0  0  -0.489709  0  1.103793  0  0  -0.298915  -0.460517  0  1.13586  0
O  O78  1  0.22865500  0.95655240  0.00395741  1  0  -0.279941  0  2.351744  0  0  -0.2076  0  2.584878  0  0  -0.225288  0  2.589309  0  0  -0.181103  -0.194943  0  2.581811  0
O  O79  1  0.77134505  0.04344741  0.99604145  1  0  -0.279925  0  2.351839  0  0  -0.207606  0  2.584967  0  0  -0.22529  0  2.589395  0  0  -0.181093  -0.194948  0  2.581899  0
O  O80  1  0.92219266  0.54953088  0.18653285  1  0  -0.288037  0  2.333168  0  0  -0.217651  0  2.571457  0  0  -0.234762  0  2.573932  0  0  -0.185585  -0.205136  0  2.568909  0
O  O81  1  0.07780982  0.45046891  0.81346797  1  0  -0.288088  0  2.33315  0  0  -0.217687  0  2.571437  0  0  -0.234794  0  2.573911  0  0  -0.185573  -0.205168  0  2.568885  0
