# generated using pymatgen
data_NaH18C13SNO5
_symmetry_space_group_name_H-M   'P 1'
_cell_length_a   4.97818359
_cell_length_b   10.01405323
_cell_length_c   14.82626058
_cell_angle_alpha   87.31904800
_cell_angle_beta   86.82680450
_cell_angle_gamma   90.56387266
_symmetry_Int_Tables_number   1
_chemical_formula_structural   NaH18C13SNO5
_chemical_formula_sum   'Na2 H36 C26 S2 N2 O10'
_cell_volume   737.11748358
_cell_formula_units_Z   2
loop_
 _symmetry_equiv_pos_site_id
 _symmetry_equiv_pos_as_xyz
  1  'x, y, z'
loop_
 _atom_site_type_symbol
 _atom_site_label
 _atom_site_symmetry_multiplicity
 _atom_site_fract_x
 _atom_site_fract_y
 _atom_site_fract_z
 _atom_site_occupancy
 _atom_site_hle17_bader_spin_density
 _atom_site_hle17_ddec_charge
 _atom_site_hle17_ddec_spin_density
 _atom_site_hle17_ddec_sum_bond_order
 _atom_site_hle17_magmom
 _atom_site_hse06_10hf_bader_spin_density
 _atom_site_hse06_10hf_ddec_charge
 _atom_site_hse06_10hf_ddec_spin_density
 _atom_site_hse06_10hf_ddec_sum_bond_order
 _atom_site_hse06_10hf_magmom
 _atom_site_hse06_bader_spin_density
 _atom_site_hse06_ddec_charge
 _atom_site_hse06_ddec_spin_density
 _atom_site_hse06_ddec_sum_bond_order
 _atom_site_hse06_magmom
 _atom_site_pbe_bader_spin_density
 _atom_site_pbe_cm5_charge
 _atom_site_pbe_ddec_charge
 _atom_site_pbe_ddec_spin_density
 _atom_site_pbe_ddec_sum_bond_order
 _atom_site_pbe_magmom
Na  Na0  1  0.09354084  0.34853955  0.54582594  1  0  0.892497  0  0.375167  0  0  0.838488  0  0.529262  0  0  0.851691  0  0.505276  0  0  0.678249  0.82873  0  0.546473  0
Na  Na1  1  0.90637701  0.65145008  0.45412868  1  0  0.892536  0  0.375036  0  0  0.838492  0  0.529189  0  0  0.851677  0  0.50521  0  0  0.678206  0.828733  0  0.546401  0
H  H2  1  0.28989727  0.08070865  0.88083818  1  0  0.078787  0  0.984878  0  0  0.090213  0  1.052121  0  0  0.092193  0  1.051347  0  0  0.092156  0.088963  0  1.05247  0
H  H3  1  0.71013946  0.91931499  0.11917197  1  0  0.078811  0  0.985023  0  0  0.090197  0  1.052285  0  0  0.092173  0  1.051517  0  0  0.092158  0.088949  0  1.052639  0
H  H4  1  0.93707646  0.48943384  0.79470012  1  0  0.071579  0  0.909867  0  0  0.081326  0  0.973954  0  0  0.082857  0  0.973107  0  0  0.11832  0.080568  0  0.974307  0
H  H5  1  0.06293426  0.51056476  0.20530103  1  0  0.071577  0  0.909745  0  0  0.081345  0  0.97391  0  0  0.082876  0  0.973067  0  0  0.118304  0.080588  0  0.974268  0
H  H6  1  0.94189281  0.90486132  0.72678904  1  0  0.110621  0  0.982301  0  0  0.118495  0  1.04948  0  0  0.122161  0  1.046649  0  0  0.102856  0.115926  0  1.051355  0
H  H7  1  0.05804344  0.09511511  0.27318711  1  0  0.110655  0  0.98226  0  0  0.118516  0  1.049399  0  0  0.12218  0  1.04657  0  0  0.102942  0.115949  0  1.051269  0
H  H8  1  0.43558299  0.67342111  0.78727882  1  0  0.102146  0  0.938723  0  0  0.117654  0  0.99914  0  0  0.119991  0  0.998192  0  0  0.097723  0.115505  0  1.000557  0
H  H9  1  0.56441390  0.32656210  0.21273984  1  0  0.102222  0  0.938626  0  0  0.117708  0  0.999034  0  0  0.120047  0  0.998075  0  0  0.097705  0.115538  0  1.000474  0
H  H10  1  0.10182151  0.72532150  0.81569961  1  0  0.08991  0  0.943943  0  0  0.110166  0  0.999754  0  0  0.110922  0  1.00066  0  0  0.09902  0.109284  0  1.000052  0
H  H11  1  0.89815708  0.27468455  0.18431885  1  0  0.08998  0  0.943909  0  0  0.110161  0  0.999781  0  0  0.110915  0  1.000684  0  0  0.099031  0.109282  0  1.000068  0
H  H12  1  0.32514092  0.98202720  0.65382661  1  0  0.081164  0  0.967137  0  0  0.09782  0  1.035983  0  0  0.096808  0  1.038368  0  0  0.094749  0.098297  0  1.034774  0
H  H13  1  0.67481533  0.01798497  0.34617325  1  0  0.081231  0  0.96698  0  0  0.09785  0  1.035886  0  0  0.096847  0  1.038258  0  0  0.094716  0.098326  0  1.034679  0
H  H14  1  0.34814939  0.05158314  0.53976792  1  0  0.110782  0  0.954494  0  0  0.128116  0  1.015661  0  0  0.12934  0  1.01473  0  0  0.11023  0.127091  0  1.016446  0
H  H15  1  0.65183534  0.94840213  0.46024081  1  0  0.110711  0  0.954339  0  0  0.128063  0  1.015518  0  0  0.129282  0  1.014601  0  0  0.110239  0.127038  0  1.016303  0
H  H16  1  0.08868184  0.93011911  0.57480931  1  0  0.091316  0  0.934334  0  0  0.108202  0  0.998448  0  0  0.109262  0  0.997353  0  0  0.104898  0.107411  0  0.99916  0
H  H17  1  0.91131467  0.06989335  0.42519246  1  0  0.091291  0  0.934238  0  0  0.108192  0  0.998325  0  0  0.109252  0  0.99723  0  0  0.104926  0.107394  0  0.999042  0
H  H18  1  0.12744555  0.29666966  0.83811186  1  0  0.076928  0  0.926412  0  0  0.090825  0  0.991896  0  0  0.0926  0  0.988457  0  0  0.12415  0.089438  0  0.994415  0
H  H19  1  0.87254487  0.70334681  0.16188655  1  0  0.076999  0  0.926484  0  0  0.090921  0  0.991884  0  0  0.092698  0  0.988446  0  0  0.124176  0.089532  0  0.994401  0
H  H20  1  0.59611731  0.88893986  0.85351803  1  0  0.082224  0  0.987623  0  0  0.088958  0  1.05763  0  0  0.091773  0  1.057482  0  0  0.088447  0.086562  0  1.058729  0
H  H21  1  0.40387721  0.11105783  0.14646929  1  0  0.082285  0  0.987609  0  0  0.088994  0  1.057641  0  0  0.091811  0  1.057491  0  0  0.088498  0.086599  0  1.058739  0
H  H22  1  0.40720629  0.50274375  0.91648885  1  0  0.075865  0  0.977269  0  0  0.090215  0  1.047735  0  0  0.0911  0  1.047868  0  0  0.085106  0.089511  0  1.047763  0
H  H23  1  0.59276836  0.49725424  0.08353191  1  0  0.075939  0  0.977215  0  0  0.09035  0  1.047626  0  0  0.091232  0  1.047764  0  0  0.085176  0.089648  0  1.047657  0
H  H24  1  0.06168797  0.53756027  0.93766224  1  0  0.070865  0  0.963576  0  0  0.085576  0  1.031458  0  0  0.086401  0  1.031549  0  0  0.086216  0.084976  0  1.031387  0
H  H25  1  0.93829466  0.46244773  0.06236149  1  0  0.070821  0  0.963641  0  0  0.085597  0  1.031459  0  0  0.08642  0  1.031553  0  0  0.086228  0.085002  0  1.03139  0
H  H26  1  0.14036821  0.89239141  0.04165174  1  0  0.122831  0  0.960072  0  0  0.145183  0  1.016633  0  0  0.145723  0  1.018268  0  0  0.09352  0.14482  0  1.015427  0
H  H27  1  0.85963232  0.10761720  0.95834397  1  0  0.12286  0  0.960038  0  0  0.145229  0  1.01655  0  0  0.145769  0  1.018185  0  0  0.09354  0.144864  0  1.015348  0
H  H28  1  0.90183872  0.77907493  0.99843153  1  0  0.102305  0  0.997619  0  0  0.113291  0  1.075065  0  0  0.114903  0  1.074972  0  0  0.079228  0.112187  0  1.074976  0
H  H29  1  0.09820214  0.22093184  0.00157356  1  0  0.102379  0  0.997552  0  0  0.113288  0  1.075072  0  0  0.1149  0  1.07498  0  0  0.079225  0.112188  0  1.074982  0
H  H30  1  0.11830361  0.88013483  0.92241659  1  0  0.116615  0  0.966094  0  0  0.137785  0  1.023915  0  0  0.138897  0  1.024639  0  0  0.091245  0.136797  0  1.023841  0
H  H31  1  0.88169497  0.11987262  0.07758728  1  0  0.116526  0  0.966114  0  0  0.137688  0  1.02393  0  0  0.1388  0  1.024652  0  0  0.091232  0.136702  0  1.023854  0
H  H32  1  0.46320441  0.43622828  0.69198331  1  0  0.298823  0  0.91658  0  0  0.278101  0  0.981084  0  0  0.288826  0  0.972132  0  0  0.314757  0.270795  0  0.98682  0
H  H33  1  0.53684660  0.56376563  0.30801919  1  0  0.298813  0  0.916543  0  0  0.278212  0  0.980894  0  0  0.288923  0  0.971953  0  0  0.314759  0.270909  0  0.986632  0
H  H34  1  0.60746180  0.31724868  0.44906334  1  0  0.407523  0  0.899206  0  0  0.381877  0  0.955723  0  0  0.391384  0  0.941572  0  0  0.287136  0.375209  0  0.965625  0
H  H35  1  0.39252860  0.68277862  0.55094493  1  0  0.407723  0  0.89898  0  0  0.382027  0  0.955536  0  0  0.391532  0  0.941388  0  0  0.287211  0.375361  0  0.965435  0
H  H36  1  0.35031288  0.27119205  0.40312919  1  0  0.40284  0  0.913891  0  0  0.372346  0  0.978275  0  0  0.383365  0  0.962199  0  0  0.27516  0.364533  0  0.989632  0
H  H37  1  0.64974629  0.72878011  0.59686288  1  0  0.402781  0  0.913989  0  0  0.372299  0  0.978349  0  0  0.383317  0  0.962274  0  0  0.275197  0.364484  0  0.989708  0
C  C38  1  0.85343521  0.10762409  0.68656275  1  0  0.134943  0  3.788159  0  0  0.130238  0  4.044387  0  0  0.133375  0  4.061448  0  0  0.066664  0.127315  0  4.032786  0
C  C39  1  0.14658550  0.89238552  0.31344198  1  0  0.13484  0  3.788209  0  0  0.130086  0  4.044479  0  0  0.133221  0  4.061544  0  0  0.066583  0.127158  0  4.032882  0
C  C40  1  0.44902725  0.08716292  0.82725713  1  0  -0.112099  0  3.829067  0  0  -0.138624  0  4.088235  0  0  -0.135448  0  4.111623  0  0  -0.108322  -0.141369  0  4.073178  0
C  C41  1  0.55101552  0.91285293  0.17274433  1  0  -0.112147  0  3.829466  0  0  -0.138657  0  4.088651  0  0  -0.135479  0  4.112034  0  0  -0.108304  -0.141415  0  4.07361  0
C  C42  1  0.11593088  0.53466089  0.75758770  1  0  0.027288  0  3.603011  0  0  0.007155  0  3.843444  0  0  0.00723  0  3.85614  0  0  0.018346  0.007135  0  3.83461  0
C  C43  1  0.88407586  0.46534250  0.24242420  1  0  0.027195  0  3.602756  0  0  0.006825  0  3.84358  0  0  0.006892  0  3.856268  0  0  0.018354  0.006792  0  3.834782  0
C  C44  1  0.01260755  0.60177629  0.67047517  1  0  0.666202  0  3.884952  0  0  0.613185  0  4.196749  0  0  0.645915  0  4.188275  0  0  0.21597  0.591279  0  4.200754  0
C  C45  1  0.98740537  0.39819839  0.32952382  1  0  0.666349  0  3.884452  0  0  0.613302  0  4.196391  0  0  0.646039  0  4.187904  0  0  0.215906  0.591397  0  4.200399  0
C  C46  1  0.47740309  0.20761312  0.77247570  1  0  -0.132026  0  3.864406  0  0  -0.115777  0  4.116245  0  0  -0.132709  0  4.145305  0  0  -0.045922  -0.104828  0  4.097167  0
C  C47  1  0.52257127  0.79238351  0.22750597  1  0  -0.131997  0  3.864801  0  0  -0.115731  0  4.116539  0  0  -0.132671  0  4.145608  0  0  -0.045989  -0.10478  0  4.09746  0
C  C48  1  0.81915668  0.99171260  0.74043950  1  0  -0.159251  0  3.759425  0  0  -0.186068  0  4.018812  0  0  -0.184405  0  4.035552  0  0  -0.105888  -0.186411  0  4.006928  0
C  C49  1  0.18086004  0.00828708  0.25955949  1  0  -0.159231  0  3.759194  0  0  -0.185983  0  4.018583  0  0  -0.184322  0  4.035325  0  0  -0.105923  -0.186327  0  4.0067  0
C  C50  1  0.68586677  0.22295721  0.70082590  1  0  0.279344  0  3.849607  0  0  0.260178  0  4.113829  0  0  0.279112  0  4.124924  0  0  0.098209  0.248554  0  4.105134  0
C  C51  1  0.31411767  0.77703944  0.29915962  1  0  0.279242  0  3.850118  0  0  0.260135  0  4.114255  0  0  0.279075  0  4.125347  0  0  0.098221  0.248509  0  4.105562  0
C  C52  1  0.23759419  0.63965701  0.81693525  1  0  -0.151635  0  3.654704  0  0  -0.195146  0  3.904014  0  0  -0.197326  0  3.917308  0  0  -0.166315  -0.193648  0  3.895801  0
C  C53  1  0.76238240  0.36034017  0.18307470  1  0  -0.15172  0  3.654497  0  0  -0.19501  0  3.903773  0  0  -0.197181  0  3.917065  0  0  -0.166274  -0.193495  0  3.895574  0
C  C54  1  0.21090098  0.01412468  0.59548885  1  0  -0.080538  0  3.606122  0  0  -0.176682  0  3.871693  0  0  -0.170281  0  3.875651  0  0  -0.140875  -0.18085  0  3.868939  0
C  C55  1  0.78908349  0.98588271  0.40451193  1  0  -0.080406  0  3.605389  0  0  -0.176551  0  3.870958  0  0  -0.170155  0  3.874914  0  0  -0.140807  -0.180707  0  3.868186  0
C  C56  1  0.29306946  0.31152059  0.78680504  1  0  0.182797  0  3.645744  0  0  0.125928  0  3.913828  0  0  0.147541  0  3.921237  0  0  0.088491  0.110955  0  3.90931  0
C  C57  1  0.70689882  0.68848294  0.21317928  1  0  0.182652  0  3.645877  0  0  0.125806  0  3.913926  0  0  0.147411  0  3.921344  0  0  0.088377  0.11084  0  3.909402  0
C  C58  1  0.61754952  0.98167263  0.81203853  1  0  -0.103619  0  3.835563  0  0  -0.11777  0  4.098404  0  0  -0.124598  0  4.121465  0  0  -0.118649  -0.113202  0  4.083727  0
C  C59  1  0.38244097  0.01832210  0.18794557  1  0  -0.10366  0  3.835623  0  0  -0.117796  0  4.098455  0  0  -0.124623  0  4.121514  0  0  -0.118699  -0.113227  0  4.083781  0
C  C60  1  0.25676437  0.58250336  0.91330787  1  0  -0.14145  0  3.696692  0  0  -0.179042  0  3.964528  0  0  -0.178795  0  3.977154  0  0  -0.159689  -0.17905  0  3.955439  0
C  C61  1  0.74321029  0.41748086  0.08669973  1  0  -0.141546  0  3.696912  0  0  -0.179412  0  3.96514  0  0  -0.179179  0  3.977785  0  0  -0.159795  -0.179391  0  3.955968  0
C  C62  1  0.10409176  0.82392186  0.98781644  1  0  -0.328759  0  3.666948  0  0  -0.395485  0  3.910545  0  0  -0.396687  0  3.918423  0  0  -0.237401  -0.394458  0  3.905029  0
C  C63  1  0.89595318  0.17607406  0.01218276  1  0  -0.328728  0  3.666861  0  0  -0.39535  0  3.910495  0  0  -0.396548  0  3.918374  0  0  -0.237378  -0.394331  0  3.904984  0
S  S64  1  0.36081608  0.69857659  0.99497316  1  0  -0.031051  0  2.397438  0  0  -0.010047  0  2.755981  0  0  -0.014564  0  2.755824  0  0  -0.0344  -0.006812  0  2.756045  0
S  S65  1  0.63922292  0.30141218  0.00503240  1  0  -0.030989  0  2.397819  0  0  -0.009929  0  2.756384  0  0  -0.014447  0  2.75623  0  0  -0.034398  -0.006695  0  2.756446  0
N  N66  1  0.30273016  0.42721900  0.74045574  1  0  -0.283903  0  3.388507  0  0  -0.215715  0  3.625009  0  0  -0.23357  0  3.635883  0  0  -0.379374  -0.203795  0  3.617734  0
N  N67  1  0.69726631  0.57278767  0.25953403  1  0  -0.284048  0  3.38839  0  0  -0.215871  0  3.624924  0  0  -0.233717  0  3.635812  0  0  -0.379444  -0.203951  0  3.617651  0
O  O68  1  0.72054490  0.33169486  0.65129663  1  0  -0.606435  0  1.964599  0  0  -0.566889  0  2.197806  0  0  -0.588838  0  2.192753  0  0  -0.371487  -0.551646  0  2.200064  0
O  O69  1  0.27947574  0.66831391  0.34869869  1  0  -0.606272  0  1.96502  0  0  -0.566801  0  2.19824  0  0  -0.588729  0  2.193173  0  0  -0.37139  -0.55156  0  2.2005  0
O  O70  1  0.11484750  0.57029740  0.59363598  1  0  -0.751194  0  1.963101  0  0  -0.697042  0  2.200881  0  0  -0.718382  0  2.184149  0  0  -0.427575  -0.681992  0  2.211694  0
O  O71  1  0.88518534  0.42969943  0.40636208  1  0  -0.751409  0  1.963073  0  0  -0.697248  0  2.200929  0  0  -0.718588  0  2.184189  0  0  -0.427726  -0.682195  0  2.211743  0
O  O72  1  0.04226736  0.12588580  0.61651787  1  0  -0.286876  0  2.410489  0  0  -0.212461  0  2.65696  0  0  -0.230046  0  2.661149  0  0  -0.235005  -0.200146  0  2.653745  0
O  O73  1  0.95775336  0.87411986  0.38348426  1  0  -0.286845  0  2.410281  0  0  -0.212426  0  2.656759  0  0  -0.230005  0  2.660944  0  0  -0.234956  -0.200108  0  2.653546  0
O  O74  1  0.83033038  0.68586740  0.68483150  1  0  -0.622032  0  1.972151  0  0  -0.565701  0  2.195079  0  0  -0.591503  0  2.18619  0  0  -0.30983  -0.547201  0  2.199503  0
O  O75  1  0.16968861  0.31410822  0.31517341  1  0  -0.621976  0  1.971778  0  0  -0.56555  0  2.194683  0  0  -0.591355  0  2.185787  0  0  -0.309784  -0.547052  0  2.199105  0
O  O76  1  0.44688728  0.25967608  0.46040465  1  0  -0.885308  0  1.754696  0  0  -0.838867  0  1.91064  0  0  -0.856205  0  1.879642  0  0  -0.670035  -0.826435  0  1.932241  0
O  O77  1  0.55311730  0.74033838  0.53960163  1  0  -0.885463  0  1.754504  0  0  -0.838976  0  1.910641  0  0  -0.856304  0  1.879641  0  0  -0.670126  -0.826541  0  1.932242  0
