# generated using pymatgen
data_HgH22(C6S)2
_symmetry_space_group_name_H-M   'P 1'
_cell_length_a   6.55412618
_cell_length_b   10.39751496
_cell_length_c   10.59703920
_cell_angle_alpha   89.42663968
_cell_angle_beta   83.05288035
_cell_angle_gamma   81.15780363
_symmetry_Int_Tables_number   1
_chemical_formula_structural   HgH22(C6S)2
_chemical_formula_sum   'Hg2 H44 C24 S4'
_cell_volume   708.30397845
_cell_formula_units_Z   2
loop_
 _symmetry_equiv_pos_site_id
 _symmetry_equiv_pos_as_xyz
  1  'x, y, z'
loop_
 _atom_site_type_symbol
 _atom_site_label
 _atom_site_symmetry_multiplicity
 _atom_site_fract_x
 _atom_site_fract_y
 _atom_site_fract_z
 _atom_site_occupancy
 _atom_site_hle17_bader_spin_density
 _atom_site_hle17_ddec_charge
 _atom_site_hle17_ddec_spin_density
 _atom_site_hle17_ddec_sum_bond_order
 _atom_site_hle17_magmom
 _atom_site_hse06_10hf_bader_spin_density
 _atom_site_hse06_10hf_ddec_charge
 _atom_site_hse06_10hf_ddec_spin_density
 _atom_site_hse06_10hf_ddec_sum_bond_order
 _atom_site_hse06_10hf_magmom
 _atom_site_hse06_bader_spin_density
 _atom_site_hse06_ddec_charge
 _atom_site_hse06_ddec_spin_density
 _atom_site_hse06_ddec_sum_bond_order
 _atom_site_hse06_magmom
 _atom_site_pbe_bader_spin_density
 _atom_site_pbe_cm5_charge
 _atom_site_pbe_ddec_charge
 _atom_site_pbe_ddec_spin_density
 _atom_site_pbe_ddec_sum_bond_order
 _atom_site_pbe_magmom
Hg  Hg0  1  0.22093501  0.54849346  0.56760493  1  0  0.44965  0  2.169818  0  0  0.336342  0  2.641938  0  0  0.371046  0  2.622166  0  0  0.393025  0.313045  0  2.654734  0
Hg  Hg1  1  0.77906573  0.45150844  0.43239507  1  0  0.449633  0  2.169863  0  0  0.336318  0  2.641998  0  0  0.371023  0  2.622226  0  0  0.393014  0.313022  0  2.654795  0
H  H2  1  0.62003707  0.66381363  0.68634579  1  0  0.049165  0  0.967902  0  0  0.064742  0  1.029905  0  0  0.064996  0  1.03075  0  0  0.07836  0.064586  0  1.02916  0
H  H3  1  0.37997156  0.33618725  0.31365464  1  0  0.049211  0  0.967895  0  0  0.064777  0  1.029901  0  0  0.06503  0  1.030745  0  0  0.078397  0.064629  0  1.029149  0
H  H4  1  0.25285641  0.70777113  0.77969663  1  0  0.056166  0  0.964787  0  0  0.073158  0  1.035146  0  0  0.073988  0  1.034678  0  0  0.076579  0.072412  0  1.035679  0
H  H5  1  0.74715061  0.29223749  0.22029721  1  0  0.056158  0  0.964694  0  0  0.073165  0  1.035088  0  0  0.073997  0  1.034617  0  0  0.076583  0.072418  0  1.035624  0
H  H6  1  0.30654644  0.60565804  0.90940793  1  0  0.063857  0  0.951558  0  0  0.083249  0  1.013135  0  0  0.083933  0  1.013749  0  0  0.084194  0.082644  0  1.012843  0
H  H7  1  0.69344910  0.39434680  0.09058860  1  0  0.063752  0  0.951566  0  0  0.083208  0  1.01312  0  0  0.083889  0  1.013737  0  0  0.084189  0.082607  0  1.012833  0
H  H8  1  0.48168968  0.85910712  0.84182263  1  0  0.059705  0  0.937197  0  0  0.082212  0  0.993314  0  0  0.082654  0  0.994036  0  0  0.087528  0.081911  0  0.992636  0
H  H9  1  0.51832975  0.14089367  0.15817614  1  0  0.059766  0  0.937097  0  0  0.08225  0  0.993218  0  0  0.082688  0  0.993946  0  0  0.087554  0.081952  0  0.992538  0
H  H10  1  0.29240030  0.83787391  0.97065248  1  0  0.060541  0  0.953194  0  0  0.080943  0  1.012196  0  0  0.081433  0  1.013014  0  0  0.087448  0.080529  0  1.011757  0
H  H11  1  0.70760381  0.16213378  0.02934345  1  0  0.060545  0  0.95313  0  0  0.080924  0  1.012148  0  0  0.081413  0  1.012971  0  0  0.087442  0.080513  0  1.011709  0
H  H12  1  0.54915236  0.68056726  0.07126014  1  0  0.055121  0  0.965419  0  0  0.067334  0  1.041949  0  0  0.068698  0  1.041476  0  0  0.076705  0.066343  0  1.042283  0
H  H13  1  0.45083827  0.31943180  0.92874056  1  0  0.055169  0  0.965492  0  0  0.06732  0  1.042054  0  0  0.068685  0  1.04158  0  0  0.076698  0.066322  0  1.042393  0
H  H14  1  0.64806555  0.82717485  0.04002028  1  0  0.058036  0  0.962684  0  0  0.077122  0  1.025814  0  0  0.077753  0  1.026227  0  0  0.08664  0.076582  0  1.025648  0
H  H15  1  0.35192979  0.17281642  0.95998587  1  0  0.058001  0  0.962738  0  0  0.077085  0  1.025827  0  0  0.077718  0  1.026239  0  0  0.086626  0.076546  0  1.025659  0
H  H16  1  0.86459599  0.73345549  0.84550277  1  0  0.056338  0  0.95601  0  0  0.072935  0  1.025763  0  0  0.073133  0  1.027162  0  0  0.08368  0.072661  0  1.024935  0
H  H17  1  0.13541021  0.26654157  0.15450825  1  0  0.056347  0  0.955918  0  0  0.072969  0  1.0257  0  0  0.07317  0  1.027097  0  0  0.083723  0.072696  0  1.024872  0
H  H18  1  0.91580324  0.63116983  0.97585676  1  0  0.061102  0  0.936956  0  0  0.08348  0  0.991449  0  0  0.083717  0  0.992687  0  0  0.087189  0.083202  0  0.990777  0
H  H19  1  0.08419182  0.36882243  0.02415223  1  0  0.061154  0  0.936839  0  0  0.083511  0  0.991423  0  0  0.08375  0  0.992659  0  0  0.087187  0.083233  0  0.99075  0
H  H20  1  0.69065597  0.47959292  0.90926472  1  0  0.063883  0  0.949741  0  0  0.08344  0  1.011792  0  0  0.084447  0  1.011766  0  0  0.084858  0.082621  0  1.011971  0
H  H21  1  0.30933820  0.52040416  0.09073483  1  0  0.063811  0  0.949755  0  0  0.083354  0  1.011837  0  0  0.084359  0  1.011814  0  0  0.084818  0.082537  0  1.012012  0
H  H22  1  0.87805095  0.50587114  0.78069399  1  0  0.058783  0  0.955141  0  0  0.075659  0  1.024659  0  0  0.076744  0  1.023538  0  0  0.076906  0.074844  0  1.025468  0
H  H23  1  0.12194862  0.49412884  0.21930895  1  0  0.058745  0  0.955221  0  0  0.075648  0  1.024703  0  0  0.076734  0  1.023581  0  0  0.076918  0.074832  0  1.025515  0
H  H24  1  0.11059481  0.68865525  0.30412024  1  0  0.042951  0  0.964602  0  0  0.058046  0  1.028274  0  0  0.057848  0  1.029491  0  0  0.081837  0.058163  0  1.027541  0
H  H25  1  0.88940632  0.31134471  0.69588164  1  0  0.042935  0  0.964614  0  0  0.058033  0  1.028275  0  0  0.057836  0  1.029492  0  0  0.081837  0.058148  0  1.02754  0
H  H26  1  0.10185019  0.92619004  0.47316718  1  0  0.06299  0  0.967422  0  0  0.082378  0  1.030052  0  0  0.083139  0  1.030481  0  0  0.082802  0.081891  0  1.02949  0
H  H27  1  0.89814267  0.07381288  0.52683144  1  0  0.06297  0  0.967455  0  0  0.082407  0  1.030045  0  0  0.083174  0  1.030473  0  0  0.082788  0.0819  0  1.029509  0
H  H28  1  0.31044065  0.79773476  0.43996113  1  0  0.060899  0  0.954472  0  0  0.077938  0  1.021244  0  0  0.078881  0  1.020821  0  0  0.074775  0.077175  0  1.021617  0
H  H29  1  0.68955718  0.20226620  0.56004096  1  0  0.06086  0  0.954481  0  0  0.077911  0  1.021263  0  0  0.078853  0  1.020847  0  0  0.074771  0.077149  0  1.021634  0
H  H30  1  0.36039005  0.85635717  0.21510932  1  0  0.060206  0  0.950685  0  0  0.079592  0  1.015387  0  0  0.079773  0  1.016958  0  0  0.085539  0.079456  0  1.014428  0
H  H31  1  0.63961047  0.14363890  0.78489076  1  0  0.060242  0  0.950699  0  0  0.079599  0  1.015434  0  0  0.079797  0  1.016985  0  0  0.085544  0.079464  0  1.014471  0
H  H32  1  0.36015213  0.99622321  0.30855694  1  0  0.058572  0  0.939715  0  0  0.077315  0  1.001299  0  0  0.078425  0  1.0009  0  0  0.084999  0.076781  0  1.000976  0
H  H33  1  0.63984780  0.00377576  0.69144032  1  0  0.058563  0  0.939681  0  0  0.077311  0  1.001261  0  0  0.078421  0  1.000866  0  0  0.085  0.076777  0  1.000939  0
H  H34  1  0.99789878  0.08023115  0.27462292  1  0  0.055332  0  0.944617  0  0  0.072729  0  1.01231  0  0  0.073408  0  1.012639  0  0  0.081257  0.072424  0  1.011752  0
H  H35  1  0.00209937  0.91976881  0.72537539  1  0  0.055314  0  0.944569  0  0  0.072722  0  1.012267  0  0  0.073393  0  1.012604  0  0  0.081237  0.072415  0  1.01171  0
H  H36  1  0.14708391  0.04375013  0.12538576  1  0  0.058527  0  0.949333  0  0  0.079561  0  1.009073  0  0  0.079843  0  1.010157  0  0  0.086752  0.079228  0  1.008524  0
H  H37  1  0.85291617  0.95624789  0.87461433  1  0  0.058487  0  0.949347  0  0  0.079538  0  1.00908  0  0  0.079821  0  1.010159  0  0  0.086737  0.079204  0  1.008531  0
H  H38  1  0.80512902  0.96188804  0.13751737  1  0  0.055259  0  0.965143  0  0  0.072152  0  1.032606  0  0  0.072814  0  1.032912  0  0  0.085827  0.071626  0  1.032461  0
H  H39  1  0.19487318  0.03810799  0.86247694  1  0  0.055288  0  0.965143  0  0  0.072224  0  1.032567  0  0  0.07289  0  1.032872  0  0  0.085866  0.071696  0  1.032423  0
H  H40  1  0.01522451  0.83294827  0.11392319  1  0  0.05676  0  0.93903  0  0  0.079359  0  0.995979  0  0  0.079718  0  0.996926  0  0  0.086694  0.078871  0  0.995532  0
H  H41  1  0.98478026  0.16704970  0.88607376  1  0  0.056806  0  0.939022  0  0  0.079419  0  0.995966  0  0  0.079779  0  0.996912  0  0  0.086729  0.078932  0  0.995514  0
H  H42  1  0.74431311  0.77301035  0.27905018  1  0  0.069693  0  0.949971  0  0  0.083995  0  1.018519  0  0  0.084806  0  1.01928  0  0  0.081354  0.0833  0  1.018197  0
H  H43  1  0.25568882  0.22698667  0.72094602  1  0  0.069722  0  0.949982  0  0  0.084006  0  1.018528  0  0  0.084818  0  1.019288  0  0  0.081362  0.083312  0  1.018201  0
H  H44  1  0.75363459  0.91401003  0.36926860  1  0  0.068955  0  0.922048  0  0  0.091009  0  0.975506  0  0  0.091729  0  0.975913  0  0  0.087108  0.090389  0  0.97529  0
H  H45  1  0.24636407  0.08598797  0.63072687  1  0  0.069023  0  0.921977  0  0  0.091076  0  0.975426  0  0  0.091795  0  0.975833  0  0  0.087158  0.090456  0  0.97521  0
C  C46  1  0.56407502  0.59915938  0.76128225  1  0  0.042501  0  3.614151  0  0  0.042163  0  3.8582  0  0  0.044748  0  3.875451  0  0  -0.088655  0.040458  0  3.846239  0
C  C47  1  0.43592594  0.40084155  0.23871775  1  0  0.042437  0  3.614105  0  0  0.042152  0  3.858146  0  0  0.044724  0  3.875439  0  0  -0.088688  0.040449  0  3.846167  0
C  C48  1  0.37354133  0.67317766  0.84127010  1  0  -0.138825  0  3.695079  0  0  -0.181783  0  3.949137  0  0  -0.183355  0  3.96419  0  0  -0.173874  -0.180489  0  3.938745  0
C  C49  1  0.62645570  0.32682717  0.15872822  1  0  -0.138654  0  3.694841  0  0  -0.181747  0  3.949021  0  0  -0.183321  0  3.964073  0  0  -0.173914  -0.180468  0  3.938658  0
C  C50  1  0.43100292  0.78766394  0.91188515  1  0  -0.099388  0  3.679494  0  0  -0.135855  0  3.933905  0  0  -0.136941  0  3.948801  0  0  -0.167245  -0.134963  0  3.923554  0
C  C51  1  0.56900032  0.21234084  0.08811087  1  0  -0.099468  0  3.679407  0  0  -0.135883  0  3.933793  0  0  -0.136968  0  3.948685  0  0  -0.167235  -0.134997  0  3.923448  0
C  C52  1  0.60493710  0.74288617  0.99369839  1  0  -0.116497  0  3.699223  0  0  -0.156453  0  3.960759  0  0  -0.157466  0  3.97502  0  0  -0.174452  -0.155525  0  3.950802  0
C  C53  1  0.39506443  0.25711185  0.00630537  1  0  -0.116605  0  3.699505  0  0  -0.15639  0  3.960838  0  0  -0.157405  0  3.975102  0  0  -0.174409  -0.155458  0  3.95088  0
C  C54  1  0.79562238  0.66757270  0.91456319  1  0  -0.101435  0  3.685129  0  0  -0.138688  0  3.942056  0  0  -0.140211  0  3.958045  0  0  -0.167257  -0.137479  0  3.930924  0
C  C55  1  0.20437799  0.33242341  0.08544351  1  0  -0.101357  0  3.684773  0  0  -0.138759  0  3.94187  0  0  -0.140278  0  3.957851  0  0  -0.167303  -0.137551  0  3.930736  0
C  C56  1  0.73999334  0.55361924  0.84194738  1  0  -0.125655  0  3.659825  0  0  -0.167657  0  3.915607  0  0  -0.168824  0  3.929257  0  0  -0.170746  -0.166684  0  3.906199  0
C  C57  1  0.26000623  0.44638074  0.15805555  1  0  -0.125617  0  3.659812  0  0  -0.167585  0  3.915602  0  0  -0.168752  0  3.929252  0  0  -0.170725  -0.166607  0  3.906193  0
C  C58  1  0.02646149  0.76733843  0.36793915  1  0  0.051376  0  3.617304  0  0  0.0519  0  3.859757  0  0  0.054979  0  3.876601  0  0  -0.085644  0.049827  0  3.848139  0
C  C59  1  0.97353947  0.23266249  0.63206084  1  0  0.051375  0  3.617401  0  0  0.051906  0  3.859877  0  0  0.054987  0  3.876718  0  0  -0.085633  0.049835  0  3.848254  0
C  C60  1  0.17969671  0.85592373  0.39907640  1  0  -0.142786  0  3.694394  0  0  -0.187095  0  3.949884  0  0  -0.188602  0  3.964467  0  0  -0.175776  -0.185902  0  3.939818  0
C  C61  1  0.82029963  0.14407723  0.60092390  1  0  -0.142676  0  3.694358  0  0  -0.187056  0  3.949897  0  0  -0.188566  0  3.964491  0  0  -0.175752  -0.185852  0  3.939834  0
C  C62  1  0.26077046  0.92761073  0.28099598  1  0  -0.099201  0  3.678108  0  0  -0.138844  0  3.938874  0  0  -0.140107  0  3.95422  0  0  -0.16901  -0.137984  0  3.928356  0
C  C63  1  0.73922967  0.07238728  0.71900222  1  0  -0.099272  0  3.6781  0  0  -0.138885  0  3.938873  0  0  -0.140158  0  3.954221  0  0  -0.169032  -0.138023  0  3.92835  0
C  C64  1  0.08361884  0.99945731  0.21339508  1  0  -0.10863  0  3.689177  0  0  -0.148314  0  3.950066  0  0  -0.149219  0  3.965013  0  0  -0.16926  -0.147578  0  3.939688  0
C  C65  1  0.91638084  0.00054265  0.78660313  1  0  -0.108534  0  3.689134  0  0  -0.148233  0  3.950049  0  0  -0.149132  0  3.965002  0  0  -0.169211  -0.147494  0  3.939663  0
C  C66  1  0.93394762  0.90802821  0.18308428  1  0  -0.103878  0  3.691017  0  0  -0.143393  0  3.950863  0  0  -0.144714  0  3.966112  0  0  -0.167297  -0.142208  0  3.940342  0
C  C67  1  0.06605405  0.09196978  0.81691381  1  0  -0.103982  0  3.691069  0  0  -0.143574  0  3.951003  0  0  -0.144901  0  3.966256  0  0  -0.167418  -0.142387  0  3.94048  0
C  C68  1  0.84776151  0.84079630  0.30275096  1  0  -0.132137  0  3.659515  0  0  -0.170559  0  3.9109  0  0  -0.172284  0  3.925254  0  0  -0.169847  -0.169283  0  3.901174  0
C  C69  1  0.15224018  0.15920169  0.69724619  1  0  -0.132238  0  3.659535  0  0  -0.170631  0  3.910952  0  0  -0.172358  0  3.92531  0  0  -0.169864  -0.169356  0  3.901224  0
S  S70  1  0.50418550  0.45536830  0.68224182  1  0  -0.333148  0  2.22767  0  0  -0.279356  0  2.617856  0  0  -0.299659  0  2.614315  0  0  -0.167806  -0.265577  0  2.61988  0
S  S71  1  0.49581636  0.54463553  0.31775714  1  0  -0.333146  0  2.227598  0  0  -0.279388  0  2.617822  0  0  -0.299671  0  2.614252  0  0  -0.167795  -0.26561  0  2.619853  0
S  S72  1  0.91673443  0.69104444  0.51206070  1  0  -0.33478  0  2.229093  0  0  -0.280733  0  2.615095  0  0  -0.301256  0  2.611957  0  0  -0.17519  -0.267274  0  2.61589  0
S  S73  1  0.08326499  0.30895650  0.48793940  1  0  -0.334773  0  2.229117  0  0  -0.280725  0  2.615117  0  0  -0.301246  0  2.611978  0  0  -0.175196  -0.267267  0  2.615913  0
