# generated using pymatgen
data_CoH21C26(NO2)2
_symmetry_space_group_name_H-M   'P 1'
_cell_length_a   7.30548354
_cell_length_b   14.00143653
_cell_length_c   24.97119198
_cell_angle_alpha   107.45168572
_cell_angle_beta   89.99909548
_cell_angle_gamma   89.99933010
_symmetry_Int_Tables_number   1
_chemical_formula_structural   CoH21C26(NO2)2
_chemical_formula_sum   'Co4 H84 C104 N8 O16'
_cell_volume   2436.66393270
_cell_formula_units_Z   4
loop_
 _symmetry_equiv_pos_site_id
 _symmetry_equiv_pos_as_xyz
  1  'x, y, z'
loop_
 _atom_site_type_symbol
 _atom_site_label
 _atom_site_symmetry_multiplicity
 _atom_site_fract_x
 _atom_site_fract_y
 _atom_site_fract_z
 _atom_site_occupancy
 _atom_site_pbe_bader_charge
 _atom_site_pbe_bader_spin_density
 _atom_site_pbe_cm5_charge
 _atom_site_pbe_ddec_charge
 _atom_site_pbe_ddec_spin_density
 _atom_site_pbe_ddec_sum_bond_order
 _atom_site_pbe_magmom
Co  Co0  1  0.61965646  0.44428112  0.48813324  1  1.194276  2.606913  0.614177  0.766947  2.822814  2.734859  2.591
Co  Co1  1  0.61961873  0.55572755  0.01187375  1  1.194171  2.606871  0.614118  0.766824  2.822796  2.734866  2.591
Co  Co2  1  0.38035494  0.55578966  0.51188748  1  1.196803  2.607093  0.613903  0.766692  2.822787  2.733759  2.591
Co  Co3  1  0.38034202  0.44420679  0.98811884  1  1.196479  2.607151  0.614111  0.767248  2.82284  2.733948  2.591
H  H4  1  0.05572321  0.56968208  0.61774912  1  0.141652  0.000511  0.105668  0.116818  0.000286  1.049047  0.0
H  H5  1  0.05574362  0.43032244  0.88224881  1  0.141541  0.000511  0.105696  0.116897  0.000286  1.048925  0.0
H  H6  1  0.94425534  0.43033721  0.38226861  1  0.141613  0.000511  0.105683  0.116942  0.000286  1.048943  0.0
H  H7  1  0.94420207  0.56965449  0.11774776  1  0.141228  0.00051  0.105685  0.116969  0.000285  1.048996  0.0
H  H8  1  0.20997659  0.66233298  0.70604307  1  0.067827  0.000161  0.1035  0.107271  6.7e-05  0.991677  0.0
H  H9  1  0.20994758  0.33769692  0.79395617  1  0.06784  0.000161  0.103517  0.107327  6.7e-05  0.991719  0.0
H  H10  1  0.79004439  0.33770758  0.29396403  1  0.067823  0.000161  0.103518  0.107342  6.7e-05  0.991698  0.0
H  H11  1  0.79000222  0.66229668  0.20604946  1  0.068385  0.000161  0.103595  0.107558  6.7e-05  0.991462  0.0
H  H12  1  0.72648117  0.84336418  0.75819306  1  0.03134  0.000157  0.092206  0.092296  8e-05  1.038345  0.0
H  H13  1  0.72640953  0.15664751  0.74183487  1  0.030754  0.000157  0.092102  0.092216  8e-05  1.038006  0.0
H  H14  1  0.27362878  0.15669221  0.24184379  1  0.031975  0.000157  0.092164  0.092262  8e-05  1.038214  0.0
H  H15  1  0.27358818  0.84327286  0.25816351  1  0.031886  0.000157  0.092032  0.092042  8e-05  1.03853  0.0
H  H16  1  0.56999934  0.74557787  0.67141936  1  0.03462  0.00021  0.096462  0.091618  0.000105  1.044485  0.0
H  H17  1  0.57000858  0.25443100  0.82861328  1  0.034137  0.00021  0.096476  0.091625  0.000106  1.044358  0.0
H  H18  1  0.43001342  0.25446819  0.32862066  1  0.034651  0.00021  0.096449  0.091488  0.000105  1.044412  0.0
H  H19  1  0.42998502  0.74548801  0.17138929  1  0.035295  0.00021  0.096507  0.091642  0.000105  1.044224  0.0
H  H20  1  0.17566581  0.92014885  0.74068445  1  0.031452  1e-06  0.086502  0.120765  -9e-06  1.026555  0.0
H  H21  1  0.17567563  0.07984932  0.75931391  1  0.031467  1e-06  0.086475  0.120762  -9e-06  1.026766  0.0
H  H22  1  0.82439897  0.07986996  0.25934162  1  0.030604  1e-06  0.086415  0.120606  -9e-06  1.026672  0.0
H  H23  1  0.82436315  0.92011553  0.24065391  1  0.031128  1e-06  0.086533  0.120734  -9e-06  1.026587  0.0
H  H24  1  0.34037454  0.82818765  0.74197757  1  0.024095  1.8e-05  0.089397  0.1217  1e-05  1.024395  0.0
H  H25  1  0.34036741  0.17178345  0.75801530  1  0.024486  1.8e-05  0.089426  0.121822  1e-05  1.024544  0.0
H  H26  1  0.65971488  0.17181046  0.25802959  1  0.024193  1.8e-05  0.089331  0.121594  1e-05  1.024569  0.0
H  H27  1  0.65966726  0.82817843  0.24197647  1  0.024396  1.8e-05  0.089439  0.121736  1e-05  1.024435  0.0
H  H28  1  0.31034778  0.93482281  0.80196086  1  0.013302  -5.6e-05  0.084022  0.116096  -4e-05  1.007562  0.0
H  H29  1  0.31033244  0.06517918  0.69803427  1  0.013304  -5.6e-05  0.084035  0.116114  -4e-05  1.00766  0.0
H  H30  1  0.68975670  0.06515927  0.19805776  1  0.013771  -5.6e-05  0.084085  0.116153  -4e-05  1.007781  0.0
H  H31  1  0.68968717  0.93483604  0.30194838  1  0.013312  -5.6e-05  0.084042  0.116141  -4e-05  1.007726  0.0
H  H32  1  0.84982839  0.86758959  0.84524868  1  0.042179  2.6e-05  0.089312  0.123684  1.7e-05  1.01033  0.0
H  H33  1  0.84978656  0.13244141  0.65476773  1  0.041919  2.6e-05  0.08927  0.123578  1.7e-05  1.010373  0.0
H  H34  1  0.15029251  0.13240702  0.15478226  1  0.041516  2.6e-05  0.0893  0.123741  1.7e-05  1.010445  0.0
H  H35  1  0.15024126  0.86762335  0.34522721  1  0.042014  2.6e-05  0.089258  0.123668  1.7e-05  1.010255  0.0
H  H36  1  0.91525726  0.95808784  0.81162984  1  0.011499  -4.6e-05  0.085325  0.115356  -3.3e-05  1.010964  0.0
H  H37  1  0.91521146  0.04193755  0.68836974  1  0.011842  -4.6e-05  0.085212  0.115207  -3.3e-05  1.011099  0.0
H  H38  1  0.08486775  0.04194002  0.18839967  1  0.012244  -4.6e-05  0.085272  0.115333  -3.3e-05  1.011318  0.0
H  H39  1  0.08479994  0.95807838  0.31158778  1  0.011742  -4.6e-05  0.085236  0.115183  -3.3e-05  1.011084  0.0
H  H40  1  0.04714091  0.94110572  0.86809992  1  -0.008479  2.9e-05  0.085613  0.115079  8e-06  1.035604  0.0
H  H41  1  0.04707039  0.05891440  0.63189413  1  -0.008649  2.9e-05  0.085482  0.115081  8e-06  1.035697  0.0
H  H42  1  0.95303748  0.05886737  0.13191727  1  -0.008631  2.9e-05  0.085621  0.115156  8e-06  1.035594  0.0
H  H43  1  0.95296702  0.94116533  0.36807916  1  -0.009319  2.9e-05  0.085673  0.115217  8e-06  1.035604  0.0
H  H44  1  0.90897821  0.68485059  0.82603074  1  0.068866  0.000138  0.102075  0.105068  5.7e-05  1.000718  0.0
H  H45  1  0.90900263  0.31517652  0.67397435  1  0.069184  0.000138  0.102039  0.104985  5.7e-05  1.000871  0.0
H  H46  1  0.09104414  0.31514614  0.17395617  1  0.069034  0.000138  0.102066  0.105021  5.7e-05  1.000954  0.0
H  H47  1  0.09106351  0.68492473  0.32606804  1  0.068355  0.000138  0.102141  0.10508  5.7e-05  1.00081  0.0
H  H48  1  0.02158527  0.58783258  0.88738273  1  0.107823  0.000406  0.108175  0.112761  0.000213  1.019858  0.0
H  H49  1  0.02162461  0.41214480  0.61259423  1  0.107869  0.000405  0.108235  0.112704  0.000213  1.01998  0.0
H  H50  1  0.97840149  0.41209694  0.11257466  1  0.109608  0.000406  0.108087  0.112707  0.000213  1.020106  0.0
H  H51  1  0.97841827  0.58789423  0.38741143  1  0.10906  0.000407  0.108116  0.112805  0.000213  1.019994  0.0
H  H52  1  0.55764699  0.71471971  0.88804647  1  0.067955  0.000384  0.104176  0.10973  0.000195  0.997698  0.0
H  H53  1  0.55768769  0.28526910  0.61196020  1  0.068311  0.000384  0.10411  0.109729  0.000195  0.997582  0.0
H  H54  1  0.44236989  0.28519774  0.11195384  1  0.068814  0.000384  0.104135  0.109713  0.000195  0.997685  0.0
H  H55  1  0.44237572  0.71481626  0.38807406  1  0.068545  0.000384  0.104175  0.109643  0.000196  0.997816  0.0
H  H56  1  0.44887734  0.80855951  0.82448626  1  0.051421  0.000148  0.093767  0.090706  7.6e-05  1.039127  0.0
H  H57  1  0.44887010  0.19142200  0.67551576  1  0.050981  0.000148  0.093738  0.090633  7.6e-05  1.039049  0.0
H  H58  1  0.55121072  0.19137200  0.17551109  1  0.050807  0.000148  0.093747  0.090633  7.6e-05  1.039228  0.0
H  H59  1  0.55118784  0.80864586  0.32450691  1  0.051617  0.000148  0.09368  0.090549  7.6e-05  1.039169  0.0
H  H60  1  0.00373317  0.33974812  0.51678145  1  0.158458  0.000356  0.139904  0.111643  4e-06  1.017917  0.0
H  H61  1  0.00373781  0.66024882  0.98317227  1  0.15754  0.000355  0.140078  0.111676  4e-06  1.018155  0.0
H  H62  1  0.99627276  0.66030922  0.48316624  1  0.158084  0.000355  0.140071  0.111596  4e-06  1.018174  0.0
H  H63  1  0.99629549  0.33968295  0.01678547  1  0.159237  0.000356  0.139872  0.111486  4e-06  1.017916  0.0
H  H64  1  0.64034462  0.23667598  0.38114989  1  0.112493  0.000531  0.11483  0.107642  0.000156  1.043809  0.001
H  H65  1  0.64035698  0.76333391  0.11880673  1  0.113158  0.00053  0.114842  0.107676  0.000156  1.043786  0.001
H  H66  1  0.35951210  0.76335334  0.61883099  1  0.113683  0.00053  0.114846  0.107735  0.000156  1.043775  0.001
H  H67  1  0.35964620  0.23661319  0.88114103  1  0.112249  0.000532  0.114913  0.107874  0.000156  1.043709  0.001
H  H68  1  0.91288277  0.09241918  0.37236837  1  0.102532  0.000451  0.113995  0.108739  0.00018  1.061959  0.0
H  H69  1  0.91299288  0.90758199  0.12760760  1  0.102617  0.00045  0.114042  0.108646  0.00018  1.061946  0.0
H  H70  1  0.08689729  0.90760511  0.62761852  1  0.102529  0.00045  0.114097  0.108479  0.00018  1.062419  0.0
H  H71  1  0.08709654  0.09236511  0.87236420  1  0.10227  0.000451  0.11425  0.109127  0.00018  1.061811  0.0
H  H72  1  0.29534726  0.12653158  0.38694652  1  0.052226  -6e-06  0.105789  0.111085  -2.9e-05  1.00991  0.0
H  H73  1  0.29536443  0.87338447  0.11302404  1  0.052066  -6e-06  0.105821  0.111093  -2.9e-05  1.010009  0.0
H  H74  1  0.70445060  0.87330123  0.61299066  1  0.051789  -6e-06  0.105726  0.11091  -2.9e-05  1.010518  0.0
H  H75  1  0.70453335  0.12663183  0.88699322  1  0.052137  -6e-06  0.105789  0.110984  -2.9e-05  1.010412  0.0
H  H76  1  0.53887162  0.02528687  0.41090747  1  0.066309  1.6e-05  0.096531  0.087814  3e-06  1.043822  0.0
H  H77  1  0.53890434  0.97469647  0.08912231  1  0.065765  1.6e-05  0.096566  0.087796  3e-06  1.043657  0.0
H  H78  1  0.46084822  0.97457366  0.58908259  1  0.066626  1.6e-05  0.096539  0.087699  3e-06  1.043106  0.0
H  H79  1  0.46091405  0.02542798  0.91094741  1  0.066844  1.6e-05  0.096652  0.087932  3e-06  1.043424  0.0
H  H80  1  0.27274779  0.05464518  0.56951780  1  0.065752  1.3e-05  0.095782  0.086251  4e-06  1.055581  0.0
H  H81  1  0.27290249  0.94540648  0.93050624  1  0.066648  1.3e-05  0.09584  0.086525  4e-06  1.05564  0.0
H  H82  1  0.72722665  0.94558309  0.43053721  1  0.065724  1.3e-05  0.095785  0.086362  4e-06  1.05543  0.0
H  H83  1  0.72734161  0.05448156  0.06948259  1  0.065008  1.3e-05  0.095687  0.086313  4e-06  1.055433  0.0
H  H84  1  0.02966698  0.15393678  0.54450094  1  0.09935  1.3e-05  0.10788  0.115086  -7e-06  1.004776  0.0
H  H85  1  0.02983888  0.84607173  0.95547373  1  0.099628  1.3e-05  0.107822  0.114936  -7e-06  1.005223  0.0
H  H86  1  0.97023765  0.84621001  0.45549704  1  0.09932  1.3e-05  0.107944  0.115112  -7e-06  1.004696  0.0
H  H87  1  0.97042028  0.15377629  0.04447348  1  0.099145  1.3e-05  0.108179  0.115339  -7e-06  1.004652  0.0
C  C88  1  0.70545489  0.59564836  0.58622227  1  1.536653  -0.010226  0.210618  0.559304  -0.013473  4.178443  -0.009
C  C89  1  0.70543311  0.40436009  0.91379084  1  1.537445  -0.010228  0.210524  0.559228  -0.013474  4.17835  -0.009
C  C90  1  0.29457840  0.40439949  0.41380362  1  1.537318  -0.010222  0.210751  0.559551  -0.013474  4.178396  -0.009
C  C91  1  0.29453585  0.59558865  0.08620966  1  1.537685  -0.010231  0.210933  0.559677  -0.01348  4.177819  -0.009
C  C92  1  0.80211179  0.65173310  0.63883746  1  0.009955  0.010227  -0.022072  -0.037311  0.005451  3.979979  0.008
C  C93  1  0.80211455  0.34828856  0.86117529  1  0.01228  0.010229  -0.022109  -0.037215  0.005452  3.979896  0.008
C  C94  1  0.19789961  0.34830721  0.36118563  1  0.012597  0.010229  -0.022141  -0.037488  0.005452  3.980196  0.008
C  C95  1  0.19785989  0.65168019  0.13882199  1  0.009345  0.010227  -0.021923  -0.037035  0.005449  3.979677  0.008
C  C96  1  0.98254472  0.62825297  0.64918387  1  -0.016069  -0.001661  -0.078811  -0.077962  -0.002153  3.947984  -0.001
C  C97  1  0.98252974  0.37177617  0.85081318  1  -0.016626  -0.001659  -0.078799  -0.07801  -0.002151  3.947888  -0.001
C  C98  1  0.01746257  0.37179148  0.35082825  1  -0.017627  -0.001657  -0.078771  -0.078053  -0.002149  3.947817  -0.001
C  C99  1  0.01741869  0.62820652  0.14917710  1  -0.01742  -0.001662  -0.078928  -0.078249  -0.002156  3.947472  -0.001
C  C100  1  0.06960942  0.68195688  0.69857194  1  -0.066493  0.00157  -0.089436  -0.129393  0.000654  3.968496  0.001
C  C101  1  0.06958864  0.31806988  0.80142707  1  -0.066265  0.001569  -0.089638  -0.129508  0.000653  3.968519  0.001
C  C102  1  0.93040198  0.31808318  0.30144310  1  -0.066195  0.001569  -0.089609  -0.129454  0.000653  3.96819  0.001
C  C103  1  0.93036116  0.68191741  0.19856754  1  -0.067204  0.00157  -0.089555  -0.129627  0.000654  3.96809  0.001
C  C104  1  0.98169772  0.76120367  0.73836017  1  -0.079078  -0.003773  -0.006658  0.064156  -0.004046  3.913409  -0.002
C  C105  1  0.98168760  0.23880926  0.76164272  1  -0.078621  -0.003773  -0.006651  0.064063  -0.004045  3.913093  -0.002
C  C106  1  0.01832874  0.23883411  0.26165330  1  -0.078653  -0.003771  -0.006658  0.063922  -0.004043  3.912907  -0.002
C  C107  1  0.01828958  0.76116461  0.23835136  1  -0.078844  -0.003775  -0.006898  0.063572  -0.004048  3.912984  -0.002
C  C108  1  0.80053658  0.78338936  0.72794545  1  -0.048335  0.0014  -0.107771  -0.161007  0.000545  4.030131  0.001
C  C109  1  0.80052364  0.21662052  0.77207103  1  -0.047979  0.001401  -0.107565  -0.160695  0.000546  4.029458  0.001
C  C110  1  0.19950082  0.21665766  0.27207750  1  -0.048054  0.0014  -0.107798  -0.160904  0.000545  4.029852  0.001
C  C111  1  0.19947270  0.78332146  0.22792758  1  -0.047871  0.001401  -0.107376  -0.160274  0.000546  4.029633  0.001
C  C112  1  0.71167782  0.72902733  0.67894082  1  -0.038323  -0.002425  -0.092884  -0.099403  -0.002805  4.01822  -0.001
C  C113  1  0.71168574  0.27099248  0.82108007  1  -0.040429  -0.002422  -0.092935  -0.099708  -0.002803  4.018375  -0.001
C  C114  1  0.28833084  0.27101835  0.32108713  1  -0.040859  -0.002421  -0.092949  -0.099439  -0.002801  4.018607  -0.001
C  C115  1  0.28830512  0.72895848  0.17891998  1  -0.03789  -0.002426  -0.093126  -0.099785  -0.002805  4.018272  -0.001
C  C116  1  0.23872637  0.87991400  0.76743756  1  -0.071597  -0.00017  -0.240549  -0.412806  -0.000198  3.910719  0.0
C  C117  1  0.23872171  0.12007305  0.73255793  1  -0.072418  -0.00017  -0.240551  -0.412903  -0.000198  3.911314  0.0
C  C118  1  0.76134388  0.12007469  0.23257811  1  -0.071597  -0.00017  -0.240427  -0.412492  -0.000198  3.910875  0.0
C  C119  1  0.76129517  0.87992135  0.26742580  1  -0.071797  -0.00017  -0.240634  -0.412865  -0.000198  3.910942  0.0
C  C120  1  0.08905936  0.82370980  0.78945714  1  0.065352  -1e-06  -0.005324  0.152208  -0.000144  3.820301  0.0
C  C121  1  0.08906836  0.17628788  0.71054676  1  0.065891  -1e-06  -0.005151  0.152298  -0.000143  3.820239  0.0
C  C122  1  0.91099584  0.17627796  0.21055277  1  0.065372  -1e-06  -0.005053  0.152507  -0.000143  3.819785  0.0
C  C123  1  0.91094988  0.82372193  0.28945344  1  0.064665  -1e-06  -0.005032  0.152698  -0.000143  3.819558  0.0
C  C124  1  0.96728265  0.90204172  0.83071829  1  -0.041635  -0.000148  -0.240971  -0.416808  -0.000177  3.920377  0.0
C  C125  1  0.96725173  0.09797804  0.66928415  1  -0.041597  -0.000148  -0.240711  -0.416402  -0.000177  3.920135  0.0
C  C126  1  0.03283004  0.09795833  0.16930359  1  -0.042061  -0.000148  -0.240959  -0.416867  -0.000177  3.920874  0.0
C  C127  1  0.03277199  0.90206087  0.33069385  1  -0.041134  -0.000148  -0.240904  -0.416689  -0.000177  3.920303  0.0
C  C128  1  0.16873086  0.75667911  0.82211652  1  -0.008006  -0.003789  -0.003333  0.066493  -0.004075  3.898688  -0.002
C  C129  1  0.16872512  0.24333740  0.67789440  1  -0.007786  -0.003785  -0.003367  0.0665  -0.004071  3.89868  -0.002
C  C130  1  0.83131887  0.24330309  0.17788209  1  -0.008054  -0.003788  -0.003252  0.066657  -0.004074  3.898667  -0.002
C  C131  1  0.83130544  0.75673006  0.32213901  1  -0.008721  -0.003788  -0.003287  0.066433  -0.004073  3.898946  -0.002
C  C132  1  0.05177783  0.69206750  0.83958817  1  -0.04364  0.001557  -0.09238  -0.132786  0.000643  3.980478  0.001
C  C133  1  0.05179767  0.30795437  0.66041575  1  -0.044025  0.001556  -0.092275  -0.132836  0.000642  3.980443  0.001
C  C134  1  0.94825136  0.30790915  0.16039954  1  -0.043357  0.001556  -0.092381  -0.13281  0.000643  3.981144  0.001
C  C135  1  0.94827259  0.69214080  0.33962288  1  -0.042252  0.001557  -0.092566  -0.132878  0.000642  3.981003  0.001
C  C136  1  0.11465629  0.63709426  0.87393330  1  -0.072947  -0.001827  -0.083024  -0.097266  -0.00225  3.978913  -0.001
C  C137  1  0.11469596  0.36291639  0.62606453  1  -0.072292  -0.001824  -0.083088  -0.096919  -0.002246  3.978397  -0.001
C  C138  1  0.88535374  0.36285745  0.12604284  1  -0.074004  -0.001828  -0.082774  -0.09695  -0.002249  3.979427  -0.001
C  C139  1  0.88538525  0.63716214  0.37396583  1  -0.073128  -0.001828  -0.082883  -0.097235  -0.00225  3.979172  -0.001
C  C140  1  0.29703651  0.64661693  0.89247492  1  0.016861  0.009942  -0.020329  -0.035417  0.00533  3.985903  0.008
C  C141  1  0.29709242  0.35339087  0.60753521  1  0.017485  0.009937  -0.020417  -0.035579  0.005329  3.985844  0.008
C  C142  1  0.70296120  0.35331419  0.10750995  1  0.017378  0.009945  -0.020443  -0.0359  0.005332  3.986269  0.008
C  C143  1  0.70299563  0.64669759  0.39250315  1  0.017578  0.00994  -0.020271  -0.035706  0.00533  3.985863  0.008
C  C144  1  0.41588406  0.70822678  0.87380804  1  -0.004703  -0.002416  -0.08379  -0.082051  -0.002808  3.982169  -0.001
C  C145  1  0.41591565  0.29178603  0.62620833  1  -0.006388  -0.002414  -0.083731  -0.082205  -0.002805  3.981995  -0.001
C  C146  1  0.58413692  0.29171208  0.12618607  1  -0.006039  -0.002415  -0.083551  -0.081719  -0.002807  3.982445  -0.001
C  C147  1  0.58416008  0.70831616  0.37384022  1  -0.005386  -0.002415  -0.083627  -0.081654  -0.002806  3.982174  -0.001
C  C148  1  0.35273735  0.76162310  0.83855141  1  -0.123  0.001451  -0.098758  -0.146412  0.00058  4.00718  0.001
C  C149  1  0.35273808  0.23838053  0.66146140  1  -0.122463  0.00145  -0.098932  -0.146511  0.000579  4.006955  0.001
C  C150  1  0.64730964  0.23832482  0.16144655  1  -0.123165  0.001451  -0.099311  -0.147025  0.00058  4.007895  0.001
C  C151  1  0.64730207  0.76169370  0.33857430  1  -0.123719  0.001451  -0.099042  -0.146677  0.00058  4.007558  0.001
C  C152  1  0.36442235  0.59465874  0.93277592  1  1.527266  -0.010892  0.211048  0.556601  -0.014598  4.182111  -0.01
C  C153  1  0.36447658  0.40533709  0.56722918  1  1.526788  -0.010878  0.210771  0.556338  -0.014591  4.18232  -0.01
C  C154  1  0.63554388  0.40525948  0.06720129  1  1.527059  -0.010888  0.21102  0.55673  -0.014597  4.182497  -0.01
C  C155  1  0.63556083  0.59474218  0.43280091  1  1.526967  -0.01089  0.211113  0.556959  -0.014602  4.182492  -0.01
C  C156  1  0.93771666  0.29230575  0.47937200  1  0.987407  0.001877  0.155282  0.114093  0.001079  3.84844  0.002
C  C157  1  0.93776146  0.70767330  0.02059513  1  0.986184  0.001882  0.155164  0.114166  0.001081  3.848408  0.002
C  C158  1  0.06218113  0.70771299  0.52060400  1  0.985555  0.001884  0.154998  0.114185  0.001082  3.84901  0.002
C  C159  1  0.06228416  0.29224430  0.97936236  1  0.98572  0.001877  0.155577  0.114535  0.00108  3.847798  0.002
C  C160  1  0.75681807  0.23591872  0.40769591  1  0.433698  -4.5e-05  0.002376  -0.015183  -0.000817  4.004584  0.0
C  C161  1  0.75688796  0.76407407  0.09227386  1  0.422677  -4.4e-05  0.002606  -0.015216  -0.000818  4.005182  0.0
C  C162  1  0.24299074  0.76409836  0.59229864  1  0.42098  -4.3e-05  0.002784  -0.015194  -0.000819  4.004658  0.0
C  C163  1  0.24315492  0.23586125  0.90767844  1  0.434368  -4.6e-05  0.002465  -0.015658  -0.000817  4.004425  0.0
C  C164  1  0.88870483  0.16437886  0.40293666  1  0.259815  0.002656  -0.009668  -0.128116  0.00135  3.957882  0.002
C  C165  1  0.88880168  0.83561041  0.09703232  1  0.2714  0.002651  -0.009412  -0.127547  0.001349  3.957601  0.002
C  C166  1  0.11107935  0.83564077  0.59704388  1  0.272654  0.00265  -0.009594  -0.127365  0.001349  3.958541  0.002
C  C167  1  0.11127269  0.16431621  0.90292740  1  0.259616  0.002658  -0.00998  -0.128121  0.001351  3.957572  0.002
C  C168  1  0.14755464  0.14552877  0.46400218  1  0.305765  0.000533  0.094884  0.168889  0.000298  4.014053  0.0
C  C169  1  0.14767079  0.85445050  0.03596793  1  0.305916  0.000532  0.094839  0.168542  0.000298  4.013513  0.0
C  C170  1  0.85226923  0.85446745  0.53596823  1  0.308666  0.000531  0.094811  0.168489  0.000298  4.012747  0.0
C  C171  1  0.85243095  0.14549452  0.96400874  1  0.306328  0.000531  0.094808  0.168618  0.000298  4.013126  0.0
C  C172  1  0.29082513  0.10871209  0.42652719  1  0.030776  0.000386  -0.085517  -0.144123  0.000199  3.979839  0.0
C  C173  1  0.29090974  0.89124246  0.07345873  1  0.030762  0.000386  -0.085424  -0.143802  0.000199  3.979619  0.0
C  C174  1  0.70893577  0.89119368  0.57343282  1  0.030653  0.000387  -0.085631  -0.14414  0.0002  3.98025  0.0
C  C175  1  0.70907291  0.10876255  0.92655472  1  0.031029  0.000387  -0.085503  -0.143726  0.0002  3.980063  0.0
C  C176  1  0.42782108  0.05176892  0.44071407  1  -0.0738  9e-05  -0.086252  -0.107935  3.8e-05  3.971743  0.0
C  C177  1  0.42789292  0.94822323  0.05930122  1  -0.074549  9e-05  -0.086452  -0.108365  3.8e-05  3.971812  0.0
C  C178  1  0.57192887  0.94816682  0.55927554  1  -0.07658  9e-05  -0.086126  -0.107566  3.8e-05  3.971185  0.0
C  C179  1  0.57204046  0.05183029  0.94073919  1  -0.074732  9e-05  -0.086206  -0.107946  3.8e-05  3.971459  0.0
C  C180  1  0.42667011  0.03018887  0.49234197  1  0.051457  0.000345  -0.005093  0.064704  0.000174  3.971874  0.0
C  C181  1  0.42674698  0.96983485  0.00768235  1  0.015894  0.000346  -0.00496  0.065547  0.000175  3.971473  0.0
C  C182  1  0.57316745  0.96984978  0.50767524  1  0.022005  0.000347  -0.00512  0.065191  0.000175  3.971774  0.0
C  C183  1  0.57326168  0.03017144  0.99234853  1  0.051287  0.000346  -0.00534  0.064283  0.000175  3.971648  0.0
C  C184  1  0.28042925  0.06877653  0.52908881  1  -0.077831  -2.7e-05  -0.085697  -0.105912  -4.7e-05  3.981092  0.0
C  C185  1  0.28053007  0.93126506  0.97092477  1  -0.08051  -2.8e-05  -0.086101  -0.107125  -4.8e-05  3.981811  0.0
C  C186  1  0.71948907  0.93136828  0.47094090  1  -0.081249  -2.8e-05  -0.086136  -0.107198  -4.8e-05  3.981633  0.0
C  C187  1  0.71961136  0.06867317  0.02907325  1  -0.073009  -2.8e-05  -0.085617  -0.105928  -4.8e-05  3.980972  0.0
C  C188  1  0.14219312  0.12552927  0.51546037  1  -0.010103  0.000356  -0.085739  -0.154992  0.000157  3.995994  0.0
C  C189  1  0.14230675  0.87448664  0.98452335  1  -0.00887  0.000357  -0.085225  -0.153871  0.000157  3.996367  0.0
C  C190  1  0.85771424  0.87458488  0.48454162  1  -0.013771  0.000358  -0.085304  -0.153805  0.000157  3.995085  0.0
C  C191  1  0.85786070  0.12541869  0.01544661  1  -0.014742  0.000357  -0.085775  -0.154787  0.000157  3.995374  0.0
N  N192  1  0.78952427  0.31518370  0.45506572  1  -1.185187  0.047833  -0.334425  -0.238387  0.02734  3.476561  0.036
N  N193  1  0.78956005  0.68479987  0.04490523  1  -1.185138  0.047799  -0.334616  -0.238441  0.027326  3.476694  0.036
N  N194  1  0.21034066  0.68483399  0.54492453  1  -1.184469  0.047819  -0.334582  -0.238378  0.027328  3.476959  0.036
N  N195  1  0.21046230  0.31512046  0.95504428  1  -1.184676  0.047842  -0.334703  -0.238374  0.02734  3.476098  0.036
N  N196  1  0.00272900  0.20051321  0.44903206  1  -1.260198  0.002782  -0.227404  -0.000141  0.001171  3.813926  0.002
N  N197  1  0.00282498  0.79946428  0.05093204  1  -1.2588  0.002782  -0.228038  -0.000913  0.001171  3.813511  0.002
N  N198  1  0.99711403  0.79949716  0.55093819  1  -1.259865  0.002782  -0.227812  -0.000947  0.001171  3.814022  0.002
N  N199  1  0.99727402  0.20045263  0.94902694  1  -1.259197  0.002781  -0.227718  -0.000933  0.001171  3.813959  0.002
O  O200  1  0.78152549  0.51827075  0.55305905  1  -1.117005  0.094311  -0.299248  -0.493343  0.049318  2.317739  0.082
O  O201  1  0.78144143  0.48177727  0.94693275  1  -1.117221  0.094307  -0.299189  -0.493402  0.049314  2.318028  0.082
O  O202  1  0.21850096  0.48182368  0.44693180  1  -1.118015  0.094312  -0.299461  -0.493637  0.049309  2.317097  0.082
O  O203  1  0.21846320  0.51818775  0.05306432  1  -1.11798  0.094318  -0.299664  -0.493815  0.049321  2.317165  0.082
O  O204  1  0.54874373  0.62845067  0.57729945  1  -1.142277  0.076601  -0.302609  -0.535868  0.039237  2.402978  0.072
O  O205  1  0.54878377  0.37151434  0.92272951  1  -1.142382  0.076621  -0.302535  -0.535798  0.039255  2.403276  0.072
O  O206  1  0.45122660  0.37158932  0.42276083  1  -1.141853  0.076566  -0.302365  -0.535683  0.039238  2.403846  0.072
O  O207  1  0.45122352  0.62837525  0.07726117  1  -1.141663  0.076561  -0.302476  -0.53586  0.039228  2.40343  0.072
O  O208  1  0.27067693  0.52170878  0.93920466  1  -1.135349  0.087369  -0.297468  -0.509883  0.045554  2.374423  0.077
O  O209  1  0.27068341  0.47827256  0.56080859  1  -1.135552  0.087379  -0.297139  -0.509387  0.045557  2.374547  0.077
O  O210  1  0.72930709  0.47819825  0.06077197  1  -1.135568  0.087392  -0.297291  -0.509482  0.045558  2.375182  0.077
O  O211  1  0.72926776  0.52177475  0.43922362  1  -1.135659  0.087404  -0.297417  -0.509747  0.045569  2.37544  0.077
O  O212  1  0.51188587  0.62675235  0.95933635  1  -1.12904  0.08565  -0.303869  -0.518136  0.044311  2.36874  0.077
O  O213  1  0.51194768  0.37325605  0.54066324  1  -1.128939  0.08563  -0.303742  -0.518015  0.044308  2.368445  0.077
O  O214  1  0.48804614  0.37317062  0.04064963  1  -1.129075  0.085654  -0.304017  -0.518359  0.044327  2.368682  0.077
O  O215  1  0.48809794  0.62685505  0.45936030  1  -1.129073  0.085642  -0.303945  -0.518247  0.044312  2.368425  0.077
