# generated using pymatgen
data_CsH4C4N11O
_symmetry_space_group_name_H-M   'P 1'
_cell_length_a   8.87462166
_cell_length_b   10.55417198
_cell_length_c   11.38752007
_cell_angle_alpha   97.84010405
_cell_angle_beta   104.86808090
_cell_angle_gamma   90.78322905
_symmetry_Int_Tables_number   1
_chemical_formula_structural   CsH4C4N11O
_chemical_formula_sum   'Cs4 H16 C16 N44 O4'
_cell_volume   1019.93667556
_cell_formula_units_Z   4
loop_
 _symmetry_equiv_pos_site_id
 _symmetry_equiv_pos_as_xyz
  1  'x, y, z'
loop_
 _atom_site_type_symbol
 _atom_site_label
 _atom_site_symmetry_multiplicity
 _atom_site_fract_x
 _atom_site_fract_y
 _atom_site_fract_z
 _atom_site_occupancy
 _atom_site_hle17_bader_spin_density
 _atom_site_hle17_ddec_charge
 _atom_site_hle17_ddec_spin_density
 _atom_site_hle17_ddec_sum_bond_order
 _atom_site_hle17_magmom
 _atom_site_hse06_10hf_bader_spin_density
 _atom_site_hse06_10hf_ddec_charge
 _atom_site_hse06_10hf_ddec_spin_density
 _atom_site_hse06_10hf_ddec_sum_bond_order
 _atom_site_hse06_10hf_magmom
 _atom_site_hse06_bader_spin_density
 _atom_site_hse06_ddec_charge
 _atom_site_hse06_ddec_spin_density
 _atom_site_hse06_ddec_sum_bond_order
 _atom_site_hse06_magmom
 _atom_site_pbe_bader_spin_density
 _atom_site_pbe_cm5_charge
 _atom_site_pbe_ddec_charge
 _atom_site_pbe_ddec_spin_density
 _atom_site_pbe_ddec_sum_bond_order
 _atom_site_pbe_magmom
Cs  Cs0  1  0.51650092  0.30593904  0.01618451  1  0  0.863374  0  0.665218  0  0  0.759444  0  0.955362  0  0  0.77787  0  0.929965  0  0  0.955204  0.745979  0  0.973346  0
Cs  Cs1  1  0.48349754  0.69406070  0.98381356  1  0  0.863387  0  0.665207  0  0  0.759463  0  0.955346  0  0  0.77789  0  0.929949  0  0  0.955205  0.745996  0  0.973336  0
Cs  Cs2  1  0.20618717  0.05550518  0.10395890  1  0  0.867244  0  0.629337  0  0  0.772511  0  0.904594  0  0  0.789281  0  0.87983  0  0  0.924165  0.760172  0  0.922164  0
Cs  Cs3  1  0.79381363  0.94449456  0.89604139  1  0  0.867236  0  0.629348  0  0  0.772528  0  0.904569  0  0  0.789296  0  0.879805  0  0  0.924161  0.760192  0  0.922138  0
H  H4  1  0.87866834  0.29994955  0.03778641  1  0  0.424124  0  0.872097  0  0  0.3988  0  0.927059  0  0  0.408763  0  0.91231  0  0  0.28355  0.391647  0  0.937648  0
H  H5  1  0.12133129  0.70005019  0.96221277  1  0  0.424128  0  0.872093  0  0  0.398805  0  0.927052  0  0  0.408768  0  0.912304  0  0  0.283551  0.391652  0  0.937642  0
H  H6  1  0.90549409  0.23207424  0.15600514  1  0  0.382923  0  0.934711  0  0  0.341441  0  1.017927  0  0  0.352266  0  1.002044  0  0  0.278698  0.333781  0  1.029157  0
H  H7  1  0.09450438  0.76792549  0.84399469  1  0  0.382925  0  0.934708  0  0  0.341439  0  1.017928  0  0  0.352265  0  1.002047  0  0  0.2787  0.33378  0  1.029158  0
H  H8  1  0.80656888  0.48103608  0.91411068  1  0  0.381204  0  0.938821  0  0  0.337758  0  1.024706  0  0  0.348463  0  1.009074  0  0  0.28305  0.33024  0  1.035664  0
H  H9  1  0.19343186  0.51896270  0.08588859  1  0  0.381299  0  0.938707  0  0  0.337849  0  1.024582  0  0  0.348554  0  1.008951  0  0  0.283068  0.330332  0  1.035542  0
H  H10  1  0.87474766  0.52592343  0.05499472  1  0  0.390353  0  0.914503  0  0  0.353348  0  0.99478  0  0  0.362962  0  0.980524  0  0  0.290887  0.346567  0  1.004798  0
H  H11  1  0.12525075  0.47407535  0.94500410  1  0  0.39036  0  0.914508  0  0  0.353351  0  0.994778  0  0  0.362966  0  0.980521  0  0  0.29088  0.346571  0  1.004795  0
H  H12  1  0.91621773  0.38429130  0.67356077  1  0  0.280766  0  0.957329  0  0  0.245511  0  1.041482  0  0  0.256325  0  1.032604  0  0  0.312974  0.237866  0  1.047861  0
H  H13  1  0.08378203  0.61571035  0.32643957  1  0  0.280744  0  0.957281  0  0  0.245481  0  1.041443  0  0  0.256294  0  1.032564  0  0  0.312949  0.237842  0  1.047818  0
H  H14  1  0.24128278  0.00251151  0.55706560  1  0  0.295862  0  0.942605  0  0  0.250721  0  1.050002  0  0  0.26196  0  1.039618  0  0  0.315155  0.242735  0  1.057359  0
H  H15  1  0.75871691  0.99748918  0.44293460  1  0  0.295896  0  0.942567  0  0  0.250768  0  1.049931  0  0  0.262005  0  1.039546  0  0  0.315174  0.242782  0  1.057286  0
H  H16  1  0.16435300  0.60923967  0.57796980  1  0  0.28062  0  0.953707  0  0  0.24512  0  1.039031  0  0  0.256256  0  1.029418  0  0  0.311686  0.237375  0  1.045645  0
H  H17  1  0.83564768  0.39075816  0.42202845  1  0  0.280582  0  0.953723  0  0  0.245079  0  1.039057  0  0  0.256214  0  1.029448  0  0  0.311659  0.237343  0  1.045655  0
H  H18  1  0.50102393  0.23761658  0.45762967  1  0  0.29546  0  0.946804  0  0  0.252032  0  1.051624  0  0  0.263237  0  1.040946  0  0  0.317421  0.244049  0  1.059239  0
H  H19  1  0.49897571  0.76238315  0.54237039  1  0  0.295439  0  0.946823  0  0  0.25201  0  1.051644  0  0  0.263215  0  1.040967  0  0  0.317417  0.244027  0  1.059261  0
C  C20  1  0.04409511  0.19836055  0.52011578  1  0  0.232903  0  3.850335  0  0  0.208799  0  4.136203  0  0  0.216851  0  4.151849  0  0  0.202614  0.203418  0  4.125686  0
C  C21  1  0.95590587  0.80164205  0.47988580  1  0  0.232938  0  3.850417  0  0  0.208865  0  4.136234  0  0  0.216912  0  4.151875  0  0  0.202653  0.203485  0  4.125716  0
C  C22  1  0.06279228  0.22048022  0.65097528  1  0  0.094927  0  3.720478  0  0  0.067048  0  3.986925  0  0  0.0734  0  4.003258  0  0  0.122697  0.062785  0  3.976088  0
C  C23  1  0.93720626  0.77952046  0.34902556  1  0  0.094909  0  3.720462  0  0  0.067037  0  3.986896  0  0  0.073408  0  4.003208  0  0  0.122695  0.062778  0  3.97605  0
C  C24  1  0.15140742  0.16138989  0.74718040  1  0  0.013414  0  3.799126  0  0  0.008158  0  4.066918  0  0  0.005373  0  4.085655  0  0  0.10045  0.009864  0  4.054323  0
C  C25  1  0.84858989  0.83860984  0.25282008  1  0  0.013534  0  3.799103  0  0  0.008198  0  4.06697  0  0  0.00541  0  4.085707  0  0  0.100502  0.00991  0  4.054362  0
C  C26  1  0.25319910  0.05641644  0.74770501  1  0  0.30071  0  3.788165  0  0  0.269573  0  4.052913  0  0  0.28306  0  4.067245  0  0  0.241777  0.260687  0  4.043165  0
C  C27  1  0.74679944  0.94358425  0.25229495  1  0  0.30074  0  3.788213  0  0  0.269668  0  4.052895  0  0  0.283144  0  4.067237  0  0  0.241818  0.260778  0  4.043146  0
C  C28  1  0.30016744  0.42996101  0.42371611  1  0  0.243421  0  3.845433  0  0  0.218874  0  4.130713  0  0  0.226937  0  4.146476  0  0  0.20714  0.213419  0  4.120205  0
C  C29  1  0.69983331  0.57003776  0.57628492  1  0  0.243205  0  3.845582  0  0  0.218661  0  4.130867  0  0  0.226725  0  4.14663  0  0  0.207067  0.213209  0  4.120356  0
C  C30  1  0.31363569  0.44708806  0.55386524  1  0  0.084292  0  3.732033  0  0  0.056924  0  3.997337  0  0  0.063322  0  4.013636  0  0  0.116326  0.052671  0  3.986579  0
C  C31  1  0.68636622  0.55291072  0.44613426  1  0  0.084384  0  3.732029  0  0  0.057017  0  3.997325  0  0  0.063415  0  4.013625  0  0  0.116391  0.052763  0  3.986569  0
C  C32  1  0.39754425  0.38347170  0.64845863  1  0  0.014187  0  3.783644  0  0  0.010931  0  4.05178  0  0  0.008123  0  4.071095  0  0  0.097089  0.012474  0  4.038918  0
C  C33  1  0.60245767  0.61652707  0.35154263  1  0  0.014121  0  3.783672  0  0  0.010883  0  4.051793  0  0  0.008074  0  4.07111  0  0  0.097095  0.012425  0  4.038942  0
C  C34  1  0.49993983  0.27869659  0.64696777  1  0  0.300031  0  3.771449  0  0  0.266155  0  4.041088  0  0  0.279474  0  4.055223  0  0  0.234455  0.257405  0  4.031523  0
C  C35  1  0.50006092  0.72130219  0.35303238  1  0  0.300149  0  3.771272  0  0  0.266252  0  4.040925  0  0  0.279571  0  4.055061  0  0  0.234444  0.257488  0  4.031383  0
N  N36  1  0.11610092  0.10652951  0.46319222  1  0  -0.297774  0  3.032621  0  0  -0.266283  0  3.322869  0  0  -0.277086  0  3.336297  0  0  -0.21199  -0.258715  0  3.313646  0
N  N37  1  0.88389879  0.89347117  0.53680974  1  0  -0.297849  0  3.032718  0  0  -0.266371  0  3.322958  0  0  -0.277175  0  3.336387  0  0  -0.212045  -0.258801  0  3.313736  0
N  N38  1  0.07186370  0.11967803  0.34398821  1  0  -0.122226  0  3.00642  0  0  -0.111468  0  3.311519  0  0  -0.1126  0  3.324654  0  0  -0.166091  -0.11035  0  3.302617  0
N  N39  1  0.92813594  0.88032170  0.65601272  1  0  -0.12215  0  3.006511  0  0  -0.111396  0  3.311608  0  0  -0.112529  0  3.324745  0  0  -0.166061  -0.110279  0  3.302711  0
N  N40  1  0.97737124  0.21547570  0.32905786  1  0  -0.092958  0  3.016227  0  0  -0.067422  0  3.305774  0  0  -0.069931  0  3.318712  0  0  -0.096333  -0.0656  0  3.297096  0
N  N41  1  0.02262846  0.78452499  0.67094321  1  0  -0.092959  0  3.01624  0  0  -0.067409  0  3.305764  0  0  -0.06992  0  3.318704  0  0  -0.096313  -0.065588  0  3.29709  0
N  N42  1  0.95768021  0.26740743  0.43836941  1  0  -0.299407  0  3.026585  0  0  -0.271529  0  3.307684  0  0  -0.282623  0  3.320773  0  0  -0.216272  -0.264016  0  3.298805  0
N  N43  1  0.04231954  0.73259423  0.56162916  1  0  -0.299497  0  3.026639  0  0  -0.271639  0  3.307735  0  0  -0.28273  0  3.320816  0  0  -0.216327  -0.264121  0  3.298861  0
N  N44  1  0.99652722  0.31590956  0.70916235  1  0  -0.172021  0  3.420645  0  0  -0.117276  0  3.670679  0  0  -0.130288  0  3.685878  0  0  -0.239814  -0.10853  0  3.660627  0
N  N45  1  0.00347253  0.68409209  0.29083798  1  0  -0.171958  0  3.420648  0  0  -0.117187  0  3.670656  0  0  -0.130204  0  3.685849  0  0  -0.239773  -0.108451  0  3.660602  0
N  N46  1  0.03975923  0.31781116  0.83136379  1  0  -0.022226  0  2.943222  0  0  -0.006086  0  3.217879  0  0  -0.004929  0  3.22837  0  0  -0.067179  -0.00683  0  3.210943  0
N  N47  1  0.96024053  0.68219049  0.16863742  1  0  -0.022239  0  2.94328  0  0  -0.006101  0  3.217914  0  0  -0.004943  0  3.228408  0  0  -0.067172  -0.00684  0  3.210976  0
N  N48  1  0.13363423  0.22438967  0.85550051  1  0  -0.274964  0  3.038458  0  0  -0.254178  0  3.325014  0  0  -0.259147  0  3.337793  0  0  -0.261854  -0.250454  0  3.316388  0
N  N49  1  0.86636431  0.77561101  0.14450121  1  0  -0.275071  0  3.038531  0  0  -0.254286  0  3.325141  0  0  -0.259254  0  3.337917  0  0  -0.261928  -0.250564  0  3.31651  0
N  N50  1  0.33555780  0.01172542  0.84818261  1  0  -0.337076  0  2.963674  0  0  -0.309293  0  3.24559  0  0  -0.321294  0  3.25859  0  0  -0.289826  -0.301384  0  3.236913  0
N  N51  1  0.66444067  0.98827431  0.15181810  1  0  -0.337043  0  2.963639  0  0  -0.309281  0  3.245543  0  0  -0.32128  0  3.258546  0  0  -0.28983  -0.301374  0  3.236866  0
N  N52  1  0.41560575  0.91508315  0.80643119  1  0  -0.134122  0  3.070509  0  0  -0.110328  0  3.382632  0  0  -0.111587  0  3.393482  0  0  -0.211796  -0.109155  0  3.375144  0
N  N53  1  0.58439162  0.08491754  0.19356854  1  0  -0.134217  0  3.070497  0  0  -0.110425  0  3.382627  0  0  -0.111686  0  3.393478  0  0  -0.211844  -0.109253  0  3.375137  0
N  N54  1  0.38650028  0.89969094  0.68684081  1  0  -0.031745  0  2.910574  0  0  -0.041009  0  3.20808  0  0  -0.037964  0  3.218456  0  0  -0.084813  -0.042743  0  3.200789  0
N  N55  1  0.61349820  0.10030879  0.31315902  1  0  -0.031693  0  2.910555  0  0  -0.040953  0  3.208046  0  0  -0.037909  0  3.218419  0  0  -0.084805  -0.042687  0  3.200753  0
N  N56  1  0.28495659  0.98786713  0.64888219  1  0  -0.220959  0  3.430711  0  0  -0.161797  0  3.683178  0  0  -0.177235  0  3.696653  0  0  -0.241715  -0.15148  0  3.674222  0
N  N57  1  0.71504194  0.01213356  0.35111778  1  0  -0.221021  0  3.430693  0  0  -0.161868  0  3.683131  0  0  -0.177295  0  3.696593  0  0  -0.241747  -0.151554  0  3.674177  0
N  N58  1  0.37353100  0.34046519  0.36547904  1  0  -0.302019  0  3.042491  0  0  -0.270253  0  3.328145  0  0  -0.281091  0  3.342356  0  0  -0.218021  -0.262827  0  3.318652  0
N  N59  1  0.62646974  0.65953360  0.63452023  1  0  -0.301948  0  3.042495  0  0  -0.270184  0  3.328152  0  0  -0.281021  0  3.342356  0  0  -0.218015  -0.262758  0  3.318662  0
N  N60  1  0.33066412  0.35678331  0.24691384  1  0  -0.144205  0  3.028206  0  0  -0.129466  0  3.327854  0  0  -0.131766  0  3.341923  0  0  -0.176912  -0.127691  0  3.318425  0
N  N61  1  0.66933668  0.64321643  0.75308557  1  0  -0.144223  0  3.028167  0  0  -0.129487  0  3.327817  0  0  -0.131787  0  3.341885  0  0  -0.176926  -0.127711  0  3.318391  0
N  N62  1  0.23564539  0.45237854  0.23397076  1  0  -0.083505  0  3.033955  0  0  -0.051333  0  3.314488  0  0  -0.053797  0  3.326753  0  0  -0.082973  -0.049405  0  3.306112  0
N  N63  1  0.76435425  0.54762120  0.76602930  1  0  -0.083464  0  3.0339  0  0  -0.051284  0  3.314438  0  0  -0.053749  0  3.326702  0  0  -0.082951  -0.049355  0  3.306062  0
N  N64  1  0.21419699  0.50057149  0.34342372  1  0  -0.292163  0  3.027268  0  0  -0.264705  0  3.303248  0  0  -0.275467  0  3.316342  0  0  -0.213918  -0.2572  0  3.294253  0
N  N65  1  0.78580382  0.49942825  0.65657570  1  0  -0.292109  0  3.02724  0  0  -0.264655  0  3.303213  0  0  -0.275416  0  3.316307  0  0  -0.213901  -0.257149  0  3.294218  0
N  N66  1  0.24005207  0.53741048  0.61207582  1  0  -0.169963  0  3.415418  0  0  -0.112103  0  3.668254  0  0  -0.124756  0  3.681447  0  0  -0.244183  -0.103575  0  3.659088  0
N  N67  1  0.75994868  0.46258830  0.38792346  1  0  -0.169964  0  3.415427  0  0  -0.112116  0  3.668279  0  0  -0.124768  0  3.681473  0  0  -0.244193  -0.103591  0  3.659107  0
N  N68  1  0.27426415  0.53179013  0.73308857  1  0  -0.05063  0  2.926177  0  0  -0.049094  0  3.219299  0  0  -0.046867  0  3.231047  0  0  -0.156704  -0.050181  0  3.210933  0
N  N69  1  0.72573665  0.46820961  0.26691084  1  0  -0.050622  0  2.92621  0  0  -0.049077  0  3.21933  0  0  -0.046848  0  3.231076  0  0  -0.156687  -0.050163  0  3.21096  0
N  N70  1  0.36946365  0.43905699  0.75621490  1  0  -0.267641  0  3.042825  0  0  -0.248949  0  3.341035  0  0  -0.254627  0  3.356254  0  0  -0.278279  -0.244721  0  3.330492  0
N  N71  1  0.63053710  0.56094178  0.24378525  1  0  -0.267625  0  3.042799  0  0  -0.248938  0  3.34101  0  0  -0.254616  0  3.356227  0  0  -0.278299  -0.244708  0  3.33046  0
N  N72  1  0.57298055  0.22474116  0.74476085  1  0  -0.313783  0  2.92175  0  0  -0.285362  0  3.204633  0  0  -0.297012  0  3.217583  0  0  -0.280321  -0.277726  0  3.196032  0
N  N73  1  0.42702026  0.77525858  0.25523856  1  0  -0.313864  0  2.921781  0  0  -0.285438  0  3.20467  0  0  -0.29709  0  3.217622  0  0  -0.280319  -0.277798  0  3.196069  0
N  N74  1  0.65826825  0.13278435  0.70207179  1  0  -0.097114  0  2.997094  0  0  -0.084203  0  3.310738  0  0  -0.083864  0  3.320653  0  0  -0.159978  -0.084192  0  3.304144  0
N  N75  1  0.34173139  0.86721538  0.29792739  1  0  -0.0971  0  2.997108  0  0  -0.084186  0  3.310747  0  0  -0.083846  0  3.320663  0  0  -0.159971  -0.084173  0  3.304148  0
N  N76  1  0.64037504  0.12791730  0.58395883  1  0  -0.035883  0  2.896986  0  0  -0.041777  0  3.19608  0  0  -0.039352  0  3.205612  0  0  -0.076019  -0.043363  0  3.189719  0
N  N77  1  0.35962460  0.87208244  0.41604123  1  0  -0.035871  0  2.896928  0  0  -0.041765  0  3.196016  0  0  -0.039343  0  3.205549  0  0  -0.076017  -0.043354  0  3.189655  0
N  N78  1  0.54116769  0.21872496  0.54831485  1  0  -0.22963  0  3.429271  0  0  -0.170088  0  3.683963  0  0  -0.184908  0  3.695618  0  0  -0.242865  -0.160219  0  3.676169  0
N  N79  1  0.45883306  0.78127382  0.45168530  1  0  -0.229638  0  3.429221  0  0  -0.170082  0  3.683909  0  0  -0.184903  0  3.695565  0  0  -0.242855  -0.16021  0  3.676118  0
O  O80  1  0.88653491  0.21485209  0.06572682  1  0  -0.897948  0  1.805432  0  0  -0.841726  0  1.972546  0  0  -0.860108  0  1.943249  0  0  -0.722362  -0.828433  0  1.993064  0
O  O81  1  0.11346589  0.78514765  0.93427259  1  0  -0.897951  0  1.805425  0  0  -0.84173  0  1.972553  0  0  -0.860111  0  1.943257  0  0  -0.722369  -0.828434  0  1.993071  0
O  O82  1  0.80748667  0.45821344  0.99606348  1  0  -0.85582  0  1.900804  0  0  -0.797406  0  2.083664  0  0  -0.815614  0  2.053399  0  0  -0.655092  -0.784339  0  2.10479  0
O  O83  1  0.19251297  0.54178629  0.00393658  1  0  -0.855936  0  1.900709  0  0  -0.797509  0  2.083596  0  0  -0.815716  0  2.053331  0  0  -0.655107  -0.784442  0  2.104723  0
