# generated using pymatgen
data_Cu4H24C45N8
_symmetry_space_group_name_H-M   'P 1'
_cell_length_a   31.70203517
_cell_length_b   31.67604350
_cell_length_c   31.88643331
_cell_angle_alpha   89.99048073
_cell_angle_beta   90.00119339
_cell_angle_gamma   89.93897206
_symmetry_Int_Tables_number   1
_chemical_formula_structural   Cu4H24C45N8
_chemical_formula_sum   'Cu12 H72 C135 N24'
_cell_volume   32020.17972318
_cell_formula_units_Z   3
loop_
 _symmetry_equiv_pos_site_id
 _symmetry_equiv_pos_as_xyz
  1  'x, y, z'
loop_
 _atom_site_type_symbol
 _atom_site_label
 _atom_site_symmetry_multiplicity
 _atom_site_fract_x
 _atom_site_fract_y
 _atom_site_fract_z
 _atom_site_occupancy
 _atom_site_pbe_bader_charge
 _atom_site_pbe_bader_spin_density
 _atom_site_pbe_cm5_charge
 _atom_site_pbe_ddec_charge
 _atom_site_pbe_ddec_spin_density
 _atom_site_pbe_ddec_sum_bond_order
 _atom_site_pbe_magmom
Cu  Cu0  1  0.78277362  0.78295711  0.85211654  1  0.524912  0  0.492415  0.209437  0  2.11862  0
Cu  Cu1  1  0.85330866  0.78215148  0.78170054  1  0.525051  0  0.491256  0.210049  0  2.107524  0
Cu  Cu2  1  0.78213179  0.85363527  0.78185099  1  0.523477  0  0.490585  0.210744  0  2.103717  0
Cu  Cu3  1  0.78245318  0.21702859  0.14769671  1  0.537854  0  0.49129  0.210262  0  2.112325  0
Cu  Cu4  1  0.85295142  0.21780676  0.21826832  1  0.528616  0  0.489145  0.211248  0  2.095818  0
Cu  Cu5  1  0.78186785  0.14639490  0.21828954  1  0.521601  0  0.490142  0.210524  0  2.102761  0
Cu  Cu6  1  0.21713986  0.78303642  0.14769391  1  0.5247  0  0.490998  0.209719  0  2.111109  0
Cu  Cu7  1  0.14660782  0.78232422  0.21817223  1  0.527662  0  0.489924  0.210418  0  2.101409  0
Cu  Cu8  1  0.21801425  0.85345512  0.21833189  1  0.525826  0  0.490592  0.210578  0  2.104553  0
Cu  Cu9  1  0.21850446  0.21831902  0.85078751  1  0.531777  0  0.489704  0.21014  0  2.104502  0
Cu  Cu10  1  0.14657529  0.21772695  0.78160620  1  0.55697  0  0.490695  0.211123  0  2.103661  0
Cu  Cu11  1  0.21795982  0.14635458  0.78169780  1  0.525756  0  0.490544  0.210666  0  2.103966  0
H  H12  1  0.81165345  0.70492055  0.90752355  1  0.071706  0  0.125511  0.1188  0  0.981703  0
H  H13  1  0.90831216  0.70318513  0.81135965  1  0.124974  0  0.125925  0.119221  0  0.981661  0
H  H14  1  0.70332452  0.90890782  0.81173620  1  0.130074  0  0.125716  0.118975  0  0.98186  0
H  H15  1  0.70492168  0.81191244  0.90766206  1  0.080774  0  0.125685  0.118958  0  0.981465  0
H  H16  1  0.90804242  0.81142822  0.70362529  1  0.110162  0  0.125565  0.118923  0  0.980845  0
H  H17  1  0.81147567  0.90841089  0.70379833  1  0.124808  0  0.125421  0.118978  0  0.981326  0
H  H18  1  0.81139188  0.29498061  0.09217098  1  0.114414  0  0.125475  0.118768  0  0.981124  0
H  H19  1  0.90787306  0.29678852  0.18848029  1  0.113488  0  0.125382  0.118711  0  0.981079  0
H  H20  1  0.70318063  0.09119993  0.18854838  1  0.125147  0  0.125767  0.119137  0  0.981413  0
H  H21  1  0.70456055  0.18785848  0.09230754  1  0.080716  0  0.125932  0.119465  0  0.981032  0
H  H22  1  0.90769146  0.18849671  0.29656746  1  0.116034  0  0.125376  0.119258  0  0.980734  0
H  H23  1  0.81123125  0.09162293  0.29640788  1  0.125646  0  0.125652  0.118947  0  0.981964  0
H  H24  1  0.18796578  0.70528046  0.09203863  1  0.093663  0  0.125708  0.11938  0  0.981606  0
H  H25  1  0.09138461  0.70366706  0.18827158  1  0.139417  0  0.125741  0.119124  0  0.981532  0
H  H26  1  0.29692945  0.90846260  0.18874076  1  0.121485  0  0.125851  0.119193  0  0.981595  0
H  H27  1  0.29521233  0.81197223  0.09236187  1  0.079536  0  0.125796  0.119164  0  0.981667  0
H  H28  1  0.09201232  0.81162173  0.29645164  1  0.110784  0  0.1256  0.119506  0  0.980934  0
H  H29  1  0.18885836  0.90811343  0.29654224  1  0.127338  0  0.125442  0.118687  0  0.981272  0
H  H30  1  0.18982942  0.29689173  0.90573992  1  0.117041  0  0.125591  0.118966  0  0.98219  0
H  H31  1  0.09056064  0.29556502  0.81226037  1  0.086933  0  0.125788  0.119224  0  0.981248  0
H  H32  1  0.29573298  0.09026236  0.81242982  1  0.085562  0  0.125864  0.119442  0  0.981034  0
H  H33  1  0.29712141  0.18971220  0.90579385  1  0.09976  0  0.1256  0.118804  0  0.981667  0
H  H34  1  0.09176221  0.18812786  0.70366170  1  0.105405  0  0.125495  0.119103  0  0.981468  0
H  H35  1  0.18852856  0.09135487  0.70387238  1  0.120461  0  0.125748  0.11923  0  0.981684  0
H  H36  1  0.97975824  0.59054993  0.88445810  1  0.07768  0  0.103297  0.105732  0  0.990262  0
H  H37  1  0.01875980  0.53569067  0.92341416  1  0.046158  0  0.101325  0.102878  0  1.009192  0
H  H38  1  0.92244571  0.53564236  0.01864081  1  0.098601  0  0.101233  0.102447  0  1.010197  0
H  H39  1  0.88339017  0.59046819  0.97975910  1  0.085176  0  0.103377  0.106446  0  0.990498  0
H  H40  1  0.88301790  0.41015246  0.02001979  1  0.082756  0  0.103322  0.106472  0  0.990181  0
H  H41  1  0.92228468  0.46485542  0.98136981  1  0.095305  0  0.100977  0.102146  0  1.010159  0
H  H42  1  0.01835589  0.46427263  0.07681800  1  0.051766  0  0.101367  0.103036  0  1.009121  0
H  H43  1  0.97918687  0.40945114  0.11553442  1  0.072349  0  0.103403  0.106031  0  0.990361  0
H  H44  1  0.11612214  0.59052380  0.01987134  1  0.07595  0  0.103337  0.105891  0  0.990696  0
H  H45  1  0.07721819  0.53544714  0.98135511  1  0.043457  0  0.101043  0.102629  0  1.009863  0
H  H46  1  0.98092420  0.53598794  0.07659041  1  0.050607  0  0.101181  0.102464  0  1.00924  0
H  H47  1  0.01974716  0.59113910  0.11515675  1  0.073488  0  0.103396  0.10608  0  0.990306  0
H  H48  1  0.11625192  0.40953375  0.97956179  1  0.09244  0  0.103375  0.106194  0  0.99081  0
H  H49  1  0.07728619  0.46436084  0.01849390  1  0.048564  0  0.10122  0.102759  0  1.009522  0
H  H50  1  0.98088816  0.46441323  0.92336692  1  0.046786  0  0.101324  0.102886  0  1.009516  0
H  H51  1  0.01978035  0.40956766  0.88435436  1  0.0876  0  0.103038  0.105484  0  0.990891  0
H  H52  1  0.59025960  0.97972912  0.88460711  1  0.083345  0  0.103381  0.106248  0  0.989665  0
H  H53  1  0.53520165  0.01859832  0.92340652  1  0.05382  0  0.101262  0.102861  0  1.009422  0
H  H54  1  0.53617195  0.92292618  0.01933190  1  0.040019  0  0.10136  0.102485  0  1.00901  0
H  H55  1  0.59116851  0.88395882  0.98059281  1  0.068587  0  0.10359  0.106529  0  0.990434  0
H  H56  1  0.40899674  0.01925513  0.88505107  1  0.066668  0  0.103174  0.105954  0  0.990233  0
H  H57  1  0.46394442  0.98043288  0.92400727  1  0.070346  0  0.101246  0.102445  0  1.008763  0
H  H58  1  0.46463076  0.07746465  0.01855685  1  0.098007  0  0.101068  0.102222  0  1.010167  0
H  H59  1  0.40967540  0.11636658  0.97970483  1  0.09194  0  0.103403  0.106179  0  0.991218  0
H  H60  1  0.59032790  0.01997313  0.11581562  1  0.088386  0  0.103131  0.105867  0  0.990416  0
H  H61  1  0.53531659  0.98107763  0.07707019  1  0.041512  0  0.101071  0.102072  0  1.010431  0
H  H62  1  0.53580503  0.07683766  0.98122483  1  0.049044  0  0.101208  0.102384  0  1.009545  0
H  H63  1  0.59074297  0.11586408  0.01994096  1  0.075495  0  0.103301  0.105657  0  0.991139  0
H  H64  1  0.41024504  0.88310356  0.02079838  1  0.03641  0  0.103344  0.106072  0  0.991338  0
H  H65  1  0.46508148  0.92213330  0.98197478  1  0.089439  0  0.101097  0.102615  0  1.009473  0
H  H66  1  0.46392884  0.01914925  0.07653739  1  0.050246  0  0.101348  0.102639  0  1.009214  0
H  H67  1  0.40907115  0.98020486  0.11543977  1  0.081508  0  0.103401  0.105977  0  0.990638  0
H  H68  1  0.88340554  0.97938258  0.58963021  1  0.043965  0  0.103227  0.106143  0  0.991558  0
H  H69  1  0.92237220  0.01831062  0.53503834  1  0.096532  0  0.101124  0.102312  0  1.01059  0
H  H70  1  0.01915034  0.92283847  0.53604300  1  0.039958  0  0.10117  0.10292  0  1.009296  0
H  H71  1  0.98024315  0.88384451  0.59064624  1  0.073088  0  0.103295  0.1061  0  0.99089  0
H  H72  1  0.02088055  0.88320276  0.41061573  1  0.042491  0  0.103254  0.106306  0  0.990519  0
H  H73  1  0.98181929  0.92217088  0.46518717  1  0.085734  0  0.100994  0.102413  0  1.009745  0
H  H74  1  0.07713586  0.01891924  0.46451460  1  0.039778  0  0.1011  0.102422  0  1.009498  0
H  H75  1  0.11626434  0.98000743  0.40999720  1  0.093614  0  0.103442  0.106246  0  0.990493  0
H  H76  1  0.11661564  0.02006802  0.58972386  1  0.092198  0  0.103406  0.106287  0  0.990529  0
H  H77  1  0.07766662  0.98124932  0.53506007  1  0.092866  0  0.100963  0.102215  0  1.010898  0
H  H78  1  0.98099763  0.07682438  0.53600068  1  0.046049  0  0.101022  0.102574  0  1.009293  0
H  H79  1  0.01990007  0.11573399  0.59070357  1  0.078102  0  0.103151  0.105343  0  0.991036  0
H  H80  1  0.97917416  0.11647618  0.41055254  1  0.049639  0  0.103135  0.105827  0  0.990738  0
H  H81  1  0.01822042  0.07752017  0.46509334  1  0.09691  0  0.101025  0.102259  0  1.009966  0
H  H82  1  0.92288431  0.98080322  0.46447787  1  0.035656  0  0.101099  0.102281  0  1.009544  0
H  H83  1  0.88375539  0.01969412  0.40998904  1  0.091876  0  0.103435  0.106276  0  0.990827  0
C  C84  1  0.83185639  0.71042925  0.88062429  1  0.447329  0  0.016162  -0.047361  0  3.925289  0
C  C85  1  0.86862511  0.68870821  0.86827224  1  0.099359  0  -0.027618  0.050759  0  4.202642  0
C  C86  1  0.88137609  0.70957365  0.83135384  1  0.430074  0  0.016103  -0.047023  0  3.9247  0
C  C87  1  0.70966159  0.88186954  0.83165618  1  0.410496  0  0.016505  -0.046329  0  3.923583  0
C  C88  1  0.68881172  0.86904452  0.86855459  1  0.102331  0  -0.027857  0.049693  0  4.201859  0
C  C89  1  0.71045181  0.83217149  0.88079294  1  0.46506  0  0.016449  -0.046388  0  3.92491  0
C  C90  1  0.88110003  0.83168841  0.70957436  1  0.464983  0  0.016423  -0.046545  0  3.922043  0
C  C91  1  0.86847650  0.86864031  0.68834226  1  0.046166  0  -0.027825  0.05028  0  4.197561  0
C  C92  1  0.83164774  0.88137352  0.70966488  1  0.439225  0  0.016136  -0.047404  0  3.924112  0
C  C93  1  0.83156896  0.28950110  0.11910240  1  0.406032  0  0.01638  -0.046543  0  3.92459  0
C  C94  1  0.86829833  0.31124692  0.13145486  1  0.104943  0  -0.027923  0.050286  0  4.198413  0
C  C95  1  0.88099115  0.29038056  0.16843620  1  0.425364  0  0.01669  -0.046069  0  3.92182  0
C  C96  1  0.70947443  0.11816816  0.16854859  1  0.413951  0  0.016427  -0.04678  0  3.923425  0
C  C97  1  0.68856156  0.13087810  0.13163648  1  0.097517  0  -0.028072  0.050244  0  4.19964  0
C  C98  1  0.71014532  0.16769161  0.11924807  1  0.464637  0  0.016507  -0.04707  0  3.923267  0
C  C99  1  0.88077797  0.16825023  0.29060924  1  0.361552  0  0.016757  -0.047234  0  3.920704  0
C  C100  1  0.86821100  0.13129853  0.31186058  1  0.151835  0  -0.028375  0.050326  0  4.195202  0
C  C101  1  0.83138474  0.11862565  0.29053214  1  0.435954  0  0.016156  -0.047302  0  3.924275  0
C  C102  1  0.16779322  0.71077288  0.11896365  1  0.424555  0  0.015657  -0.048527  0  3.92502  0
C  C103  1  0.13098706  0.68912914  0.13126831  1  0.123974  0  -0.027758  0.050571  0  4.198277  0
C  C104  1  0.11832881  0.70996639  0.16827176  1  0.397775  0  0.016255  -0.046712  0  3.923462  0
C  C105  1  0.29053203  0.88156209  0.16868771  1  0.426949  0  0.016086  -0.046697  0  3.92373  0
C  C106  1  0.31141390  0.86882580  0.13176247  1  0.073706  0  -0.027747  0.050387  0  4.200353  0
C  C107  1  0.28969650  0.83210788  0.11932142  1  0.469922  0  0.016255  -0.047153  0  3.923945  0
C  C108  1  0.11900621  0.83177014  0.29055851  1  0.359647  0  0.016076  -0.048316  0  3.923946  0
C  C109  1  0.13172564  0.86859791  0.31188527  1  0.155237  0  -0.027785  0.051303  0  4.197284  0
C  C110  1  0.16860356  0.88119721  0.29060629  1  0.439916  0  0.016502  -0.046433  0  3.923205  0
C  C111  1  0.16900428  0.29066675  0.87948101  1  0.434847  0  0.015992  -0.047008  0  3.925024  0
C  C112  1  0.13142227  0.31149220  0.86797431  1  0.053654  0  -0.028019  0.049216  0  4.198449  0
C  C113  1  0.11817795  0.28999141  0.83157293  1  0.467042  0  0.016274  -0.04611  0  3.922155  0
C  C114  1  0.29017020  0.11794790  0.83168564  1  0.458758  0  0.016066  -0.047042  0  3.923288  0
C  C115  1  0.31165187  0.13124196  0.86805886  1  0.113439  0  -0.028065  0.049434  0  4.198839  0
C  C116  1  0.29087768  0.16886814  0.87953322  1  0.405147  0  0.016249  -0.046573  0  3.923979  0
C  C117  1  0.11875453  0.16793557  0.70962205  1  0.444452  0  0.016617  -0.046695  0  3.92409  0
C  C118  1  0.13142423  0.13098060  0.68843986  1  0.069093  0  -0.027903  0.050033  0  4.197767  0
C  C119  1  0.16831858  0.11836683  0.70972306  1  0.430701  0  0.016201  -0.047347  0  3.92377  0
C  C120  1  0.00002412  0.99984852  0.50012268  1  0.031375  0  0.014401  2.7e-05  0  3.797007  0
C  C121  1  0.99982234  0.50001106  0.00003772  1  0.039974  0  0.014356  0.001127  0  3.796412  0
C  C122  1  0.49996295  0.99985422  0.00024560  1  0.044222  0  0.013551  -0.001093  0  3.805913  0
C  C123  1  0.92849385  0.59424743  0.92902141  1  0.137979  0  -0.006568  0.135235  0  4.136817  0
C  C124  1  0.96703347  0.57813389  0.91372227  1  -0.100641  0  -0.087316  -0.122211  0  3.959359  0
C  C125  1  0.98879062  0.54713981  0.93574901  1  -0.008587  0  -0.094329  -0.133971  0  4.019407  0
C  C126  1  0.88863027  0.65494359  0.88873038  1  0.077899  0  -0.057943  -0.106834  0  4.190772  0
C  C127  1  0.93503244  0.54711463  0.98893932  1  -0.093161  0  -0.094153  -0.132875  0  4.019477  0
C  C128  1  0.91292797  0.57810835  0.96723683  1  -0.099892  0  -0.087435  -0.1241  0  3.961477  0
C  C129  1  0.90668613  0.62636671  0.90712991  1  -0.424635  0  -0.054081  -0.122244  0  4.157362  0
C  C130  1  0.97311627  0.53063984  0.97350055  1  0.014679  0  -0.005955  0.064071  0  3.915104  0
C  C131  1  0.92803735  0.40591228  0.07083708  1  0.099488  0  -0.006664  0.134641  0  4.134908  0
C  C132  1  0.91257704  0.42228169  0.03265123  1  -0.02208  0  -0.087854  -0.124635  0  3.960547  0
C  C133  1  0.93482565  0.45322790  0.01104965  1  -0.072048  0  -0.093772  -0.132293  0  4.016996  0
C  C134  1  0.88826215  0.34505652  0.11098461  1  -0.162098  0  -0.05794  -0.106841  0  4.186183  0
C  C135  1  0.98842736  0.45290929  0.06434628  1  -0.090479  0  -0.094426  -0.134515  0  4.017953  0
C  C136  1  0.96654089  0.42194143  0.08625712  1  -0.036297  0  -0.087534  -0.121848  0  3.957958  0
C  C137  1  0.90621870  0.37369706  0.09260933  1  -0.170748  0  -0.054252  -0.122667  0  4.153331  0
C  C138  1  0.97295495  0.46950655  0.02653690  1  -0.020673  0  -0.005434  0.064601  0  3.913603  0
C  C139  1  0.07105784  0.59461965  0.07062621  1  0.108108  0  -0.006668  0.134675  0  4.133966  0
C  C140  1  0.08663871  0.57822091  0.03251035  1  -0.011891  0  -0.087527  -0.122581  0  3.958849  0
C  C141  1  0.06461397  0.54705636  0.01100819  1  -0.069416  0  -0.094309  -0.134287  0  4.016792  0
C  C142  1  0.11090193  0.65543626  0.11075644  1  -0.316576  0  -0.057498  -0.105698  0  4.18591  0
C  C143  1  0.01088487  0.54734816  0.06419042  1  -0.070577  0  -0.094539  -0.134  0  4.01742  0
C  C144  1  0.03255881  0.57852717  0.08600584  1  -0.017715  0  -0.087345  -0.122409  0  3.95785  0
C  C145  1  0.09283366  0.62687143  0.09237809  1  -0.065143  0  -0.054159  -0.123088  0  4.153994  0
C  C146  1  0.02656662  0.53061638  0.02652110  1  0.00509  0  -0.005677  0.064861  0  3.912215  0
C  C147  1  0.07111771  0.40571767  0.92886575  1  0.096725  0  -0.006319  0.135902  0  4.133379  0
C  C148  1  0.08670119  0.42188182  0.96706621  1  -0.055772  0  -0.087633  -0.123747  0  3.96098  0
C  C149  1  0.06463187  0.45287961  0.98882014  1  -0.081127  0  -0.094197  -0.13354  0  4.017792  0
C  C150  1  0.11121548  0.34509921  0.88857606  1  -0.43729  0  -0.057259  -0.105794  0  4.186384  0
C  C151  1  0.01083890  0.45289639  0.93570437  1  -0.071945  0  -0.094321  -0.133663  0  4.01857  0
C  C152  1  0.03256598  0.42190163  0.91362488  1  -0.064754  0  -0.08745  -0.122894  0  3.95953  0
C  C153  1  0.09298115  0.37359954  0.90695084  1  0.152451  0  -0.054389  -0.122836  0  4.153173  0
C  C154  1  0.02651364  0.46937132  0.97348123  1  -0.00053  0  -0.006084  0.064086  0  3.913553  0
C  C155  1  0.59440957  0.92873745  0.92949443  1  0.110758  0  -0.006435  0.1356  0  4.137365  0
C  C156  1  0.57799166  0.96708899  0.91396996  1  -0.085538  0  -0.087511  -0.122906  0  3.960496  0
C  C157  1  0.54689367  0.98876019  0.93588553  1  -0.029906  0  -0.094101  -0.134128  0  4.020007  0
C  C158  1  0.65510530  0.88902786  0.88910199  1  -0.298043  0  -0.058034  -0.107118  0  4.188968  0
C  C159  1  0.54741770  0.93532175  0.98945491  1  0.000376  0  -0.094133  -0.132937  0  4.018272  0
C  C160  1  0.57850462  0.91329590  0.96785480  1  -0.022019  0  -0.087838  -0.124402  0  3.961814  0
C  C161  1  0.62655620  0.90698967  0.90761947  1  -0.066184  0  -0.05426  -0.122313  0  4.157249  0
C  C162  1  0.53060417  0.97317539  0.97376458  1  -0.049777  0  -0.006007  0.064941  0  3.915207  0
C  C163  1  0.40561628  0.07094781  0.92923503  1  0.177009  0  -0.006742  0.135416  0  4.135533  0
C  C164  1  0.42157371  0.03221708  0.91414955  1  -0.035897  0  -0.087416  -0.123771  0  3.961324  0
C  C165  1  0.45262384  0.01055555  0.93616207  1  -0.076409  0  -0.093795  -0.131794  0  4.01832  0
C  C166  1  0.34517509  0.11101778  0.88873700  1  -0.330687  0  -0.057554  -0.106434  0  4.186936  0
C  C167  1  0.45300289  0.06472363  0.98897665  1  -0.095759  0  -0.094157  -0.132722  0  4.018113  0
C  C168  1  0.42194015  0.08672788  0.96729284  1  -0.098531  0  -0.087497  -0.123944  0  3.960869  0
C  C169  1  0.37358320  0.09281513  0.90725802  1  -0.0513  0  -0.054374  -0.12236  0  4.155705  0
C  C170  1  0.46934994  0.02650134  0.97370797  1  -0.006428  0  -0.005891  0.06385  0  3.916901  0
C  C171  1  0.59421170  0.07102101  0.07096311  1  0.195814  0  -0.007143  0.133259  0  4.138673  0
C  C172  1  0.57796175  0.03262427  0.08647990  1  -0.055371  0  -0.087107  -0.122397  0  3.96148  0
C  C173  1  0.54689307  0.01093978  0.06458869  1  -0.076316  0  -0.094033  -0.132891  0  4.020616  0
C  C174  1  0.65486102  0.11084215  0.11119676  1  -0.310717  0  -0.057551  -0.106549  0  4.18865  0
C  C175  1  0.54715656  0.06444573  0.01106417  1  -0.084897  0  -0.094377  -0.134059  0  4.018518  0
C  C176  1  0.57820128  0.08649275  0.03264430  1  -0.037846  0  -0.087129  -0.121604  0  3.960303  0
C  C177  1  0.62631482  0.09281385  0.09279473  1  -0.066232  0  -0.05434  -0.122038  0  4.15713  0
C  C178  1  0.53051363  0.02654982  0.02673860  1  0.009578  0  -0.005591  0.06517  0  3.916477  0
C  C179  1  0.40594340  0.92857322  0.07121132  1  0.078273  0  -0.006716  0.134526  0  4.137054  0
C  C180  1  0.42238499  0.91276708  0.03321205  1  -0.00682  0  -0.087345  -0.123074  0  3.962392  0
C  C181  1  0.45335663  0.93484865  0.01153676  1  -0.026267  0  -0.094188  -0.133812  0  4.018367  0
C  C182  1  0.34520037  0.88879213  0.11138112  1  0.019331  0  -0.057542  -0.106919  0  4.189183  0
C  C183  1  0.45272532  0.98902170  0.06437258  1  -0.090249  0  -0.094322  -0.133708  0  4.019886  0
C  C184  1  0.42175682  0.96729833  0.08636403  1  -0.041425  0  -0.087546  -0.122493  0  3.960698  0
C  C185  1  0.37378134  0.90682017  0.09303146  1  -0.339045  0  -0.054422  -0.122225  0  4.156294  0
C  C186  1  0.46947712  0.97312703  0.02681027  1  -0.024112  0  -0.005541  0.065362  0  3.915099  0
C  C187  1  0.92872772  0.92852758  0.59394336  1  0.074777  0  -0.006993  0.134754  0  4.136441  0
C  C188  1  0.91302477  0.96680428  0.57753807  1  -0.004695  0  -0.087533  -0.123777  0  3.962446  0
C  C189  1  0.93509657  0.98854721  0.54667658  1  -0.070838  0  -0.094532  -0.13336  0  4.017832  0
C  C190  1  0.88866034  0.88874233  0.65460102  1  -0.0153  0  -0.05778  -0.107108  0  4.186881  0
C  C191  1  0.98910067  0.93524721  0.54724496  1  -0.042764  0  -0.094194  -0.133948  0  4.018745  0
C  C192  1  0.96736887  0.91317398  0.57811081  1  -0.082013  0  -0.087153  -0.123018  0  3.959793  0
C  C193  1  0.90690282  0.90678715  0.62604333  1  -0.32118  0  -0.053831  -0.121417  0  4.154285  0
C  C194  1  0.97332560  0.97311454  0.53054738  1  0.019939  0  -0.00566  0.065152  0  3.91221  0
C  C195  1  0.07162346  0.92856504  0.40641914  1  0.003447  0  -0.006439  0.135112  0  4.137194  0
C  C196  1  0.03337892  0.91283226  0.42274658  1  0.0073  0  -0.087749  -0.124002  0  3.959651  0
C  C197  1  0.01154848  0.93490028  0.45358677  1  -0.03655  0  -0.09406  -0.132569  0  4.017508  0
C  C198  1  0.11161284  0.88873593  0.34567223  1  -0.020749  0  -0.057623  -0.107452  0  4.187033  0
C  C199  1  0.06474162  0.98890913  0.45321455  1  -0.001379  0  -0.093942  -0.132464  0  4.017471  0
C  C200  1  0.08690615  0.96717095  0.42239389  1  -0.029996  0  -0.087672  -0.123641  0  3.961223  0
C  C201  1  0.09344487  0.90682865  0.37427249  1  -0.320686  0  -0.054594  -0.122183  0  4.155058  0
C  C202  1  0.02684000  0.97315115  0.46974933  1  -0.05387  0  -0.005653  0.063613  0  3.914653  0
C  C203  1  0.07132628  0.07097091  0.59402876  1  0.030224  0  -0.006534  0.135265  0  4.135639  0
C  C204  1  0.08702211  0.03269726  0.57760659  1  0.013576  0  -0.087501  -0.123622  0  3.95989  0
C  C205  1  0.06495310  0.01101554  0.54670728  1  -0.048441  0  -0.09421  -0.132987  0  4.018353  0
C  C206  1  0.11125863  0.11078040  0.65474716  1  -0.409994  0  -0.057592  -0.106439  0  4.186779  0
C  C207  1  0.01102480  0.06439835  0.54723461  1  -0.083742  0  -0.094038  -0.133305  0  4.018283  0
C  C208  1  0.03274405  0.08640721  0.57814493  1  -0.039641  0  -0.087366  -0.122334  0  3.960401  0
C  C209  1  0.09310115  0.09269643  0.62617086  1  0.082062  0  -0.054395  -0.122438  0  4.155081  0
C  C210  1  0.02675750  0.02651382  0.53054871  1  -0.029876  0  -0.006017  0.063916  0  3.913017  0
C  C211  1  0.92837298  0.07118198  0.40635678  1  -0.087925  0  -0.006276  0.135361  0  4.134516  0
C  C212  1  0.96663639  0.08686679  0.42269062  1  0.051704  0  -0.087665  -0.123696  0  3.95914  0
C  C213  1  0.98847214  0.06479719  0.45353843  1  -0.035146  0  -0.094384  -0.132617  0  4.017653  0
C  C214  1  0.88838084  0.11113287  0.34563719  1  -0.020345  0  -0.057509  -0.107026  0  4.185144  0
C  C215  1  0.93528340  0.01082294  0.45319495  1  -0.002848  0  -0.093994  -0.132006  0  4.017537  0
C  C216  1  0.91311355  0.03256620  0.42235960  1  0.014257  0  -0.087657  -0.123864  0  3.96057  0
C  C217  1  0.90653118  0.09297393  0.37422243  1  -0.315064  0  -0.054575  -0.122269  0  4.152546  0
C  C218  1  0.97318395  0.02656350  0.46975170  1  -0.077555  0  -0.005545  0.06362  0  3.913915  0
N  N219  1  0.85434420  0.74116757  0.82272563  1  -0.758983  0  -0.33531  -0.13936  0  3.775847  0
N  N220  1  0.82369445  0.74168760  0.85323788  1  -0.750833  0  -0.3374  -0.13942  0  3.780374  0
N  N221  1  0.74165365  0.82401767  0.85337598  1  -0.772614  0  -0.33712  -0.139358  0  3.78063  0
N  N222  1  0.74118567  0.85477891  0.82293474  1  -0.762313  0  -0.335674  -0.140298  0  3.774342  0
N  N223  1  0.82331465  0.85417588  0.74100493  1  -0.710259  0  -0.335406  -0.139697  0  3.777098  0
N  N224  1  0.85395265  0.82340224  0.74094572  1  -0.824912  0  -0.336045  -0.139465  0  3.778443  0
N  N225  1  0.85399493  0.25879204  0.17709068  1  -0.738898  0  -0.334402  -0.139863  0  3.771146  0
N  N226  1  0.82338932  0.25826373  0.14650971  1  -0.788961  0  -0.336657  -0.1405  0  3.780002  0
N  N227  1  0.74137183  0.17592898  0.14661115  1  -0.776329  0  -0.336392  -0.139588  0  3.776997  0
N  N228  1  0.74096588  0.14526285  0.17715856  1  -0.766013  0  -0.33554  -0.140283  0  3.774215  0
N  N229  1  0.82302963  0.14581970  0.25917441  1  -0.724755  0  -0.334813  -0.138717  0  3.774825  0
N  N230  1  0.85363443  0.17657410  0.25920858  1  -0.812197  0  -0.334902  -0.140276  0  3.770504  0
N  N231  1  0.14541528  0.74145851  0.17696237  1  -0.752913  0  -0.334882  -0.140153  0  3.773217  0
N  N232  1  0.17604748  0.74194236  0.14641548  1  -0.762394  0  -0.336113  -0.138727  0  3.775946  0
N  N233  1  0.25842607  0.82394862  0.14665804  1  -0.772095  0  -0.336544  -0.139164  0  3.77585  0
N  N234  1  0.25893904  0.85456144  0.17724202  1  -0.76211  0  -0.335489  -0.14064  0  3.775294  0
N  N235  1  0.17685081  0.85405831  0.25918773  1  -0.716933  0  -0.335089  -0.139255  0  3.777359  0
N  N236  1  0.14612212  0.82343642  0.25915157  1  -0.824157  0  -0.335566  -0.13973  0  3.775418  0
N  N237  1  0.14567560  0.25892245  0.82246564  1  -0.796335  0  -0.335741  -0.141002  0  3.773883  0
N  N238  1  0.17716910  0.25934161  0.85214575  1  -0.742597  0  -0.335287  -0.139329  0  3.773112  0
N  N239  1  0.25956477  0.17700907  0.85220055  1  -0.742581  0  -0.335288  -0.139265  0  3.772771  0
N  N240  1  0.25912784  0.14546146  0.82255719  1  -0.769541  0  -0.335403  -0.14021  0  3.775327  0
N  N241  1  0.17662970  0.14562059  0.74101337  1  -0.71495  0  -0.335537  -0.13934  0  3.77611  0
N  N242  1  0.14592053  0.17633096  0.74095126  1  -0.819357  0  -0.335721  -0.140145  0  3.776411  0
