# generated using pymatgen
data_Al2H18C29N3ClO14
_symmetry_space_group_name_H-M   'P 1'
_cell_length_a   6.73111388
_cell_length_b   22.32708426
_cell_length_c   25.58643054
_cell_angle_alpha   89.22502011
_cell_angle_beta   89.48281803
_cell_angle_gamma   90.15606906
_symmetry_Int_Tables_number   1
_chemical_formula_structural   Al2H18C29N3ClO14
_chemical_formula_sum   'Al4 H36 C58 N6 Cl2 O28'
_cell_volume   3844.76209540
_cell_formula_units_Z   2
loop_
 _symmetry_equiv_pos_site_id
 _symmetry_equiv_pos_as_xyz
  1  'x, y, z'
loop_
 _atom_site_type_symbol
 _atom_site_label
 _atom_site_symmetry_multiplicity
 _atom_site_fract_x
 _atom_site_fract_y
 _atom_site_fract_z
 _atom_site_occupancy
 _atom_site_pbe_bader_charge
 _atom_site_pbe_bader_spin_density
 _atom_site_pbe_cm5_charge
 _atom_site_pbe_ddec_charge
 _atom_site_pbe_ddec_spin_density
 _atom_site_pbe_ddec_sum_bond_order
 _atom_site_pbe_magmom
Al  Al0  1  0.72711987  0.74432193  0.74589130  1  2.504492  0  0.398981  1.648938  0  2.571109  0
Al  Al1  1  0.27288197  0.25567960  0.25410817  1  2.504546  0  0.399027  1.648989  0  2.570964  0
Al  Al2  1  0.22754505  0.74828720  0.74680258  1  2.49521  0  0.401684  1.644513  0  2.569798  0
Al  Al3  1  0.77245827  0.25171254  0.25319651  1  2.495175  0  0.40168  1.644442  0  2.569903  0
H  H4  1  0.25811313  0.88710849  0.85131058  1  0.11412  0  0.104909  0.125135  0  1.025248  0
H  H5  1  0.74189766  0.11289169  0.14869356  1  0.11403  0  0.104906  0.125097  0  1.025376  0
H  H6  1  0.15361691  0.03995436  0.97296707  1  0.053258  0  0.105368  0.101002  0  1.030751  0
H  H7  1  0.84637452  0.96004313  0.02703208  1  0.053154  0  0.105343  0.100957  0  1.030705  0
H  H8  1  0.28424096  0.87815391  0.63036489  1  0.107654  0  0.117225  0.141848  0  0.989257  0
H  H9  1  0.71576088  0.12184851  0.36963535  1  0.107237  0  0.117258  0.141906  0  0.989294  0
H  H10  1  0.37037740  0.06948862  0.44767391  1  0.104444  0  0.105283  0.118205  0  1.037059  0
H  H11  1  0.62962886  0.93051068  0.55232205  1  0.104817  0  0.105304  0.118237  0  1.037028  0
H  H12  1  0.35084502  0.14476465  0.37444212  1  0.14113  0  0.11059  0.120924  0  1.004222  0
H  H13  1  0.64915678  0.85523420  0.62555346  1  0.141172  0  0.110622  0.120918  0  1.004277  0
H  H14  1  0.21620384  0.37908921  0.13243604  1  0.096137  0  0.106688  0.109562  0  1.007024  0
H  H15  1  0.78378908  0.62090694  0.86756468  1  0.096309  0  0.106691  0.109557  0  1.006995  0
H  H16  1  0.23274310  0.45183466  0.05638030  1  0.11098  0  0.10432  0.103033  0  1.034504  0
H  H17  1  0.76725129  0.54815970  0.94361847  1  0.110911  0  0.104296  0.103012  0  1.034572  0
H  H18  1  0.13134351  0.56381518  0.94682357  1  0.114005  0  0.107598  0.110156  0  1.008548  0
H  H19  1  0.86865387  0.43618410  0.05317554  1  0.114017  0  0.107578  0.110108  0  1.008598  0
H  H20  1  0.14787870  0.63600977  0.86994874  1  0.095091  0  0.108438  0.113051  0  1.004218  0
H  H21  1  0.85211721  0.36399175  0.13005270  1  0.095093  0  0.108454  0.113092  0  1.004237  0
H  H22  1  0.21803929  0.38151990  0.36949028  1  0.114615  0  0.116376  0.139701  0  0.992499  0
H  H23  1  0.78196255  0.61848118  0.63050919  1  0.114604  0  0.116382  0.139781  0  0.992476  0
H  H24  1  0.12812517  0.56705445  0.55234746  1  0.131136  0  0.105603  0.119143  0  1.037471  0
H  H25  1  0.87188112  0.43294843  0.44765042  1  0.130837  0  0.105571  0.119092  0  1.037414  0
H  H26  1  0.14667823  0.64025385  0.62545085  1  0.091895  0  0.109983  0.119769  0  1.005168  0
H  H27  1  0.85332508  0.35974768  0.37454626  1  0.091864  0  0.109981  0.119765  0  1.005145  0
H  H28  1  0.24308569  0.48660717  0.47480194  1  0.628028  0  0.299523  0.28661  0  1.067575  0
H  H29  1  0.75691615  0.51339526  0.52519712  1  0.627749  0  0.299435  0.286443  0  1.067802  0
H  H30  1  0.63378850  0.93746317  0.99249468  1  0.589497  0  0.332026  0.366396  0  0.892576  0
H  H31  1  0.36619846  0.06253208  0.00750372  1  0.589366  0  0.331929  0.366215  0  0.892653  0
H  H32  1  0.59089432  0.05977883  0.07344696  1  0.643316  0  0.307967  0.351306  0  0.962774  0
H  H33  1  0.40910605  0.94021507  0.92655688  1  0.643402  0  0.307935  0.351441  0  0.963231  0
H  H34  1  0.25781237  0.98620466  0.52479691  1  0.640167  0  0.29937  0.286368  0  1.068309  0
H  H35  1  0.74219392  0.01379732  0.47520175  1  0.640184  0  0.299395  0.286404  0  1.068249  0
H  H36  1  0.48713282  0.81959336  0.76800897  1  0.627539  0  0.346194  0.423345  0  0.868352  0
H  H37  1  0.51286456  0.18040726  0.23199091  1  0.627545  0  0.346245  0.423468  0  0.868197  0
H  H38  1  0.98487147  0.66763961  0.75597715  1  0.602065  0  0.354055  0.432656  0  0.848419  0
H  H39  1  0.01512444  0.33236146  0.24402429  1  0.60218  0  0.354029  0.432628  0  0.848407  0
C  C40  1  0.47543423  0.67365837  0.81796340  1  1.572323  0  0.262358  0.63434  0  4.108028  0
C  C41  1  0.52456612  0.32634226  0.18203725  1  1.572301  0  0.262316  0.634244  0  4.108019  0
C  C42  1  0.47238441  0.67634846  0.67591848  1  1.573223  0  0.272092  0.642126  0  4.086833  0
C  C43  1  0.52761445  0.32365441  0.32407864  1  1.573132  0  0.271999  0.642  0  4.087176  0
C  C44  1  0.97361806  0.81836020  0.67600674  1  1.584689  0  0.270905  0.638638  0  4.087077  0
C  C45  1  0.02638677  0.18164356  0.32399464  1  1.585646  0  0.270896  0.638649  0  4.087368  0
C  C46  1  0.97363749  0.81578265  0.81850477  1  1.593601  0  0.267621  0.658794  0  4.072551  0
C  C47  1  0.02636730  0.18421888  0.18149312  1  1.593581  0  0.267497  0.658786  0  4.072548  0
C  C48  1  0.96117824  0.85546770  0.86514271  1  -0.004521  0  -0.016466  -0.061236  0  3.987675  0
C  C49  1  0.03882508  0.14453159  0.13485716  1  -0.004291  0  -0.016452  -0.061201  0  3.987618  0
C  C50  1  0.12666214  0.89117869  0.87605484  1  0.026756  0  -0.107842  -0.245806  0  4.012346  0
C  C51  1  0.87334269  0.10881791  0.12394936  1  0.0272  0  -0.107881  -0.245876  0  4.012531  0
C  C52  1  0.12580363  0.93143776  0.91709608  1  0.487848  0  0.081807  0.295776  0  4.042987  0
C  C53  1  0.87419674  0.06855704  0.08290893  1  0.4873  0  0.081875  0.295724  0  4.042844  0
C  C54  1  0.95542432  0.93773277  0.94937659  1  0.038063  0  -0.032001  -0.104635  0  4.033119  0
C  C55  1  0.04456712  0.06226382  0.05062569  1  0.038135  0  -0.031989  -0.104671  0  4.033135  0
C  C56  1  0.78877269  0.90185988  0.93751532  1  0.456199  0  0.074702  0.202066  0  4.056938  0
C  C57  1  0.21121874  0.09813760  0.06248461  1  0.456798  0  0.074647  0.201998  0  4.056925  0
C  C58  1  0.79013688  0.86032754  0.89694623  1  0.14815  0  -0.001613  -0.000658  0  4.027864  0
C  C59  1  0.20986346  0.13967175  0.10305170  1  0.14809  0  -0.001637  -0.000745  0  4.027797  0
C  C60  1  0.94642065  0.97486137  0.99552540  1  -0.079679  0  -0.096126  -0.108766  0  4.012387  0
C  C61  1  0.05356187  0.02513746  0.00447533  1  0.020036  0  -0.096164  -0.108823  0  4.012475  0
C  C62  1  0.03240800  0.13745049  0.36828193  1  -0.024049  0  -0.006186  -0.009842  0  3.985993  0
C  C63  1  0.96759236  0.86255193  0.63171792  1  -0.024091  0  -0.006203  -0.009819  0  3.985857  0
C  C64  1  0.85814330  0.11053839  0.38704182  1  0.009245  0  -0.091992  -0.214152  0  3.92633  0
C  C65  1  0.14185706  0.88946359  0.61295803  1  0.008867  0  -0.091984  -0.214112  0  3.926232  0
C  C66  1  0.86586106  0.06856561  0.42809941  1  0.585111  0  0.099682  0.271138  0  4.027065  0
C  C67  1  0.13414821  0.93143593  0.57189965  1  0.585025  0  0.099624  0.271036  0  4.026841  0
C  C68  1  0.05430288  0.05398089  0.45037496  1  0.31979  0  0.083804  0.054659  0  4.04722  0
C  C69  1  0.94570638  0.94602020  0.54962331  1  0.319713  0  0.083774  0.054758  0  4.047061  0
C  C70  1  0.22820684  0.08184694  0.43069127  1  0.016803  0  -0.083558  -0.127673  0  3.994423  0
C  C71  1  0.77179943  0.91815325  0.56930429  1  0.016432  0  -0.083582  -0.127659  0  3.994511  0
C  C72  1  0.21802055  0.12304551  0.39019064  1  -0.044309  0  -0.092774  -0.117185  0  4.004567  0
C  C73  1  0.78197978  0.87695467  0.60980610  1  -0.044137  0  -0.092776  -0.11726  0  4.00469  0
C  C74  1  0.46652781  0.63198331  0.86411092  1  -0.053937  0  -0.0112  -0.037949  0  3.949738  0
C  C75  1  0.53347107  0.36801732  0.13589012  1  -0.05345  0  -0.011189  -0.037878  0  3.949692  0
C  C76  1  0.64187869  0.60779289  0.88513607  1  -0.05517  0  -0.077693  -0.075779  0  3.968512  0
C  C77  1  0.35811423  0.39220370  0.11486464  1  -0.056036  0  -0.077716  -0.075855  0  3.96852  0
C  C78  1  0.63352268  0.56786303  0.92706924  1  0.030665  0  -0.080897  -0.138486  0  3.941452  0
C  C79  1  0.36647321  0.43213356  0.07293068  1  0.031169  0  -0.080919  -0.138502  0  3.941278  0
C  C80  1  0.44770220  0.55187760  0.94897695  1  0.265336  0  0.09088  0.176244  0  4.032909  0
C  C81  1  0.55229368  0.44811855  0.05102219  1  0.265213  0  0.090907  0.176368  0  4.032966  0
C  C82  1  0.27259844  0.57670394  0.92866070  1  -0.028249  0  -0.077216  -0.136326  0  3.946323  0
C  C83  1  0.72740042  0.42329579  0.07133840  1  -0.028209  0  -0.077236  -0.136307  0  3.946427  0
C  C84  1  0.28198682  0.61636836  0.88636142  1  -0.008907  0  -0.079394  -0.082244  0  3.969333  0
C  C85  1  0.71801205  0.38363182  0.11363885  1  -0.008886  0  -0.079391  -0.082309  0  3.969373  0
C  C86  1  0.46511046  0.63333767  0.63182112  1  0.011447  0  -0.006452  -0.011997  0  3.9852  0
C  C87  1  0.53489285  0.36666386  0.36817678  1  0.011637  0  -0.006464  -0.012071  0  3.985303  0
C  C88  1  0.63959611  0.60731159  0.61316322  1  -0.01467  0  -0.091771  -0.212368  0  3.927296  0
C  C89  1  0.36040721  0.39269128  0.38683584  1  -0.015012  0  -0.091731  -0.21219  0  3.927353  0
C  C90  1  0.63243410  0.56643737  0.57223636  1  0.603527  0  0.099978  0.271364  0  4.029277  0
C  C91  1  0.36756773  0.43356550  0.42776192  1  0.603953  0  0.099892  0.27125  0  4.02949  0
C  C92  1  0.44435324  0.55213721  0.54979782  1  0.323091  0  0.084874  0.056762  0  4.045348  0
C  C93  1  0.55565157  0.44786432  0.45020125  1  0.323089  0  0.084917  0.056809  0  4.045385  0
C  C94  1  0.27017351  0.57909165  0.56940226  1  0.022535  0  -0.083863  -0.129691  0  3.992697  0
C  C95  1  0.72982832  0.42090898  0.43059644  1  0.022856  0  -0.083861  -0.129647  0  3.99257  0
C  C96  1  0.27973443  0.61917927  0.60987014  1  -0.058526  0  -0.091944  -0.115508  0  4.00101  0
C  C97  1  0.72027037  0.38082047  0.39012933  1  -0.058604  0  -0.091923  -0.115496  0  4.000917  0
N  N98  1  0.07909918  0.01312515  0.49088614  1  -0.586613  0  -0.16196  -0.115758  0  3.385403  0
N  N99  1  0.92090859  0.98687593  0.50911136  1  -0.626581  0  -0.161898  -0.115753  0  3.385319  0
N  N100  1  0.42048991  0.51144383  0.99136243  1  -0.500918  0  -0.148105  -0.136382  0  3.277701  0
N  N101  1  0.57950448  0.48855097  0.00863595  1  -0.452505  0  -0.148068  -0.136508  0  3.277756  0
N  N102  1  0.42064776  0.51262222  0.50909426  1  -0.585091  0  -0.161506  -0.115719  0  3.381192  0
N  N103  1  0.57935705  0.48737976  0.49090441  1  -0.620629  0  -0.161469  -0.115647  0  3.381085  0
Cl  Cl104  1  0.41988858  0.18333641  0.10963052  1  -0.176232  0  0.025791  -0.018749  0  1.624756  0
Cl  Cl105  1  0.58011916  0.81666289  0.89036426  1  -0.176255  0  0.025775  -0.018732  0  1.624804  0
O  O106  1  0.30710284  0.69797111  0.69092673  1  -1.259155  0  -0.22964  -0.582553  0  2.360158  0
O  O107  1  0.69288561  0.30202907  0.30907084  1  -1.259768  0  -0.229515  -0.582401  0  2.360357  0
O  O108  1  0.64728515  0.69018847  0.80185076  1  -1.256161  0  -0.239884  -0.606142  0  2.357176  0
O  O109  1  0.35271224  0.30981171  0.19814991  1  -1.256188  0  -0.23986  -0.606082  0  2.357074  0
O  O110  1  0.81179670  0.80266582  0.79619874  1  -1.255865  0  -0.236749  -0.605392  0  2.41023  0
O  O111  1  0.18820809  0.19733751  0.20379758  1  -1.255889  0  -0.23671  -0.605359  0  2.410115  0
O  O112  1  0.64140396  0.68779191  0.69556663  1  -1.258655  0  -0.232474  -0.587285  0  2.33719  0
O  O113  1  0.35858748  0.31221141  0.30443246  1  -1.258125  0  -0.232454  -0.587204  0  2.337152  0
O  O114  1  0.80726385  0.79597732  0.69010871  1  -1.255853  0  -0.230279  -0.580652  0  2.365019  0
O  O115  1  0.19274096  0.20402376  0.30988997  1  -1.256617  0  -0.230324  -0.580738  0  2.365165  0
O  O116  1  0.30966448  0.68881991  0.79803385  1  -1.262853  0  -0.239425  -0.60431  0  2.359727  0
O  O117  1  0.69033291  0.31118116  0.20196680  1  -1.262837  0  -0.239423  -0.604301  0  2.35982  0
O  O118  1  0.47957195  0.78307191  0.74801939  1  -1.431892  0  -0.448609  -0.985827  0  2.176689  0
O  O119  1  0.52042840  0.21692827  0.25198048  1  -1.431981  0  -0.448663  -0.985967  0  2.176548  0
O  O120  1  0.14121660  0.80691473  0.69667873  1  -1.260037  0  -0.233866  -0.585884  0  2.328417  0
O  O121  1  0.85879119  0.19308590  0.30332268  1  -1.260268  0  -0.233821  -0.585829  0  2.328563  0
O  O122  1  0.14694918  0.79964620  0.80388132  1  -1.252218  0  -0.23706  -0.590163  0  2.322193  0
O  O123  1  0.85305563  0.20035533  0.19611814  1  -1.252245  0  -0.236994  -0.590146  0  2.322257  0
O  O124  1  0.97942140  0.70994222  0.74731884  1  -1.405707  0  -0.448704  -0.990968  0  2.188851  0
O  O125  1  0.02058044  0.29005841  0.25268141  1  -1.405804  0  -0.448704  -0.990963  0  2.188861  0
O  O126  1  0.19911859  0.45887183  0.44538773  1  -1.146642  0  -0.333127  -0.407378  0  2.336698  0
O  O127  1  0.80088176  0.54113060  0.55461173  1  -1.14635  0  -0.333089  -0.407255  0  2.336848  0
O  O128  1  0.61466195  0.90732283  0.96559263  1  -1.10872  0  -0.341892  -0.438018  0  2.376861  0
O  O129  1  0.38532502  0.09267153  0.03440656  1  -1.109061  0  -0.341786  -0.437769  0  2.376732  0
O  O130  1  0.71024835  0.03434033  0.07251309  1  -1.172183  0  -0.370668  -0.474082  0  2.312519  0
O  O131  1  0.28974906  0.96565312  0.92749389  1  -1.17222  0  -0.370606  -0.474436  0  2.312847  0
O  O132  1  0.30237129  0.95757173  0.55408892  1  -1.162357  0  -0.333669  -0.407797  0  2.336729  0
O  O133  1  0.69763946  0.04243025  0.44590973  1  -1.162336  0  -0.333769  -0.407874  0  2.336875  0
