# generated using pymatgen
data_KH4C4BrN2O3
_symmetry_space_group_name_H-M   'P 1'
_cell_length_a   7.26878803
_cell_length_b   8.04758791
_cell_length_c   13.28296776
_cell_angle_alpha   97.56602279
_cell_angle_beta   89.99956483
_cell_angle_gamma   89.99986708
_symmetry_Int_Tables_number   1
_chemical_formula_structural   KH4C4BrN2O3
_chemical_formula_sum   'K4 H16 C16 Br4 N8 O12'
_cell_volume   770.23853187
_cell_formula_units_Z   4
loop_
 _symmetry_equiv_pos_site_id
 _symmetry_equiv_pos_as_xyz
  1  'x, y, z'
loop_
 _atom_site_type_symbol
 _atom_site_label
 _atom_site_symmetry_multiplicity
 _atom_site_fract_x
 _atom_site_fract_y
 _atom_site_fract_z
 _atom_site_occupancy
 _atom_site_hle17_bader_spin_density
 _atom_site_hle17_ddec_charge
 _atom_site_hle17_ddec_spin_density
 _atom_site_hle17_ddec_sum_bond_order
 _atom_site_hle17_magmom
 _atom_site_hse06_10hf_bader_spin_density
 _atom_site_hse06_10hf_ddec_charge
 _atom_site_hse06_10hf_ddec_spin_density
 _atom_site_hse06_10hf_ddec_sum_bond_order
 _atom_site_hse06_10hf_magmom
 _atom_site_hse06_bader_spin_density
 _atom_site_hse06_ddec_charge
 _atom_site_hse06_ddec_spin_density
 _atom_site_hse06_ddec_sum_bond_order
 _atom_site_hse06_magmom
 _atom_site_pbe_bader_spin_density
 _atom_site_pbe_cm5_charge
 _atom_site_pbe_ddec_charge
 _atom_site_pbe_ddec_spin_density
 _atom_site_pbe_ddec_sum_bond_order
 _atom_site_pbe_magmom
K  K0  1  0.05374699  0.30328911  0.80505884  1  0  0.92491  0  0.428446  0  0  0.873451  0  0.616886  0  0  0.886086  0  0.595978  0  0  0.677876  0.863976  0  0.631883  0
K  K1  1  0.55374185  0.19669258  0.69492303  1  0  0.924907  0  0.428419  0  0  0.873438  0  0.616871  0  0  0.886072  0  0.595963  0  0  0.677822  0.86396  0  0.631867  0
K  K2  1  0.94625318  0.69672322  0.19493910  1  0  0.92494  0  0.428439  0  0  0.873443  0  0.616928  0  0  0.886089  0  0.596025  0  0  0.677909  0.863979  0  0.631926  0
K  K3  1  0.44625282  0.80327094  0.30504987  1  0  0.924945  0  0.428431  0  0  0.873426  0  0.61695  0  0  0.88607  0  0.596049  0  0  0.677933  0.86396  0  0.631948  0
H  H4  1  0.79525316  0.93588161  0.48477662  1  0  0.154789  0  0.961707  0  0  0.161163  0  1.027402  0  0  0.165866  0  1.024685  0  0  0.110188  0.157685  0  1.029594  0
H  H5  1  0.29525339  0.56411926  0.01522254  1  0  0.154799  0  0.961632  0  0  0.1612  0  1.027313  0  0  0.165895  0  1.024605  0  0  0.110191  0.157723  0  1.029508  0
H  H6  1  0.20473876  0.06411817  0.51522407  1  0  0.154781  0  0.961683  0  0  0.161164  0  1.027399  0  0  0.165859  0  1.02469  0  0  0.11018  0.157686  0  1.029588  0
H  H7  1  0.70474954  0.43588806  0.98477424  1  0  0.154769  0  0.961705  0  0  0.161169  0  1.027397  0  0  0.16586  0  1.024697  0  0  0.110188  0.157695  0  1.029586  0
H  H8  1  0.01477242  0.84072912  0.48356129  1  0  0.164691  0  0.921223  0  0  0.174206  0  0.984885  0  0  0.178469  0  0.982204  0  0  0.125852  0.171031  0  0.98709  0
H  H9  1  0.51478230  0.65926763  0.01643866  1  0  0.164662  0  0.92127  0  0  0.174164  0  0.984974  0  0  0.178425  0  0.982291  0  0  0.12579  0.17099  0  0.987181  0
H  H10  1  0.98521676  0.15926941  0.51643703  1  0  0.164594  0  0.921301  0  0  0.174117  0  0.985001  0  0  0.178379  0  0.982328  0  0  0.125799  0.170945  0  0.987199  0
H  H11  1  0.48523026  0.34073339  0.98356589  1  0  0.164688  0  0.921231  0  0  0.174214  0  0.984902  0  0  0.178477  0  0.982227  0  0  0.125848  0.171043  0  0.987103  0
H  H12  1  0.73156635  0.42814630  0.49158554  1  0  0.318452  0  0.914125  0  0  0.294441  0  0.986177  0  0  0.304593  0  0.977678  0  0  0.281256  0.287262  0  0.992189  0
H  H13  1  0.23157216  0.07184970  0.00841845  1  0  0.318436  0  0.914144  0  0  0.294397  0  0.986188  0  0  0.304549  0  0.977689  0  0  0.28123  0.287218  0  0.9922  0
H  H14  1  0.26842833  0.57184846  0.50841323  1  0  0.318446  0  0.91413  0  0  0.294407  0  0.986181  0  0  0.30456  0  0.97768  0  0  0.281256  0.287224  0  0.992194  0
H  H15  1  0.76843352  0.92816133  0.99159143  1  0  0.318483  0  0.914171  0  0  0.294485  0  0.986189  0  0  0.304637  0  0.977688  0  0  0.281335  0.287306  0  0.992204  0
H  H16  1  0.88168819  0.72920084  0.75259846  1  0  0.329785  0  0.886191  0  0  0.305976  0  0.956345  0  0  0.316231  0  0.947313  0  0  0.295626  0.298685  0  0.962804  0
H  H17  1  0.38168460  0.77080360  0.74739778  1  0  0.329661  0  0.886326  0  0  0.305913  0  0.956389  0  0  0.316169  0  0.947355  0  0  0.295562  0.29862  0  0.962841  0
H  H18  1  0.11830924  0.27079267  0.24740021  1  0  0.329657  0  0.886336  0  0  0.305883  0  0.956433  0  0  0.316141  0  0.947395  0  0  0.295566  0.298595  0  0.962888  0
H  H19  1  0.61831420  0.22921498  0.25260442  1  0  0.329801  0  0.886118  0  0  0.305944  0  0.956314  0  0  0.316202  0  0.947276  0  0  0.295588  0.298653  0  0.962774  0
C  C20  1  0.88240295  0.86036395  0.62618141  1  0  0.670264  0  3.757287  0  0  0.623392  0  4.050235  0  0  0.653567  0  4.047408  0  0  0.260514  0.602446  0  4.052493  0
C  C21  1  0.38241575  0.63963047  0.87381477  1  0  0.670106  0  3.757539  0  0  0.623266  0  4.050473  0  0  0.65347  0  4.047593  0  0  0.260518  0.60232  0  4.052728  0
C  C22  1  0.11759035  0.13963334  0.37381531  1  0  0.670002  0  3.757163  0  0  0.623299  0  4.049919  0  0  0.65348  0  4.047069  0  0  0.260521  0.602364  0  4.052176  0
C  C23  1  0.61759956  0.36036806  0.12618581  1  0  0.670089  0  3.757085  0  0  0.623413  0  4.049776  0  0  0.653575  0  4.046962  0  0  0.260571  0.602501  0  4.052002  0
C  C24  1  0.79620702  0.66952827  0.46407444  1  0  0.676794  0  3.76919  0  0  0.630494  0  4.059987  0  0  0.661234  0  4.056204  0  0  0.252769  0.609455  0  4.062335  0
C  C25  1  0.29620356  0.83047382  0.03593234  1  0  0.676883  0  3.769685  0  0  0.630507  0  4.060518  0  0  0.661244  0  4.056738  0  0  0.252833  0.609471  0  4.062863  0
C  C26  1  0.20378353  0.33047151  0.53592625  1  0  0.676742  0  3.769709  0  0  0.630438  0  4.06047  0  0  0.661182  0  4.056688  0  0  0.252678  0.609396  0  4.062804  0
C  C27  1  0.70379937  0.16953220  0.96407562  1  0  0.677002  0  3.769431  0  0  0.630692  0  4.060261  0  0  0.661431  0  4.056477  0  0  0.252809  0.609654  0  4.062601  0
C  C28  1  0.82101617  0.56058110  0.62713438  1  0  0.789625  0  3.8005  0  0  0.723714  0  4.096989  0  0  0.759537  0  4.091494  0  0  0.356907  0.699305  0  4.10024  0
C  C29  1  0.32102139  0.93941220  0.87287701  1  0  0.789805  0  3.800051  0  0  0.723863  0  4.096485  0  0  0.759686  0  4.090993  0  0  0.357024  0.699445  0  4.099739  0
C  C30  1  0.17899501  0.43941991  0.37287092  1  0  0.789596  0  3.800293  0  0  0.723747  0  4.096622  0  0  0.75957  0  4.091124  0  0  0.356951  0.699329  0  4.099884  0
C  C31  1  0.67899529  0.06058383  0.12712036  1  0  0.789868  0  3.79933  0  0  0.723789  0  4.096091  0  0  0.759611  0  4.090596  0  0  0.357071  0.699389  0  4.099326  0
C  C32  1  0.87265114  0.83295474  0.51238909  1  0  -0.453796  0  3.690426  0  0  -0.483586  0  3.912579  0  0  -0.495054  0  3.915463  0  0  -0.156991  -0.475628  0  3.911187  0
C  C33  1  0.37265949  0.66704469  0.98761657  1  0  -0.453672  0  3.690249  0  0  -0.483524  0  3.912438  0  0  -0.494995  0  3.915324  0  0  -0.15692  -0.475566  0  3.911047  0
C  C34  1  0.12734216  0.16704629  0.48761321  1  0  -0.453486  0  3.690339  0  0  -0.483455  0  3.912633  0  0  -0.494929  0  3.915549  0  0  -0.156883  -0.4755  0  3.911237  0
C  C35  1  0.62735032  0.33295508  0.01238562  1  0  -0.45377  0  3.690381  0  0  -0.483675  0  3.91253  0  0  -0.495143  0  3.915457  0  0  -0.157017  -0.475731  0  3.911125  0
Br  Br36  1  0.10823446  0.31674494  0.07512499  1  0  -0.688208  0  0.726071  0  0  -0.643091  0  0.952332  0  0  -0.658479  0  0.934092  0  0  -0.321852  -0.630975  0  0.9651  0
Br  Br37  1  0.60826871  0.18323139  0.42487940  1  0  -0.688218  0  0.72608  0  0  -0.643029  0  0.952279  0  0  -0.658409  0  0.934042  0  0  -0.321856  -0.630915  0  0.965046  0
Br  Br38  1  0.89172582  0.68322599  0.92487862  1  0  -0.688232  0  0.726044  0  0  -0.643043  0  0.952215  0  0  -0.658431  0  0.933974  0  0  -0.321866  -0.630925  0  0.964985  0
Br  Br39  1  0.39172321  0.81677590  0.57512264  1  0  -0.68819  0  0.726058  0  0  -0.643031  0  0.95225  0  0  -0.658416  0  0.934011  0  0  -0.321869  -0.630917  0  0.965017  0
N  N40  1  0.78439872  0.54375134  0.52422592  1  0  -0.5416  0  3.25778  0  0  -0.480052  0  3.492793  0  0  -0.507759  0  3.495398  0  0  -0.388229  -0.461055  0  3.490571  0
N  N41  1  0.28440380  0.95625214  0.97577666  1  0  -0.541772  0  3.258378  0  0  -0.479996  0  3.493169  0  0  -0.507677  0  3.495729  0  0  -0.388291  -0.461022  0  3.491008  0
N  N42  1  0.21559596  0.45625093  0.47577797  1  0  -0.541732  0  3.258294  0  0  -0.480004  0  3.492998  0  0  -0.507681  0  3.49555  0  0  -0.388291  -0.461049  0  3.490884  0
N  N43  1  0.71560463  0.04375265  0.02422443  1  0  -0.541789  0  3.258298  0  0  -0.480176  0  3.493342  0  0  -0.507854  0  3.495896  0  0  -0.388404  -0.461197  0  3.491154  0
N  N44  1  0.86947490  0.71824996  0.67398494  1  0  -0.535237  0  3.212959  0  0  -0.473436  0  3.446003  0  0  -0.499964  0  3.446494  0  0  -0.380195  -0.455248  0  3.44561  0
N  N45  1  0.36947429  0.78174698  0.82601752  1  0  -0.535092  0  3.213024  0  0  -0.473366  0  3.446047  0  0  -0.499908  0  3.446528  0  0  -0.380143  -0.455169  0  3.44565  0
N  N46  1  0.13052391  0.28175357  0.32601681  1  0  -0.534959  0  3.212935  0  0  -0.473288  0  3.445902  0  0  -0.499812  0  3.44638  0  0  -0.380122  -0.455101  0  3.445517  0
N  N47  1  0.63053277  0.21824903  0.17398361  1  0  -0.535242  0  3.212683  0  0  -0.473402  0  3.445768  0  0  -0.49992  0  3.446253  0  0  -0.38016  -0.455227  0  3.445369  0
O  O48  1  0.80955739  0.43902719  0.67486890  1  0  -0.648722  0  1.923449  0  0  -0.612397  0  2.162508  0  0  -0.633026  0  2.152276  0  0  -0.403728  -0.598163  0  2.16925  0
O  O49  1  0.30956420  0.06097368  0.82512931  1  0  -0.649004  0  1.9228  0  0  -0.612674  0  2.161807  0  0  -0.633335  0  2.15163  0  0  -0.403906  -0.598431  0  2.16855  0
O  O50  1  0.19044003  0.56097387  0.32512512  1  0  -0.648746  0  1.92327  0  0  -0.612431  0  2.162223  0  0  -0.633093  0  2.152054  0  0  -0.403767  -0.598188  0  2.168974  0
O  O51  1  0.69043460  0.93902480  0.17488106  1  0  -0.648987  0  1.922473  0  0  -0.612564  0  2.161544  0  0  -0.633237  0  2.151399  0  0  -0.403931  -0.598328  0  2.168281  0
O  O52  1  0.75292400  0.64479620  0.37334876  1  0  -0.600857  0  1.931142  0  0  -0.567424  0  2.167521  0  0  -0.585965  0  2.158329  0  0  -0.385484  -0.554739  0  2.173706  0
O  O53  1  0.25293020  0.85519981  0.12664490  1  0  -0.600782  0  1.931611  0  0  -0.567369  0  2.168064  0  0  -0.585907  0  2.158876  0  0  -0.385452  -0.554672  0  2.174226  0
O  O54  1  0.24707067  0.35519982  0.62664861  1  0  -0.600857  0  1.931428  0  0  -0.567458  0  2.167824  0  0  -0.586016  0  2.15865  0  0  -0.385442  -0.554745  0  2.173963  0
O  O55  1  0.74708236  0.14479870  0.87336095  1  0  -0.600784  0  1.931262  0  0  -0.567366  0  2.167665  0  0  -0.585912  0  2.158481  0  0  -0.385346  -0.554667  0  2.17382  0
O  O56  1  0.90490119  0.00056178  0.67431171  1  0  -0.560853  0  1.90317  0  0  -0.526882  0  2.131712  0  0  -0.545347  0  2.123479  0  0  -0.3245  -0.51408  0  2.137385  0
O  O57  1  0.40490557  0.49944632  0.82568368  1  0  -0.560712  0  1.903539  0  0  -0.526733  0  2.132021  0  0  -0.545209  0  2.123772  0  0  -0.324424  -0.513938  0  2.137705  0
O  O58  1  0.09509624  0.99943048  0.32568761  1  0  -0.560808  0  1.90312  0  0  -0.526833  0  2.13149  0  0  -0.54534  0  2.123338  0  0  -0.3245  -0.514018  0  2.137133  0
O  O59  1  0.59511525  0.50057479  0.17430970  1  0  -0.560864  0  1.903068  0  0  -0.526926  0  2.131491  0  0  -0.545398  0  2.123285  0  0  -0.32459  -0.514116  0  2.137123  0
