# generated using pymatgen
data_CdH10C12S2N2O3
_symmetry_space_group_name_H-M   'P 1'
_cell_length_a   10.26799664
_cell_length_b   14.38765133
_cell_length_c   21.44579565
_cell_angle_alpha   89.99995957
_cell_angle_beta   89.99930433
_cell_angle_gamma   89.99995725
_symmetry_Int_Tables_number   1
_chemical_formula_structural   CdH10C12S2N2O3
_chemical_formula_sum   'Cd8 H80 C96 S16 N16 O24'
_cell_volume   3168.23790517
_cell_formula_units_Z   8
loop_
 _symmetry_equiv_pos_site_id
 _symmetry_equiv_pos_as_xyz
  1  'x, y, z'
loop_
 _atom_site_type_symbol
 _atom_site_label
 _atom_site_symmetry_multiplicity
 _atom_site_fract_x
 _atom_site_fract_y
 _atom_site_fract_z
 _atom_site_occupancy
 _atom_site_pbe_bader_charge
 _atom_site_pbe_bader_spin_density
 _atom_site_pbe_cm5_charge
 _atom_site_pbe_ddec_charge
 _atom_site_pbe_ddec_spin_density
 _atom_site_pbe_ddec_sum_bond_order
 _atom_site_pbe_magmom
Cd  Cd0  1  0.49999488  0.25000418  0.63977377  1  1.015725  0  0.641058  0.641073  0  2.458246  0
Cd  Cd1  1  0.50000476  0.25000545  0.86022630  1  1.0157  0  0.64105  0.641054  0  2.458247  0
Cd  Cd2  1  0.50000400  0.74999560  0.36022702  1  1.015597  0  0.641042  0.641024  0  2.458309  0
Cd  Cd3  1  0.49999704  0.74999920  0.13977355  1  1.015644  0  0.641047  0.641089  0  2.458107  0
Cd  Cd4  1  0.50000432  0.03843172  0.74999962  1  1.05071  0  0.661578  0.664337  0  2.352744  0
Cd  Cd5  1  0.50000312  0.46157722  0.75000138  1  1.051053  0  0.661626  0.66438  0  2.352787  0
Cd  Cd6  1  0.49999359  0.96157085  0.25000024  1  1.050909  0  0.661615  0.664354  0  2.352694  0
Cd  Cd7  1  0.50000355  0.53842465  0.24999847  1  1.051001  0  0.661628  0.664375  0  2.352783  0
H  H8  1  0.51924285  0.16446284  0.50383333  1  0.108675  0  0.1157  0.087648  0  1.016327  0
H  H9  1  0.51924337  0.33553358  0.99616989  1  0.108972  0  0.115695  0.087599  0  1.016313  0
H  H10  1  0.48075132  0.33553664  0.50383154  1  0.109018  0  0.11573  0.087631  0  1.016376  0
H  H11  1  0.48076175  0.16446606  0.99616864  1  0.108676  0  0.115664  0.087631  0  1.01629  0
H  H12  1  0.48075311  0.83553625  0.49616559  1  0.108757  0  0.115723  0.087706  0  1.016195  0
H  H13  1  0.48075649  0.66446134  0.00383276  1  0.108705  0  0.115679  0.087608  0  1.016356  0
H  H14  1  0.51924756  0.66446315  0.49616831  1  0.109042  0  0.115706  0.0876  0  1.016334  0
H  H15  1  0.51924297  0.83553929  0.00383494  1  0.108999  0  0.11571  0.08768  0  1.016244  0
H  H16  1  0.69005227  0.12631276  0.42449375  1  0.116387  0  0.108253  0.127819  0  1.027525  0
H  H17  1  0.69004680  0.37368550  0.07551014  1  0.116177  0  0.108232  0.127756  0  1.027433  0
H  H18  1  0.30994975  0.37368680  0.42449200  1  0.116264  0  0.108251  0.127748  0  1.027568  0
H  H19  1  0.30995039  0.12630680  0.07550711  1  0.116079  0  0.10819  0.127651  0  1.027599  0
H  H20  1  0.30994369  0.87368077  0.57550704  1  0.1163  0  0.10826  0.127831  0  1.027289  0
H  H21  1  0.30995305  0.62631428  0.92449065  1  0.116279  0  0.108235  0.127801  0  1.027453  0
H  H22  1  0.69005108  0.62631576  0.57550971  1  0.116213  0  0.108245  0.127781  0  1.027486  0
H  H23  1  0.69004947  0.87368812  0.92449275  1  0.11614  0  0.108222  0.127717  0  1.0275  0
H  H24  1  0.97614417  0.15362352  0.57184533  1  0.12925  0  0.11193  0.136125  0  1.028055  0
H  H25  1  0.97614640  0.34639002  0.92815988  1  0.129439  0  0.111898  0.136024  0  1.028071  0
H  H26  1  0.02384633  0.34638214  0.57184014  1  0.129349  0  0.111971  0.136126  0  1.02814  0
H  H27  1  0.02385947  0.15362011  0.92815618  1  0.129201  0  0.111886  0.136038  0  1.027984  0
H  H28  1  0.02384984  0.84637140  0.42815592  1  0.129179  0  0.111961  0.136206  0  1.027993  0
H  H29  1  0.02385151  0.65362366  0.07183857  1  0.129141  0  0.111892  0.135983  0  1.028168  0
H  H30  1  0.97615255  0.65361834  0.42816064  1  0.129364  0  0.111929  0.13608  0  1.028154  0
H  H31  1  0.97614720  0.84637620  0.07184088  1  0.129387  0  0.111909  0.136031  0  1.02806  0
H  H32  1  0.79650842  0.19904234  0.64230907  1  0.12224  0  0.110699  0.092171  0  1.001855  0
H  H33  1  0.79651831  0.30096644  0.85769579  1  0.122408  0  0.11069  0.09214  0  1.001816  0
H  H34  1  0.20347739  0.30095976  0.64230379  1  0.12239  0  0.110712  0.092204  0  1.001837  0
H  H35  1  0.20349129  0.19904725  0.85769335  1  0.122316  0  0.11073  0.092243  0  1.001764  0
H  H36  1  0.20348462  0.80095327  0.35769078  1  0.12224  0  0.110725  0.092202  0  1.001759  0
H  H37  1  0.20347960  0.69904099  0.14230406  1  0.122376  0  0.110703  0.092162  0  1.001755  0
H  H38  1  0.79652149  0.69903655  0.35769560  1  0.122391  0  0.110685  0.092138  0  1.001778  0
H  H39  1  0.79651734  0.80095531  0.14230604  1  0.122345  0  0.110726  0.092202  0  1.001828  0
H  H40  1  0.49659731  0.04576251  0.38813522  1  0.115647  0  0.113262  0.092482  0  1.044832  0
H  H41  1  0.49659766  0.45424073  0.11186047  1  0.115683  0  0.113233  0.092382  0  1.044865  0
H  H42  1  0.50340173  0.45423501  0.38813604  1  0.115683  0  0.113255  0.092468  0  1.044764  0
H  H43  1  0.50340251  0.04575432  0.11186240  1  0.115664  0  0.11325  0.092334  0  1.044903  0
H  H44  1  0.50340255  0.95423728  0.61186650  1  0.11562  0  0.113254  0.092484  0  1.044802  0
H  H45  1  0.50340609  0.54576740  0.88813472  1  0.115694  0  0.113234  0.092442  0  1.04486  0
H  H46  1  0.49659812  0.54576338  0.61186334  1  0.115689  0  0.113272  0.092481  0  1.044779  0
H  H47  1  0.49659540  0.95423921  0.88813372  1  0.11569  0  0.113232  0.092456  0  1.044726  0
H  H48  1  0.33331805  0.08969602  0.47011260  1  0.137046  0  0.106918  0.128319  0  1.033197  0
H  H49  1  0.33330591  0.41030800  0.02988731  1  0.136836  0  0.106864  0.128275  0  1.033122  0
H  H50  1  0.66668963  0.41030559  0.47011108  1  0.136929  0  0.106863  0.128353  0  1.033137  0
H  H51  1  0.66669146  0.08968644  0.02988781  1  0.136834  0  0.106839  0.128252  0  1.033242  0
H  H52  1  0.66668181  0.91030446  0.52988912  1  0.137122  0  0.106889  0.128268  0  1.033274  0
H  H53  1  0.66669102  0.58969943  0.97010975  1  0.136878  0  0.106875  0.128253  0  1.033181  0
H  H54  1  0.33331022  0.58969628  0.52988924  1  0.136932  0  0.106857  0.128266  0  1.033121  0
H  H55  1  0.33330937  0.91030292  0.97010878  1  0.13694  0  0.106865  0.128212  0  1.03318  0
H  H56  1  0.03234873  0.04219989  0.33274624  1  0.121491  0  0.113288  0.129444  0  0.997994  0
H  H57  1  0.03235158  0.45779943  0.16726522  1  0.12156  0  0.113241  0.12942  0  0.997893  0
H  H58  1  0.96765073  0.45780534  0.33273595  1  0.121591  0  0.113239  0.129372  0  0.997953  0
H  H59  1  0.96765011  0.04219138  0.16726118  1  0.122076  0  0.113253  0.129382  0  0.997998  0
H  H60  1  0.96765015  0.95779990  0.66725502  1  0.121495  0  0.113299  0.129423  0  0.99801  0
H  H61  1  0.96765607  0.54219827  0.83274023  1  0.122053  0  0.113266  0.129406  0  0.997979  0
H  H62  1  0.03235399  0.54219861  0.66726390  1  0.121575  0  0.113238  0.129386  0  0.99795  0
H  H63  1  0.03235072  0.95779867  0.83273587  1  0.121553  0  0.113258  0.129424  0  0.997916  0
H  H64  1  0.20611486  0.00324703  0.25711693  1  0.122389  0  0.110431  0.092711  0  1.028764  0
H  H65  1  0.20612647  0.49675358  0.24289072  1  0.12238  0  0.110458  0.09275  0  1.028657  0
H  H66  1  0.79387385  0.49675550  0.25710857  1  0.122386  0  0.110448  0.092747  0  1.028638  0
H  H67  1  0.79387624  0.00323785  0.24288818  1  0.122487  0  0.110392  0.09267  0  1.028737  0
H  H68  1  0.79388500  0.99675275  0.74288479  1  0.122357  0  0.110465  0.092769  0  1.02871  0
H  H69  1  0.79388605  0.50324412  0.75711100  1  0.122264  0  0.110445  0.092768  0  1.02867  0
H  H70  1  0.20612600  0.50324429  0.74288849  1  0.122571  0  0.110497  0.092766  0  1.028701  0
H  H71  1  0.20612265  0.99675777  0.75711028  1  0.122776  0  0.11046  0.092753  0  1.028657  0
H  H72  1  0.90732869  0.10135520  0.39770185  1  0.095054  0  0.106557  0.10795  0  1.018092  0
H  H73  1  0.90732155  0.39863877  0.10230589  1  0.094798  0  0.106555  0.107804  0  1.018142  0
H  H74  1  0.09267498  0.39864161  0.39769531  1  0.094855  0  0.106555  0.10784  0  1.018165  0
H  H75  1  0.09267788  0.10134864  0.10229994  1  0.094988  0  0.106536  0.107893  0  1.01808  0
H  H76  1  0.09267311  0.89863971  0.60229847  1  0.095034  0  0.10658  0.107942  0  1.018124  0
H  H77  1  0.09267830  0.60136171  0.89769443  1  0.094863  0  0.106524  0.107808  0  1.018092  0
H  H78  1  0.90732488  0.60136165  0.60230641  1  0.094832  0  0.106542  0.107843  0  1.018129  0
H  H79  1  0.90732100  0.89864350  0.89769711  1  0.09488  0  0.106561  0.107863  0  1.018194  0
H  H80  1  0.11421452  0.11201103  0.50220437  1  0.143316  0  0.1072  0.114244  0  1.016792  0
H  H81  1  0.11420715  0.38799604  0.99780401  1  0.143157  0  0.107251  0.114352  0  1.016901  0
H  H82  1  0.88578846  0.38799679  0.50219599  1  0.143046  0  0.107258  0.114324  0  1.016888  0
H  H83  1  0.88578819  0.11200290  0.99780089  1  0.143003  0  0.107243  0.114329  0  1.016864  0
H  H84  1  0.88578533  0.88798876  0.49779688  1  0.142891  0  0.107208  0.11427  0  1.01681  0
H  H85  1  0.88579075  0.61201209  0.00219677  1  0.143104  0  0.107236  0.114279  0  1.016936  0
H  H86  1  0.11421335  0.61200716  0.49780293  1  0.143066  0  0.107267  0.114329  0  1.016861  0
H  H87  1  0.11421264  0.88799132  0.00219710  1  0.143075  0  0.107267  0.114331  0  1.016833  0
C  C88  1  0.62218780  0.16383032  0.51604568  1  0.427924  0  0.041565  0.089271  0  3.957093  0
C  C89  1  0.62219252  0.33617508  0.98395927  1  0.453801  0  0.041764  0.089554  0  3.957319  0
C  C90  1  0.37780801  0.33617262  0.51604449  1  0.45397  0  0.041597  0.089369  0  3.957172  0
C  C91  1  0.37780901  0.16382665  0.98395676  1  0.427822  0  0.04157  0.08924  0  3.957203  0
C  C92  1  0.37780523  0.83616668  0.48395510  1  0.428046  0  0.041507  0.089187  0  3.956957  0
C  C93  1  0.37781025  0.66382610  0.01604198  1  0.453839  0  0.041589  0.089281  0  3.956954  0
C  C94  1  0.62219477  0.66382716  0.48395909  1  0.453798  0  0.041688  0.089488  0  3.956944  0
C  C95  1  0.62219377  0.83617383  0.01604450  1  0.427834  0  0.041529  0.089201  0  3.95729  0
C  C96  1  0.71704134  0.14240291  0.47243919  1  -0.041328  0  -0.080201  -0.169228  0  3.904672  0
C  C97  1  0.71703320  0.35759534  0.02756407  1  -0.041125  0  -0.080254  -0.169266  0  3.904926  0
C  C98  1  0.28295947  0.35760007  0.47243528  1  -0.041423  0  -0.080129  -0.169081  0  3.904533  0
C  C99  1  0.28296520  0.14240189  0.02755932  1  -0.041048  0  -0.080104  -0.168958  0  3.90502  0
C  C100  1  0.28295560  0.85759200  0.52755880  1  -0.041354  0  -0.080147  -0.169167  0  3.904585  0
C  C101  1  0.28296081  0.64240167  0.97243719  1  -0.041456  0  -0.080139  -0.16916  0  3.904826  0
C  C102  1  0.71704136  0.64240249  0.52756457  1  -0.041527  0  -0.080185  -0.169243  0  3.904781  0
C  C103  1  0.71703661  0.85759859  0.97244100  1  -0.041199  0  -0.080132  -0.16906  0  3.905037  0
C  C104  1  0.84867730  0.13836955  0.49071279  1  0.017183  0  0.013175  0.153543  0  3.999109  0
C  C105  1  0.84867352  0.36163419  0.00929390  1  0.017311  0  0.013169  0.153515  0  3.998805  0
C  C106  1  0.15132012  0.36163064  0.49070825  1  0.017277  0  0.01321  0.153612  0  3.999028  0
C  C107  1  0.15132339  0.13836514  0.00928853  1  0.017648  0  0.013165  0.153458  0  3.99904  0
C  C108  1  0.15131866  0.86162398  0.50928940  1  0.017196  0  0.013117  0.15347  0  3.99906  0
C  C109  1  0.15132438  0.63837115  0.99070782  1  0.017565  0  0.013152  0.153493  0  3.998993  0
C  C110  1  0.84867584  0.63837262  0.50929487  1  0.017461  0  0.013207  0.153701  0  3.998934  0
C  C111  1  0.84867744  0.86162909  0.99070899  1  0.017287  0  0.013161  0.15349  0  3.998984  0
C  C112  1  0.87736662  0.15777434  0.55354739  1  0.010306  0  -0.074722  -0.161264  0  3.883795  0
C  C113  1  0.87736741  0.34223300  0.94645700  1  0.009746  0  -0.074624  -0.161033  0  3.883437  0
C  C114  1  0.12262630  0.34223064  0.55354163  1  0.010309  0  -0.074713  -0.161229  0  3.883661  0
C  C115  1  0.12263800  0.15777433  0.94645225  1  0.010044  0  -0.074672  -0.16107  0  3.883769  0
C  C116  1  0.12262837  0.84222127  0.44645199  1  0.010247  0  -0.074694  -0.161289  0  3.883884  0
C  C117  1  0.12262953  0.65777373  0.05354425  1  0.010013  0  -0.074637  -0.160999  0  3.883515  0
C  C118  1  0.87737355  0.65776984  0.44645776  1  0.009976  0  -0.074693  -0.161218  0  3.883482  0
C  C119  1  0.87736770  0.84222684  0.05354620  1  0.010308  0  -0.074657  -0.161054  0  3.883694  0
C  C120  1  0.77702715  0.18121111  0.59376256  1  0.444495  0  0.042927  0.092142  0  3.946959  0
C  C121  1  0.77703482  0.31880046  0.90624149  1  0.444825  0  0.042919  0.092029  0  3.947113  0
C  C122  1  0.22296378  0.31879383  0.59376041  1  0.444845  0  0.042823  0.091954  0  3.946871  0
C  C123  1  0.22296770  0.18120900  0.90624034  1  0.444347  0  0.042851  0.09192  0  3.947335  0
C  C124  1  0.22296589  0.81878520  0.40623916  1  0.444447  0  0.042821  0.092027  0  3.947226  0
C  C125  1  0.22296601  0.68120836  0.09375883  1  0.444803  0  0.042911  0.092079  0  3.947099  0
C  C126  1  0.77703510  0.68120526  0.40624224  1  0.444892  0  0.042884  0.092035  0  3.94696  0
C  C127  1  0.77703702  0.81879078  0.09375951  1  0.444401  0  0.042831  0.091965  0  3.947261  0
C  C128  1  0.39285568  0.04849336  0.37783747  1  0.435244  0  0.039675  0.090608  0  3.943783  0
C  C129  1  0.39284993  0.45150924  0.12216069  1  0.434955  0  0.039649  0.090592  0  3.94394  0
C  C130  1  0.60714654  0.45150209  0.37783675  1  0.434783  0  0.039596  0.090471  0  3.944041  0
C  C131  1  0.60715192  0.04848649  0.12216109  1  0.435193  0  0.039551  0.090619  0  3.943966  0
C  C132  1  0.60714515  0.95150573  0.62216332  1  0.435241  0  0.039649  0.090602  0  3.9439  0
C  C133  1  0.60714895  0.54849680  0.87783730  1  0.435248  0  0.039614  0.090456  0  3.943776  0
C  C134  1  0.39285429  0.54849491  0.62216403  1  0.434804  0  0.039624  0.090594  0  3.9437  0
C  C135  1  0.39284891  0.95150496  0.87783503  1  0.434907  0  0.03962  0.090543  0  3.943851  0
C  C136  1  0.30197174  0.07332020  0.42275609  1  -0.04677  0  -0.082464  -0.177522  0  3.905487  0
C  C137  1  0.30196716  0.42668383  0.07724820  1  -0.04637  0  -0.082392  -0.177304  0  3.905493  0
C  C138  1  0.69802448  0.42668771  0.42275066  1  -0.046216  0  -0.082341  -0.177379  0  3.905633  0
C  C139  1  0.69803194  0.07330916  0.07724852  1  -0.04629  0  -0.0823  -0.177227  0  3.905697  0
C  C140  1  0.69802714  0.92668306  0.57724563  1  -0.046488  0  -0.082401  -0.177406  0  3.905601  0
C  C141  1  0.69803367  0.57332221  0.92275352  1  -0.046432  0  -0.082456  -0.177312  0  3.905281  0
C  C142  1  0.30197343  0.57331833  0.57725013  1  -0.046174  0  -0.082407  -0.177355  0  3.90533  0
C  C143  1  0.30197279  0.92668228  0.92274714  1  -0.046111  0  -0.082367  -0.177159  0  3.905482  0
C  C144  1  0.16853792  0.07451919  0.40789110  1  0.078123  0  0.014365  0.158617  0  4.004796  0
C  C145  1  0.16852809  0.42548353  0.09211397  1  0.078301  0  0.014438  0.158516  0  4.005059  0
C  C146  1  0.83146647  0.42548178  0.40788768  1  0.078136  0  0.014366  0.158476  0  4.004726  0
C  C147  1  0.83147161  0.07450876  0.09211165  1  0.078099  0  0.01441  0.158361  0  4.005043  0
C  C148  1  0.83146389  0.92548059  0.59211156  1  0.077891  0  0.014361  0.158525  0  4.004765  0
C  C149  1  0.83146982  0.57452251  0.90788821  1  0.077987  0  0.014419  0.15853  0  4.004854  0
C  C150  1  0.16853436  0.57451661  0.59211590  1  0.078045  0  0.014416  0.158433  0  4.004815  0
C  C151  1  0.16853117  0.92548199  0.90788308  1  0.078056  0  0.014439  0.158372  0  4.004919  0
C  C152  1  0.13386689  0.04777755  0.34686852  1  -0.082084  0  -0.076816  -0.163707  0  3.906355  0
C  C153  1  0.13387108  0.45222310  0.15313955  1  -0.082224  0  -0.076945  -0.163812  0  3.906657  0
C  C154  1  0.86612637  0.45223044  0.34686209  1  -0.082459  0  -0.076963  -0.163763  0  3.906552  0
C  C155  1  0.86612805  0.04776773  0.15313797  1  -0.082586  0  -0.076947  -0.163671  0  3.906684  0
C  C156  1  0.86613199  0.95222571  0.65313320  1  -0.082166  0  -0.076916  -0.163683  0  3.90642  0
C  C157  1  0.86613560  0.54777668  0.84686637  1  -0.08271  0  -0.076874  -0.163659  0  3.906262  0
C  C158  1  0.13387154  0.54777421  0.65314103  1  -0.08212  0  -0.076909  -0.16368  0  3.906523  0
C  C159  1  0.13387181  0.95222580  0.84685676  1  -0.082016  0  -0.076997  -0.16378  0  3.906725  0
C  C160  1  0.22998551  0.02401967  0.30458956  1  0.422626  0  0.037328  0.085065  0  3.955363  0
C  C161  1  0.22998470  0.47597884  0.19541281  1  0.422105  0  0.037413  0.085128  0  3.955341  0
C  C162  1  0.77001175  0.47597585  0.30458788  1  0.422153  0  0.037515  0.085183  0  3.95525  0
C  C163  1  0.77001628  0.02401403  0.19541041  1  0.421822  0  0.037442  0.085183  0  3.955468  0
C  C164  1  0.77001630  0.97597872  0.69541169  1  0.422567  0  0.037351  0.085014  0  3.955415  0
C  C165  1  0.77001613  0.52402164  0.80458704  1  0.422626  0  0.037386  0.084969  0  3.955101  0
C  C166  1  0.22998519  0.52402254  0.69541384  1  0.421835  0  0.037336  0.085077  0  3.955561  0
C  C167  1  0.22998358  0.97597672  0.80458618  1  0.421452  0  0.037394  0.085113  0  3.955584  0
C  C168  1  0.94595588  0.11307494  0.44447361  1  -0.036014  0  -0.07287  -0.103263  0  3.93018  0
C  C169  1  0.94594896  0.38692666  0.05553484  1  -0.035786  0  -0.072804  -0.102891  0  3.929949  0
C  C170  1  0.05404758  0.38692738  0.44446636  1  -0.035944  0  -0.072861  -0.103052  0  3.930104  0
C  C171  1  0.05404776  0.11306775  0.05552818  1  -0.035851  0  -0.07279  -0.103089  0  3.93014  0
C  C172  1  0.05404397  0.88692206  0.55552764  1  -0.03639  0  -0.072883  -0.1032  0  3.930352  0
C  C173  1  0.05404700  0.61307590  0.94446688  1  -0.03592  0  -0.07284  -0.10305  0  3.930074  0
C  C174  1  0.94595033  0.61307449  0.55553303  1  -0.035844  0  -0.07281  -0.10303  0  3.930221  0
C  C175  1  0.94594820  0.88692856  0.94446841  1  -0.035863  0  -0.072813  -0.103005  0  3.930189  0
C  C176  1  0.07461830  0.10141517  0.45540044  1  -0.103113  0  -0.075189  -0.112783  0  3.919475  0
C  C177  1  0.07461846  0.39858551  0.04460797  1  -0.102715  0  -0.0753  -0.11308  0  3.919867  0
C  C178  1  0.92538196  0.39858784  0.45539369  1  -0.102712  0  -0.075274  -0.112957  0  3.919712  0
C  C179  1  0.92537951  0.10141030  0.04460415  1  -0.102749  0  -0.075248  -0.112892  0  3.919892  0
C  C180  1  0.92537863  0.89858531  0.54460128  1  -0.102234  0  -0.075202  -0.112849  0  3.919501  0
C  C181  1  0.92538237  0.60141844  0.95539468  1  -0.102842  0  -0.075225  -0.112883  0  3.919773  0
C  C182  1  0.07461594  0.60141751  0.54460756  1  -0.102586  0  -0.07531  -0.113001  0  3.919834  0
C  C183  1  0.07461840  0.89858323  0.95539244  1  -0.102616  0  -0.075306  -0.112984  0  3.919792  0
S  S184  1  0.33763333  0.15890315  0.70447272  1  -0.506947  0  -0.241686  -0.490317  0  2.500448  0
S  S185  1  0.33763793  0.34109823  0.79552643  1  -0.506447  0  -0.241657  -0.490279  0  2.500506  0
S  S186  1  0.66236260  0.34109680  0.70447360  1  -0.506231  0  -0.241676  -0.490347  0  2.500576  0
S  S187  1  0.66236739  0.15890788  0.79552692  1  -0.506915  0  -0.241658  -0.490251  0  2.500473  0
S  S188  1  0.66236166  0.84109663  0.29552713  1  -0.506292  0  -0.241669  -0.490261  0  2.500441  0
S  S189  1  0.66236582  0.65890711  0.20447343  1  -0.50694  0  -0.241678  -0.490357  0  2.500478  0
S  S190  1  0.33763921  0.65890229  0.29552625  1  -0.506423  0  -0.241695  -0.490355  0  2.500447  0
S  S191  1  0.33763052  0.84109469  0.20447293  1  -0.506932  0  -0.241689  -0.490335  0  2.50055  0
S  S192  1  0.27613155  0.06707863  0.63119796  1  3.117703  0  0.476342  1.160867  0  6.245265  0
S  S193  1  0.27613226  0.43292765  0.86879643  1  3.118061  0  0.476194  1.16063  0  6.245777  0
S  S194  1  0.72387304  0.43291932  0.63120030  1  3.118334  0  0.476286  1.160691  0  6.24512  0
S  S195  1  0.72387413  0.06708255  0.86880033  1  3.118346  0  0.476344  1.160856  0  6.245444  0
S  S196  1  0.72387025  0.93292046  0.36880143  1  3.11824  0  0.476295  1.160757  0  6.244942  0
S  S197  1  0.72387441  0.56707978  0.13119970  1  3.118497  0  0.476433  1.160976  0  6.245123  0
S  S198  1  0.27612974  0.56707421  0.36880096  1  3.118353  0  0.476376  1.160849  0  6.245206  0
S  S199  1  0.27612865  0.93292071  0.13119906  1  3.11811  0  0.476276  1.160708  0  6.245204  0
N  N200  1  0.65112160  0.18410669  0.57576406  1  -1.225737  0  -0.341584  -0.221595  0  3.543272  0
N  N201  1  0.65113175  0.31589521  0.92424166  1  -1.251522  0  -0.341736  -0.221729  0  3.543234  0
N  N202  1  0.34886881  0.31589618  0.57575978  1  -1.251649  0  -0.341646  -0.221643  0  3.543429  0
N  N203  1  0.34887422  0.18411145  0.92423744  1  -1.225551  0  -0.341562  -0.221537  0  3.542905  0
N  N204  1  0.34887143  0.81589170  0.42423440  1  -1.225552  0  -0.341549  -0.221529  0  3.543053  0
N  N205  1  0.34886713  0.68410318  0.07576053  1  -1.25166  0  -0.341637  -0.221623  0  3.543061  0
N  N206  1  0.65113105  0.68410221  0.42423961  1  -1.251486  0  -0.341693  -0.221673  0  3.543202  0
N  N207  1  0.65113051  0.81589459  0.07576288  1  -1.225386  0  -0.341546  -0.22155  0  3.54303  0
N  N208  1  0.35822261  0.02470147  0.31927458  1  -1.210675  0  -0.340595  -0.223298  0  3.526439  0
N  N209  1  0.35822802  0.47530115  0.18072798  1  -1.210437  0  -0.340596  -0.223292  0  3.526183  0
N  N210  1  0.64176746  0.47530238  0.31927039  1  -1.210097  0  -0.340662  -0.223296  0  3.526186  0
N  N211  1  0.64177334  0.02469104  0.18072818  1  -1.210562  0  -0.340554  -0.223301  0  3.525974  0
N  N212  1  0.64177822  0.97530040  0.68072620  1  -1.210658  0  -0.34056  -0.223297  0  3.526486  0
N  N213  1  0.64177476  0.52470072  0.81927328  1  -1.210672  0  -0.340531  -0.223152  0  3.52636  0
N  N214  1  0.35822266  0.52469948  0.68072900  1  -1.210365  0  -0.340572  -0.223333  0  3.526323  0
N  N215  1  0.35822262  0.97530388  0.81926981  1  -1.210457  0  -0.340531  -0.223297  0  3.52623  0
O  O216  1  0.13708700  0.08516154  0.62314876  1  -1.308169  0  -0.338123  -0.570499  0  2.180446  0
O  O217  1  0.13709044  0.41485385  0.87684363  1  -1.308308  0  -0.338052  -0.570452  0  2.18087  0
O  O218  1  0.86290806  0.41483781  0.62314843  1  -1.308489  0  -0.338089  -0.570421  0  2.180752  0
O  O219  1  0.86290795  0.08516468  0.87685138  1  -1.308325  0  -0.338117  -0.570481  0  2.180755  0
O  O220  1  0.86290994  0.91483546  0.37685063  1  -1.308257  0  -0.338153  -0.570512  0  2.180559  0
O  O221  1  0.86291526  0.58516053  0.12315156  1  -1.308417  0  -0.338154  -0.570517  0  2.180478  0
O  O222  1  0.13708692  0.58515920  0.37684862  1  -1.308444  0  -0.338117  -0.570506  0  2.180513  0
O  O223  1  0.13708509  0.91483858  0.12314940  1  -1.308232  0  -0.338123  -0.570476  0  2.180529  0
O  O224  1  0.35631632  0.09010811  0.57659820  1  -1.322984  0  -0.346537  -0.600561  0  2.221291  0
O  O225  1  0.35631373  0.40989813  0.92340084  1  -1.323214  0  -0.346567  -0.600583  0  2.221264  0
O  O226  1  0.64367893  0.40989198  0.57659869  1  -1.323396  0  -0.346536  -0.600542  0  2.221183  0
O  O227  1  0.64368154  0.09010993  0.92340100  1  -1.323413  0  -0.346593  -0.60061  0  2.221294  0
O  O228  1  0.64368061  0.90989237  0.42340212  1  -1.323486  0  -0.346544  -0.60057  0  2.221194  0
O  O229  1  0.64368710  0.59010722  0.07659901  1  -1.323395  0  -0.346552  -0.600571  0  2.221214  0
O  O230  1  0.35631703  0.59010363  0.42340023  1  -1.323321  0  -0.346569  -0.600581  0  2.221338  0
O  O231  1  0.35631734  0.90989125  0.07659838  1  -1.323416  0  -0.346513  -0.600494  0  2.22118  0
O  O232  1  0.30458421  0.97407863  0.65730815  1  -1.315242  0  -0.350155  -0.597695  0  2.171806  0
O  O233  1  0.30460158  0.52592685  0.84268538  1  -1.315244  0  -0.350078  -0.597498  0  2.171782  0
O  O234  1  0.69541531  0.52592198  0.65731037  1  -1.31516  0  -0.350142  -0.597626  0  2.171432  0
O  O235  1  0.69541761  0.97408328  0.84268973  1  -1.31528  0  -0.350103  -0.597646  0  2.171698  0
O  O236  1  0.69541662  0.02592185  0.34269124  1  -1.315226  0  -0.350089  -0.597602  0  2.171506  0
O  O237  1  0.69541385  0.47408127  0.15731448  1  -1.315383  0  -0.350163  -0.597669  0  2.171629  0
O  O238  1  0.30458552  0.47407641  0.34268715  1  -1.315317  0  -0.350144  -0.597606  0  2.17164  0
O  O239  1  0.30458419  0.02592067  0.15731059  1  -1.315151  0  -0.350101  -0.597572  0  2.171621  0
