# generated using pymatgen
data_CuMoH40C32(N2O)4
_symmetry_space_group_name_H-M   'P 1'
_cell_length_a   12.01607907
_cell_length_b   13.71506923
_cell_length_c   15.72359019
_cell_angle_alpha   105.01732033
_cell_angle_beta   109.55059858
_cell_angle_gamma   102.27648124
_symmetry_Int_Tables_number   1
_chemical_formula_structural   CuMoH40C32(N2O)4
_chemical_formula_sum   'Cu2 Mo2 H80 C64 N16 O8'
_cell_volume   2227.27557458
_cell_formula_units_Z   2
loop_
 _symmetry_equiv_pos_site_id
 _symmetry_equiv_pos_as_xyz
  1  'x, y, z'
loop_
 _atom_site_type_symbol
 _atom_site_label
 _atom_site_symmetry_multiplicity
 _atom_site_fract_x
 _atom_site_fract_y
 _atom_site_fract_z
 _atom_site_occupancy
 _atom_site_pbe_bader_charge
 _atom_site_pbe_bader_spin_density
 _atom_site_pbe_cm5_charge
 _atom_site_pbe_ddec_charge
 _atom_site_pbe_ddec_spin_density
 _atom_site_pbe_ddec_sum_bond_order
 _atom_site_pbe_magmom
Cu  Cu0  1  0.99999966  0.99999824  0.49999992  1  1.080525  0.579622  0.762562  0.736831  0.742362  2.311422  0.578
Cu  Cu1  1  0.99999800  0.49999751  0.49999941  1  1.041026  0.554338  0.77401  0.681916  0.71571  2.252183  0.553
Mo  Mo2  1  0.78568238  0.17336256  0.41418865  1  2.476768  -0.001769  1.370566  1.963072  -0.002244  5.104771  -0.002
Mo  Mo3  1  0.21431854  0.82663844  0.58581040  1  2.476452  -0.001769  1.370712  1.963421  -0.002244  5.104605  -0.002
H  H4  1  0.15085246  0.99418887  0.10054421  1  0.019444  3.7e-05  0.09209  0.060588  1.7e-05  0.974423  0.0
H  H5  1  0.84914670  0.00581214  0.89945376  1  0.019532  3.7e-05  0.09209  0.060569  1.7e-05  0.974455  0.0
H  H6  1  0.07161497  0.03892553  0.17300501  1  0.059805  -1e-05  0.104095  0.086477  -2e-05  0.979645  0.0
H  H7  1  0.92838356  0.96107388  0.82699243  1  0.059756  -1e-05  0.104106  0.086512  -2e-05  0.979613  0.0
H  H8  1  0.85052013  0.82498419  0.89096129  1  0.04769  2.5e-05  0.10499  0.08297  1.5e-05  0.967784  0.0
H  H9  1  0.14947871  0.17501602  0.10903768  1  0.047696  2.5e-05  0.104981  0.082977  1.5e-05  0.96777  0.0
H  H10  1  0.01656500  0.86524002  0.92883595  1  0.024405  0.000101  0.087964  0.04907  5.7e-05  0.997017  0.0
H  H11  1  0.98343235  0.13475860  0.07116100  1  0.024394  0.0001  0.087985  0.049098  5.7e-05  0.996959  0.0
H  H12  1  0.57590373  0.38837663  0.40090614  1  0.037455  -6e-06  0.105533  0.084093  -8e-06  0.981583  0.0
H  H13  1  0.42409515  0.61162597  0.59909465  1  0.0374  -6e-06  0.10553  0.084119  -8e-06  0.98156  0.0
H  H14  1  0.65973069  0.47040457  0.52524470  1  0.022079  4.5e-05  0.087371  0.058171  -7e-06  1.017932  0.0
H  H15  1  0.34027110  0.52959642  0.47475649  1  0.022119  4.5e-05  0.087367  0.058146  -7e-06  1.017985  0.0
H  H16  1  0.56484074  0.31141023  0.56890736  1  0.026748  -4.4e-05  0.091797  0.063345  -2.8e-05  1.006914  0.0
H  H17  1  0.43516078  0.68859237  0.43109475  1  0.026723  -4.4e-05  0.091818  0.063335  -2.8e-05  1.0069  0.0
H  H18  1  0.51247662  0.24662754  0.44438031  1  0.100849  -0.000262  0.119379  0.123746  -0.000235  0.953325  0.0
H  H19  1  0.48752283  0.75337426  0.55562108  1  0.100814  -0.000262  0.11939  0.123722  -0.000235  0.953326  0.0
H  H20  1  0.09721525  0.80119088  0.23065767  1  0.088247  0.001079  0.105807  0.113843  0.000559  1.00147  0.001
H  H21  1  0.90278504  0.19880852  0.76934150  1  0.088252  0.001079  0.105812  0.11387  0.000559  1.001453  0.001
H  H22  1  0.09391893  0.85639005  0.39473926  1  0.147945  0.001902  0.117674  0.099236  0.000884  1.041308  0.001
H  H23  1  0.90607922  0.14360616  0.60525990  1  0.147854  0.001902  0.117691  0.099253  0.000884  1.041299  0.001
H  H24  1  0.47222624  0.15945145  0.60263095  1  0.102082  0.00124  0.115404  0.127904  0.000654  0.974019  0.001
H  H25  1  0.52777492  0.84054795  0.39736972  1  0.102111  0.00124  0.115402  0.127885  0.000654  0.974047  0.001
H  H26  1  0.80665570  0.97966135  0.30059719  1  0.167806  0.002004  0.110579  0.094372  0.00095  1.068837  0.002
H  H27  1  0.19334214  0.02033406  0.69940172  1  0.167752  0.002004  0.110627  0.094471  0.00095  1.068804  0.002
H  H28  1  0.02722090  0.80243523  0.07025613  1  0.035394  -2e-06  0.091993  0.062052  -1e-06  0.989297  0.0
H  H29  1  0.97278090  0.19756577  0.92974315  1  0.035412  -1e-06  0.092  0.062052  -1e-06  0.989292  0.0
H  H30  1  0.86159047  0.76717654  0.01662184  1  0.047465  -8e-06  0.105078  0.081684  -1.7e-05  0.987677  0.0
H  H31  1  0.13841070  0.23282285  0.98337755  1  0.047455  -8e-06  0.105064  0.081645  -1.7e-05  0.987666  0.0
H  H32  1  0.79626815  0.92663172  0.13433932  1  0.105542  0.001162  0.115462  0.130814  0.000599  0.979123  0.001
H  H33  1  0.20373093  0.07336689  0.86566063  1  0.105605  0.001162  0.115438  0.130801  0.000599  0.979121  0.001
H  H34  1  0.53750111  0.48467806  0.62896863  1  -0.022771  3.6e-05  0.081482  0.0443  1.5e-05  0.994201  0.0
H  H35  1  0.46250009  0.51532374  0.37103386  1  -0.022728  3.6e-05  0.081498  0.04434  1.5e-05  0.994236  0.0
H  H36  1  0.37278096  0.41596986  0.56955286  1  0.03819  -3.9e-05  0.096112  0.071966  -5.6e-05  1.028833  0.0
H  H37  1  0.62722056  0.58403274  0.43044989  1  0.038182  -3.9e-05  0.096103  0.071974  -5.6e-05  1.028841  0.0
H  H38  1  0.23783709  0.26119054  0.39319090  1  0.08069  0.001105  0.104638  0.111261  0.000567  1.017881  0.001
H  H39  1  0.76216173  0.73880966  0.60681061  1  0.080651  0.001105  0.104679  0.111344  0.000567  1.01791  0.001
H  H40  1  0.27901503  0.04533516  0.60022632  1  0.132328  0.002144  0.117243  0.081656  0.000995  1.053444  0.002
H  H41  1  0.72098816  0.95466263  0.39977387  1  0.132372  0.002144  0.117264  0.081704  0.000995  1.053437  0.002
H  H42  1  0.05144632  0.14260386  0.40050615  1  0.128211  0.002087  0.117521  0.09622  0.000972  1.024057  0.002
H  H43  1  0.94855389  0.85739314  0.59949499  1  0.128208  0.002087  0.117541  0.096257  0.000972  1.024026  0.002
H  H44  1  0.01634861  0.29741766  0.18416573  1  0.071727  0.001299  0.106554  0.113094  0.000663  1.016979  0.001
H  H45  1  0.98365287  0.70258254  0.81583456  1  0.071718  0.001299  0.106538  0.113076  0.000663  1.016971  0.001
H  H46  1  0.12194682  0.38511643  0.97235068  1  0.033473  -6e-06  0.100821  0.074596  -8e-06  1.010658  0.0
H  H47  1  0.87805199  0.61488377  0.02765146  1  0.033429  -6e-06  0.100829  0.074567  -8e-06  1.010606  0.0
H  H48  1  0.17122377  0.52725842  0.00906583  1  0.00143  1.6e-05  0.09074  0.056816  7e-06  1.002503  0.0
H  H49  1  0.82877681  0.47274177  0.99093677  1  0.001426  1.6e-05  0.090761  0.056806  7e-06  1.002488  0.0
H  H50  1  0.24900087  0.52920710  0.17782521  1  0.018062  3.9e-05  0.088569  0.054445  2.4e-05  0.9961  0.0
H  H51  1  0.75100211  0.47079469  0.82217646  1  0.018111  3.9e-05  0.088582  0.054454  2.4e-05  0.996087  0.0
H  H52  1  0.18627996  0.38695944  0.13054760  1  0.03179  -6e-06  0.106143  0.085776  -1.7e-05  0.980798  0.0
H  H53  1  0.81371798  0.61304077  0.86945304  1  0.031761  -6e-06  0.106135  0.08574  -1.7e-05  0.980811  0.0
H  H54  1  0.09532555  0.62817970  0.12051130  1  0.010474  6.1e-05  0.086033  0.046543  4.3e-05  0.999756  0.0
H  H55  1  0.90467420  0.37182291  0.87949163  1  0.010508  6.1e-05  0.086017  0.046509  4.3e-05  0.999759  0.0
H  H56  1  0.98971147  0.55389281  0.15631619  1  0.052682  -1.7e-05  0.10466  0.088949  -2.7e-05  0.981112  0.0
H  H57  1  0.01028947  0.44611059  0.84368722  1  0.052766  -1.7e-05  0.104631  0.088882  -2.7e-05  0.98101  0.0
H  H58  1  0.17555275  0.63816069  0.45644239  1  0.190439  0.00227  0.110514  0.085583  0.001041  1.101364  0.002
H  H59  1  0.82444455  0.36183792  0.54355963  1  0.19045  0.002269  0.110521  0.085564  0.00104  1.1014  0.002
H  H60  1  0.23576996  0.63336989  0.32027200  1  0.095035  0.001189  0.109314  0.118119  0.00062  1.003253  0.001
H  H61  1  0.76422886  0.36663032  0.67972950  1  0.095239  0.001189  0.109285  0.118094  0.00062  1.003271  0.001
H  H62  1  0.95885303  0.31821987  0.32762689  1  0.168944  0.002315  0.119465  0.110428  0.001123  1.027077  0.002
H  H63  1  0.04114519  0.68177874  0.67237156  1  0.16897  0.002315  0.119461  0.110421  0.001123  1.027071  0.002
H  H64  1  0.52600914  0.62695546  0.22517100  1  0.054413  -0.000177  0.110032  0.093298  -0.000157  0.965527  0.0
H  H65  1  0.47399142  0.37304235  0.77482660  1  0.054377  -0.000177  0.110032  0.093299  -0.000158  0.965505  0.0
H  H66  1  0.64824937  0.69668195  0.20229454  1  0.022493  -5.1e-05  0.09486  0.068815  -4.4e-05  0.981948  0.0
H  H67  1  0.35175066  0.30331905  0.79770492  1  0.022516  -5.1e-05  0.09488  0.068842  -4.4e-05  0.981943  0.0
H  H68  1  0.96169755  0.69616497  0.47712170  1  0.186784  0.002219  0.112276  0.08609  0.001019  1.079727  0.002
H  H69  1  0.03830127  0.30383523  0.52287980  1  0.186754  0.002218  0.11226  0.086107  0.001019  1.079708  0.002
H  H70  1  0.81618247  0.74823042  0.35632670  1  0.110562  0.000992  0.106131  0.116358  0.000519  1.044725  0.001
H  H71  1  0.18381901  0.25176978  0.64367359  1  0.110565  0.000992  0.106144  0.116378  0.000519  1.044729  0.001
H  H72  1  0.47494296  0.64100155  0.03327849  1  0.020286  4.7e-05  0.091536  0.060582  2.6e-05  0.974057  0.0
H  H73  1  0.52505973  0.35899944  0.96671975  1  0.020337  4.7e-05  0.091552  0.060601  2.6e-05  0.974024  0.0
H  H74  1  0.37271569  0.57114875  0.07404004  1  0.030175  -1e-06  0.097698  0.068404  -3e-06  1.014408  0.0
H  H75  1  0.62728613  0.42885225  0.92595733  1  0.030096  -1e-06  0.097685  0.068386  -3e-06  1.014397  0.0
H  H76  1  0.75373019  0.37520718  0.33440953  1  0.190216  0.002236  0.118899  0.111684  0.00109  1.03757  0.002
H  H77  1  0.24626746  0.62479223  0.66558895  1  0.190222  0.002236  0.118866  0.111627  0.00109  1.037583  0.002
H  H78  1  0.59283138  0.41500162  0.20690788  1  0.098254  0.001211  0.110818  0.118861  0.000635  0.994622  0.001
H  H79  1  0.40716893  0.58499778  0.79308938  1  0.09833  0.001211  0.110833  0.11888  0.000635  0.994639  0.001
H  H80  1  0.70173386  0.50088744  0.10553274  1  0.040075  -1.6e-05  0.103204  0.084214  -2.4e-05  0.984007  0.0
H  H81  1  0.29826915  0.49911436  0.89446449  1  0.040102  -1.6e-05  0.103184  0.084177  -2.5e-05  0.984017  0.0
H  H82  1  0.67420861  0.59975256  0.05371410  1  0.009644  1.9e-05  0.086429  0.050254  8e-06  0.994437  0.0
H  H83  1  0.32579264  0.40024925  0.94628395  1  0.009682  1.9e-05  0.086455  0.050247  8e-06  0.994463  0.0
C  C84  1  0.06562753  0.01473800  0.09883146  1  0.272399  -0.0  -0.06602  -0.071  -2.1e-05  3.943076  0.0
C  C85  1  0.93437100  0.98526141  0.90116725  1  0.272324  0.0  -0.066028  -0.07104  -2e-05  3.943182  0.0
C  C86  1  0.93814802  0.89222248  0.93652259  1  0.271026  4e-05  -0.065649  -0.074328  3.9e-05  3.969602  0.0
C  C87  1  0.06185202  0.10777853  0.06347623  1  0.271049  4e-05  -0.065672  -0.074417  3.9e-05  3.969514  0.0
C  C88  1  0.56892294  0.44359068  0.46200984  1  0.317037  -6.4e-05  -0.070482  -0.074258  -7.4e-05  3.957386  0.0
C  C89  1  0.43107770  0.55641193  0.53799205  1  0.317198  -6.4e-05  -0.070451  -0.074214  -7.4e-05  3.957301  0.0
C  C90  1  0.48527845  0.29160110  0.49877781  1  0.305612  0.000211  -0.058445  -0.108936  8.6e-05  3.945728  0.0
C  C91  1  0.51472219  0.70840150  0.50122471  1  0.305456  0.000211  -0.058446  -0.108793  8.6e-05  3.945695  0.0
C  C92  1  0.02902803  0.83803536  0.24238310  1  -0.121181  0.005293  -0.087549  -0.182365  0.003487  3.943966  0.004
C  C93  1  0.97096987  0.16196245  0.75761573  1  -0.121189  0.005292  -0.087577  -0.18242  0.003487  3.944007  0.004
C  C94  1  0.37057861  0.21980905  0.49740333  1  0.033475  -0.003871  0.018516  0.154557  -0.004279  3.938581  -0.003
C  C95  1  0.62942140  0.78019195  0.50259867  1  0.033795  -0.003871  0.018495  0.154467  -0.004279  3.938539  -0.003
C  C96  1  0.02886933  0.86867452  0.33388121  1  0.521571  4.7e-05  0.047173  0.102029  -0.000485  3.9195  0.0
C  C97  1  0.97112882  0.13132169  0.66611795  1  0.521679  4.8e-05  0.04717  0.102056  -0.000484  3.919483  0.0
C  C98  1  0.38082282  0.15804569  0.55600958  1  -0.04139  0.006153  -0.079442  -0.173288  0.004163  3.923596  0.005
C  C99  1  0.61917658  0.84195371  0.44399063  1  -0.041401  0.006153  -0.079434  -0.173258  0.004164  3.923461  0.005
C  C100  1  0.86774098  0.93714717  0.28244681  1  0.438742  0.000782  0.045777  0.089642  0.000313  3.923818  0.001
C  C101  1  0.13225598  0.06284824  0.71755187  1  0.43884  0.000783  0.045789  0.089609  0.000314  3.923818  0.001
C  C102  1  0.94814678  0.83283420  0.06954715  1  0.288932  0.000269  -0.059371  -0.108932  0.000142  3.977165  0.0
C  C103  1  0.05185383  0.16716601  0.93045164  1  0.288933  0.000268  -0.059338  -0.10884  0.000141  3.976971  0.0
C  C104  1  0.86242709  0.90771021  0.18919680  1  -0.064021  0.005976  -0.084436  -0.180981  0.003999  3.931797  0.005
C  C105  1  0.13757081  0.09228760  0.81080202  1  -0.063839  0.005975  -0.084381  -0.180923  0.003999  3.931754  0.005
C  C106  1  0.45318826  0.45895588  0.55990378  1  0.318897  -5e-06  -0.074243  -0.077395  -2.7e-05  3.967601  0.0
C  C107  1  0.54681326  0.54104672  0.44009897  1  0.318798  -5e-06  -0.07427  -0.077486  -2.7e-05  3.967785  0.0
C  C108  1  0.94604193  0.85895872  0.16815930  1  0.008177  -0.002402  0.007206  0.131342  -0.002682  3.974619  -0.002
C  C109  1  0.05395748  0.14104068  0.83183964  1  0.007925  -0.0024  0.00718  0.131275  -0.002681  3.974589  -0.002
C  C110  1  0.25002138  0.21285529  0.43863957  1  -0.030629  0.005754  -0.087259  -0.18198  0.003892  3.950707  0.005
C  C111  1  0.74997801  0.78714412  0.56136190  1  -0.030652  0.005755  -0.087276  -0.182007  0.003893  3.950721  0.005
C  C112  1  0.27353350  0.09413077  0.55520419  1  0.437436  -0.000482  0.051318  0.09799  -0.000858  3.943844  0.0
C  C113  1  0.72646823  0.90586782  0.44479644  1  0.437457  -0.000482  0.051295  0.097944  -0.000859  3.943755  0.0
C  C114  1  0.14704280  0.14768824  0.44172351  1  0.430532  -0.000912  0.040794  0.091077  -0.001317  3.939569  -0.001
C  C115  1  0.85295773  0.85230955  0.55827790  1  0.43051  -0.000913  0.040752  0.091019  -0.001318  3.93953  -0.001
C  C116  1  0.05410046  0.37432864  0.24328367  1  -0.013368  0.006289  -0.083959  -0.176926  0.004234  3.934931  0.005
C  C117  1  0.94589956  0.62567236  0.75671706  1  -0.013291  0.006289  -0.083911  -0.176849  0.004235  3.934813  0.005
C  C118  1  0.09205959  0.45509232  0.99067711  1  0.326321  -2e-05  -0.06905  -0.076065  -2.7e-05  3.960454  0.0
C  C119  1  0.90794073  0.54490948  0.00932578  1  0.326819  -2.1e-05  -0.069064  -0.075912  -2.8e-05  3.96037  0.0
C  C120  1  0.16358448  0.46012167  0.15471922  1  0.30981  0.00026  -0.060742  -0.105813  0.00012  3.972581  0.0
C  C121  1  0.83641554  0.53987933  0.84528214  1  0.309724  0.00026  -0.060738  -0.105736  0.00012  3.972503  0.0
C  C122  1  0.01820016  0.55209068  0.09660687  1  0.273966  1.3e-05  -0.07003  -0.077614  0.0  3.958813  0.0
C  C123  1  0.98180047  0.44791192  0.90339628  1  0.274443  1.2e-05  -0.069939  -0.077354  -1e-06  3.958548  0.0
C  C124  1  0.14160679  0.56417862  0.39464214  1  0.464226  -0.000939  0.047479  0.100599  -0.001544  3.924937  -0.001
C  C125  1  0.85838964  0.43582000  0.60535839  1  0.464211  -0.000939  0.047509  0.100703  -0.001545  3.924856  -0.001
C  C126  1  0.17545662  0.56009459  0.31782035  1  -0.085633  0.006195  -0.082222  -0.180568  0.004136  3.951061  0.005
C  C127  1  0.82454251  0.43990642  0.68218142  1  -0.085887  0.006195  -0.082222  -0.180614  0.004136  3.951107  0.005
C  C128  1  0.02220481  0.38382362  0.32169228  1  0.423267  -0.000172  0.045794  0.091522  -0.000586  3.903492  0.0
C  C129  1  0.97779428  0.61617499  0.67830767  1  0.423146  -0.000171  0.045763  0.091498  -0.000586  3.903541  0.0
C  C130  1  0.59997226  0.61668695  0.20025362  1  0.310077  0.000232  -0.057975  -0.105588  0.000103  3.972196  0.0
C  C131  1  0.40003012  0.38331325  0.79974563  1  0.309934  0.000232  -0.058004  -0.10567  0.000103  3.972241  0.0
C  C132  1  0.87850122  0.63638746  0.41640499  1  0.406476  -0.000789  0.045313  0.098773  -0.001362  3.918051  -0.001
C  C133  1  0.12149787  0.36361115  0.58359495  1  0.406491  -0.000789  0.045336  0.098799  -0.001362  3.91794  -0.001
C  C134  1  0.13169100  0.46416933  0.24007810  1  0.005234  -0.003551  0.007096  0.132045  -0.003926  3.975814  -0.002
C  C135  1  0.86830871  0.53583087  0.75992237  1  0.005355  -0.003551  0.007091  0.13206  -0.003926  3.975739  -0.002
C  C136  1  0.79657868  0.66445979  0.34846732  1  6.8e-05  0.006114  -0.088549  -0.183192  0.004097  3.939025  0.005
C  C137  1  0.20342280  0.33554041  0.65153297  1  0.000309  0.006112  -0.088589  -0.18323  0.004096  3.939087  0.005
C  C138  1  0.43893934  0.56326090  0.04060019  1  0.309969  -6e-06  -0.068342  -0.076909  -1e-06  3.973804  0.0
C  C139  1  0.56106392  0.43673930  0.95939802  1  0.309999  -5e-06  -0.068367  -0.076875  1e-06  3.973704  0.0
C  C140  1  0.69133616  0.58561965  0.27162681  1  -0.085551  -0.003653  0.010148  0.135196  -0.004013  3.960977  -0.002
C  C141  1  0.30866471  0.41437895  0.72837105  1  -0.085607  -0.003653  0.010144  0.135211  -0.004013  3.960991  -0.002
C  C142  1  0.76030646  0.45629213  0.33515156  1  0.409275  -0.0003  0.045341  0.087778  -0.0007  3.90811  0.0
C  C143  1  0.23969295  0.54370727  0.66484737  1  0.409265  -0.000299  0.045392  0.087937  -0.000699  3.908118  0.0
C  C144  1  0.67354053  0.47938060  0.26578744  1  -0.006345  0.006364  -0.083857  -0.177035  0.00428  3.947176  0.005
C  C145  1  0.32646008  0.52061960  0.73421136  1  -0.006414  0.006364  -0.083895  -0.177126  0.004281  3.947152  0.005
C  C146  1  0.62820848  0.52355975  0.05935110  1  0.283242  -1e-06  -0.069704  -0.075579  -1.6e-05  3.9578  0.0
C  C147  1  0.37179453  0.47644204  0.94064677  1  0.28324  -0.0  -0.069687  -0.075447  -1.5e-05  3.957754  0.0
N  N148  1  0.15845885  0.08979588  0.49963921  1  -1.217902  0.091418  -0.344305  -0.227516  0.060851  3.605143  0.079
N  N149  1  0.84154169  0.91020191  0.50036093  1  -1.217916  0.091421  -0.344314  -0.227521  0.060854  3.605155  0.079
N  N150  1  0.95074989  0.91890011  0.35388663  1  -1.217301  0.089264  -0.337538  -0.233097  0.059658  3.567473  0.077
N  N151  1  0.04924738  0.08109610  0.64611230  1  -1.217393  0.089265  -0.337605  -0.233176  0.059658  3.567495  0.077
N  N152  1  0.95196784  0.92303260  0.03654919  1  -1.00242  0.000343  -0.342702  -0.14748  0.000208  3.485913  0.0
N  N153  1  0.04803158  0.07696680  0.96344911  1  -1.002424  0.000344  -0.342636  -0.147387  0.000209  3.485812  0.0
N  N154  1  0.46700056  0.38697857  0.48025814  1  -1.035181  0.000747  -0.345624  -0.151103  0.000487  3.495868  0.001
N  N155  1  0.53300038  0.61302482  0.51974464  1  -1.035124  0.000747  -0.345608  -0.151136  0.000487  3.495943  0.001
N  N156  1  0.06532455  0.47779117  0.39573305  1  -1.224986  0.095251  -0.34281  -0.213281  0.063761  3.595509  0.084
N  N157  1  0.93467308  0.52220824  0.60426670  1  -1.224942  0.09525  -0.342798  -0.213337  0.063761  3.595521  0.084
N  N158  1  0.86088380  0.53395275  0.40933674  1  -1.217979  0.0966  -0.343706  -0.2175  0.064559  3.588621  0.085
N  N159  1  0.13911622  0.46604826  0.59066399  1  -1.217969  0.096602  -0.3437  -0.217586  0.064561  3.588704  0.085
N  N160  1  0.05918234  0.45952046  0.07263699  1  -1.009868  -0.000138  -0.344936  -0.150926  -0.000176  3.474613  0.0
N  N161  1  0.94081798  0.54048134  0.92736590  1  -1.009869  -0.000138  -0.345012  -0.151162  -0.000175  3.474787  0.0
N  N162  1  0.53972608  0.53696889  0.10288080  1  -1.019508  0.000379  -0.345333  -0.151331  0.000241  3.500464  0.0
N  N163  1  0.46027542  0.46303130  0.89711695  1  -1.019631  0.000378  -0.345341  -0.151332  0.00024  3.50055  0.0
O  O164  1  0.90935453  0.12218155  0.46198813  1  -1.065355  0.001387  -0.603522  -0.886045  0.000376  1.976021  0.002
O  O165  1  0.09064332  0.87781386  0.53800950  1  -1.065344  0.001387  -0.603539  -0.886056  0.000376  1.975952  0.002
O  O166  1  0.85739546  0.30296051  0.41326139  1  -1.080032  -0.00063  -0.601955  -0.893753  -0.001034  1.874329  0.0
O  O167  1  0.14261460  0.69704365  0.58674647  1  -1.079999  -0.00063  -0.601971  -0.893853  -0.001033  1.874319  0.0
O  O168  1  0.68291262  0.08101008  0.29774119  1  -0.993887  7e-05  -0.637806  -0.83296  1e-06  1.579629  0.0
O  O169  1  0.31709115  0.91899812  0.70225513  1  -0.993565  7e-05  -0.637885  -0.833097  2e-06  1.579655  0.0
O  O170  1  0.70922715  0.19053524  0.49275666  1  -0.997934  0.001035  -0.620181  -0.828034  0.000648  1.630886  0.001
O  O171  1  0.29077107  0.80946337  0.50724116  1  -0.997992  0.001035  -0.620223  -0.828143  0.000648  1.63085  0.001
