# generated using pymatgen
data_CuH11C11N5O3
_symmetry_space_group_name_H-M   'P 1'
_cell_length_a   7.61435794
_cell_length_b   9.03680014
_cell_length_c   9.61811115
_cell_angle_alpha   71.80707808
_cell_angle_beta   70.92925207
_cell_angle_gamma   81.75890138
_symmetry_Int_Tables_number   1
_chemical_formula_structural   CuH11C11N5O3
_chemical_formula_sum   'Cu2 H22 C22 N10 O6'
_cell_volume   593.59571140
_cell_formula_units_Z   2
loop_
 _symmetry_equiv_pos_site_id
 _symmetry_equiv_pos_as_xyz
  1  'x, y, z'
loop_
 _atom_site_type_symbol
 _atom_site_label
 _atom_site_symmetry_multiplicity
 _atom_site_fract_x
 _atom_site_fract_y
 _atom_site_fract_z
 _atom_site_occupancy
 _atom_site_hle17_ddec_charge
 _atom_site_hle17_ddec_spin_density
 _atom_site_hle17_ddec_sum_bond_order
 _atom_site_hle17_magmom
 _atom_site_hse06_10hf_ddec_charge
 _atom_site_hse06_10hf_ddec_spin_density
 _atom_site_hse06_10hf_ddec_sum_bond_order
 _atom_site_hse06_10hf_magmom
 _atom_site_hse06_ddec_charge
 _atom_site_hse06_ddec_spin_density
 _atom_site_hse06_ddec_sum_bond_order
 _atom_site_hse06_magmom
 _atom_site_pbe_cm5_charge
 _atom_site_pbe_ddec_charge
 _atom_site_pbe_ddec_spin_density
 _atom_site_pbe_ddec_sum_bond_order
 _atom_site_pbe_magmom
Cu  Cu0  1  0.44997206  0.14775457  0.54824865  1  0.844404  0.62848  1.835273  0.431  0.838479  0.743014  2.238681  0.564  0.933109  0.836187  2.161916  0.657  0.763639  0.787638  0.677714  2.284687  0.504
Cu  Cu1  1  0.55002827  0.85224677  0.45175371  1  0.844437  -0.628475  1.835165  -0.431  0.838498  -0.74301  2.238661  -0.564  0.933134  -0.83619  2.161782  -0.657  0.763629  0.787616  -0.67771  2.284667  -0.504
H  H2  1  0.36729758  0.48541846  0.46961144  1  0.095951  0.000773  0.953422  0.001  0.101751  0.000738  1.021941  0.001  0.104617  0.000568  1.01844  0.001  0.121205  0.099341  0.000858  1.024724  0.002
H  H3  1  0.63270109  0.51458754  0.53038895  1  0.095957  -0.00077  0.953431  -0.001  0.101721  -0.000738  1.021986  -0.001  0.10459  -0.000568  1.018485  -0.001  0.121202  0.099316  -0.000858  1.02477  -0.002
H  H4  1  0.11722373  0.66286939  0.57766039  1  0.116689  0.000617  0.945036  0.001  0.125334  0.000571  1.005637  0.001  0.128458  0.000441  1.005094  0.0  0.110803  0.122764  0.000752  1.006463  0.001
H  H5  1  0.88277214  0.33713662  0.42233970  1  0.11666  -0.000619  0.945078  -0.001  0.125276  -0.000571  1.005707  -0.001  0.128403  -0.00044  1.005161  0.0  0.110774  0.122708  -0.000752  1.006529  -0.001
H  H6  1  0.82477023  0.54909803  0.77552723  1  0.098416  9.1e-05  0.963426  0.0  0.108147  -0.000107  1.030378  0.0  0.110567  -0.000121  1.028245  0.0  0.108592  0.106078  -0.000118  1.032542  0.0
H  H7  1  0.17522436  0.45090564  0.22447180  1  0.098416  -9.7e-05  0.963461  0.0  0.108133  0.000106  1.030416  0.0  0.110555  0.000121  1.028279  0.0  0.10858  0.106058  0.000118  1.032579  0.0
H  H8  1  0.06355458  0.09484470  0.73805016  1  0.08355  0.00058  0.961185  0.001  0.087184  0.000679  1.039402  0.001  0.08894  0.000519  1.037564  0.001  0.117985  0.085458  0.000768  1.041406  0.001
H  H9  1  0.93644567  0.90515780  0.26195084  1  0.083536  -0.000579  0.961233  -0.001  0.087199  -0.00068  1.03937  -0.001  0.088954  -0.000518  1.037535  -0.001  0.117989  0.085475  -0.000768  1.041371  -0.001
H  H10  1  0.97389581  0.35003916  0.05792502  1  0.082318  3e-05  0.941022  0.0  0.102735  1.7e-05  1.007575  0.0  0.102829  1.5e-05  1.008173  0.0  0.094124  0.102215  2.5e-05  1.007985  0.0
H  H11  1  0.02610475  0.64995752  0.94207656  1  0.082294  -2.7e-05  0.941063  0.0  0.102714  -1.9e-05  1.00761  0.0  0.102808  -1.5e-05  1.008208  0.0  0.094115  0.102195  -2.5e-05  1.008021  0.0
H  H12  1  0.98258128  0.14728640  0.07845230  1  0.097744  -8.9e-05  0.934405  0.0  0.119861  -0.000112  0.997571  0.0  0.120478  -8.5e-05  0.997165  0.0  0.105077  0.119162  -0.000128  0.998354  0.0
H  H13  1  0.01741641  0.85271144  0.92154762  1  0.097765  8.8e-05  0.934349  0.0  0.119875  0.00011  0.997524  0.0  0.120493  8.5e-05  0.997117  0.0  0.105092  0.119178  0.000128  0.998305  0.0
H  H14  1  0.83691865  0.22263860  0.23140674  1  0.108236  -5.8e-05  0.966381  0.0  0.122742  -3.7e-05  1.041702  0.0  0.124196  -1.9e-05  1.040863  0.0  0.106098  0.121708  -7.4e-05  1.042032  0.0
H  H15  1  0.16308050  0.77735808  0.76859313  1  0.108235  6e-05  0.966374  0.0  0.122758  3.6e-05  1.041682  0.0  0.12421  2e-05  1.040845  0.0  0.106079  0.121723  7.4e-05  1.042015  0.0
H  H16  1  0.31930772  0.36768937  0.04036161  1  0.101197  -8e-06  0.941124  0.0  0.11884  3.3e-05  0.998053  0.0  0.120824  3.2e-05  0.997362  0.0  0.098806  0.11735  4.7e-05  0.998705  0.0
H  H17  1  0.68069183  0.63230031  0.95964124  1  0.101195  1.1e-05  0.941172  0.0  0.118829  -3.4e-05  0.998105  0.0  0.120819  -3.2e-05  0.99741  0.0  0.098808  0.11734  -4.7e-05  0.998759  0.0
H  H18  1  0.36971613  0.16352218  0.08557532  1  0.122409  -0.000409  0.951105  0.0  0.131641  -0.000344  1.020833  0.0  0.135216  -0.000265  1.018815  0.0  0.105717  0.129505  -0.000319  1.021447  0.0
H  H19  1  0.63028882  0.83646984  0.91442230  1  0.122449  0.00041  0.951084  0.0  0.13167  0.000343  1.020821  0.0  0.135237  0.000265  1.018814  0.0  0.105728  0.129535  0.000319  1.021439  0.0
H  H20  1  0.57262550  0.41477747  0.80693782  1  0.088124  -0.000308  0.947911  0.0  0.098998  -4.3e-05  1.009117  0.0  0.101138  -4.4e-05  1.008375  0.0  0.103342  0.097103  -7e-05  1.010017  0.0
H  H21  1  0.42737489  0.58522270  0.19306486  1  0.088079  0.000309  0.947941  0.0  0.098988  4.2e-05  1.009108  0.0  0.101121  4.4e-05  1.008369  0.0  0.103357  0.097091  7e-05  1.010005  0.0
H  H22  1  0.77427430  0.10580238  0.91957974  1  0.06969  7.6e-05  0.915596  0.0  0.078314  9.8e-05  0.981706  0.0  0.079859  7.9e-05  0.979786  0.0  0.112059  0.077469  0.000139  0.982525  0.0
H  H23  1  0.22573153  0.89419896  0.08041596  1  0.069679  -7.7e-05  0.915595  0.0  0.078302  -9.9e-05  0.981684  0.0  0.079849  -7.9e-05  0.979765  0.0  0.112055  0.077447  -0.000139  0.982501  0.0
C  C24  1  0.23981885  0.43925071  0.55620567  1  0.137064  -0.00552  3.66296  -0.006  0.105259  -0.000449  3.91661  -0.001  0.115548  -0.001527  3.933852  -0.002  0.050832  0.098783  0.000498  3.905738  0.0
C  C25  1  0.76018272  0.56075296  0.44379463  1  0.136903  0.005532  3.66303  0.006  0.105103  0.000449  3.916687  0.001  0.115385  0.001529  3.933933  0.002  0.050744  0.098623  -0.000499  3.905821  0.0
C  C26  1  0.09907492  0.53776591  0.61811200  1  -0.104981  0.007537  3.720043  0.008  -0.115329  0.003627  3.967971  0.004  -0.12295  0.003356  3.989037  0.004  -0.078727  -0.110103  0.003641  3.953723  0.004
C  C27  1  0.90092253  0.46223660  0.38188766  1  -0.104884  -0.007545  3.72009  -0.008  -0.115196  -0.003627  3.967976  -0.004  -0.122816  -0.003357  3.989042  -0.004  -0.078677  -0.109977  -0.00364  3.953726  -0.004
C  C28  1  0.93818092  0.47337907  0.72822302  1  -0.043969  -0.006351  3.686077  -0.006  -0.072244  -0.002087  3.934844  -0.002  -0.06794  -0.002456  3.952552  -0.002  -0.063104  -0.0751  -0.001649  3.923297  -0.002
C  C29  1  0.06181923  0.52662461  0.27177453  1  -0.044069  0.006372  3.686079  0.006  -0.072312  0.002089  3.934859  0.002  -0.068007  0.002456  3.952563  0.002  -0.06313  -0.075164  0.001648  3.923303  0.002
C  C30  1  0.92120907  0.31147734  0.77500554  1  0.002602  0.00719  3.715824  0.007  0.024346  0.003331  3.953311  0.004  0.018772  0.00307  3.976556  0.004  -0.001464  0.027681  0.003453  3.93743  0.004
C  C31  1  0.07878971  0.68852633  0.22499343  1  0.002745  -0.007195  3.715836  -0.007  0.02441  -0.003333  3.953386  -0.004  0.018832  -0.003068  3.976639  -0.004  -0.001402  0.02775  -0.003452  3.937497  -0.004
C  C32  1  0.06836683  0.22132015  0.70680793  1  0.084879  -0.004637  3.671731  -0.005  0.047576  -0.000102  3.924648  -0.001  0.056012  -0.001215  3.944777  -0.002  0.048211  0.041926  0.000905  3.912965  0.0
C  C33  1  0.93163457  0.77868586  0.29318757  1  0.084769  0.004637  3.671711  0.005  0.047463  0.000104  3.924662  0.001  0.055906  0.001214  3.944775  0.002  0.048165  0.04181  -0.000906  3.912976  0.0
C  C34  1  0.75565764  0.23321138  0.90091795  1  0.087959  5.7e-05  3.590995  0.0  0.056421  0.000335  3.827462  0.0  0.06213  0.000205  3.841498  0.0  0.026694  0.052865  0.000545  3.81723  0.0
C  C35  1  0.24434407  0.76678880  0.09907813  1  0.087879  -5.6e-05  3.591014  0.0  0.056377  -0.000331  3.827352  0.0  0.062081  -0.000206  3.841392  0.0  0.026637  0.052828  -0.000545  3.817103  0.0
C  C36  1  0.89049922  0.24575989  0.10669528  1  -0.147577  -4e-05  3.679816  0.0  -0.252316  -5.6e-05  3.936494  0.0  -0.247791  -3.8e-05  3.945908  0.0  -0.134833  -0.255082  -7e-05  3.930565  0.0
C  C37  1  0.10950126  0.75423796  0.89330390  1  -0.147571  3.5e-05  3.679798  0.0  -0.252365  6.3e-05  3.936418  0.0  -0.247832  3.7e-05  3.945822  0.0  -0.1348  -0.255131  7e-05  3.930492  0.0
C  C38  1  0.55574409  0.28719169  0.12856410  1  0.546494  0.000377  3.787323  0.0  0.506675  0.000299  4.078314  0.0  0.536378  0.00015  4.077795  0.0  0.237424  0.486857  0.000377  4.078361  0.0
C  C39  1  0.44425931  0.71280382  0.87143603  1  0.546404  -0.000376  3.787512  0.0  0.506519  -0.000295  4.078526  0.0  0.536222  -0.000152  4.078014  0.0  0.23736  0.486702  -0.000377  4.078577  0.0
C  C40  1  0.43243823  0.27777980  0.03637407  1  -0.262201  0.001856  3.684848  0.002  -0.311922  0.001353  3.936109  0.001  -0.316744  0.000904  3.943442  0.001  -0.163025  -0.30883  0.001802  3.930587  0.002
C  C41  1  0.56756252  0.72221338  0.96362744  1  -0.262248  -0.00186  3.68493  -0.002  -0.311966  -0.001347  3.936234  -0.001  -0.316792  -0.000904  3.943582  -0.001  -0.163029  -0.30887  -0.001803  3.930716  -0.002
C  C42  1  0.56337567  0.29173475  0.87507668  1  -0.131135  0.0093  3.607217  0.01  -0.137567  0.005754  3.842708  0.006  -0.143438  0.004028  3.853939  0.005  -0.081423  -0.133264  0.00685  3.834355  0.007
C  C43  1  0.43662342  0.70826309  0.12492391  1  -0.131038  -0.009303  3.607118  -0.01  -0.137519  -0.005758  3.84263  -0.006  -0.143373  -0.004027  3.853853  -0.005  -0.081433  -0.133215  -0.006852  3.834268  -0.007
C  C44  1  0.50443749  0.20200384  0.78815833  1  0.648333  -0.00392  3.848037  -0.007  0.606771  -0.000168  4.153318  -0.003  0.642145  -0.0007  4.149759  -0.003  0.198306  0.583293  0.000483  4.154554  -0.003
C  C45  1  0.49556835  0.79799751  0.21183841  1  0.648328  0.00392  3.847947  0.007  0.606746  0.000176  4.153269  0.003  0.642115  0.000699  4.149725  0.003  0.198358  0.583266  -0.000483  4.154494  0.003
N  N46  1  0.32628900  0.99490562  0.50155290  1  -0.558749  -0.004719  2.912425  -0.006  -0.601066  -0.000466  3.316088  -0.001  -0.656492  9.9e-05  3.327394  0.0  -0.365991  -0.570678  -0.001394  3.312398  -0.002
N  N47  1  0.67371156  0.00509222  0.49845354  1  -0.558733  0.004728  2.912753  0.006  -0.601068  0.000471  3.316433  0.001  -0.65649  -9.9e-05  3.327735  0.0  -0.365969  -0.570686  0.001395  3.312753  0.002
N  N48  1  0.22806508  0.03849178  0.41750430  1  0.407173  0.001774  4.136841  0.002  0.448694  0.000209  4.446641  0.0  0.470287  0.000263  4.481713  0.0  0.101491  0.434908  0.000193  4.424956  0.0
N  N49  1  0.77192689  0.96150956  0.58249819  1  0.407349  -0.001787  4.13673  -0.002  0.448868  -0.000212  4.44654  0.0  0.470463  -0.000266  4.481613  0.0  0.101553  0.435082  -0.000195  4.424858  0.0
N  N50  1  0.13098231  0.07852172  0.34039958  1  -0.278627  -0.007306  2.377213  -0.008  -0.285796  -0.001305  2.609976  -0.002  -0.293239  -0.000904  2.621577  -0.001  -0.126121  -0.281166  -0.001428  2.602396  -0.002
N  N51  1  0.86901392  0.92147845  0.65960524  1  -0.278852  0.007303  2.376853  0.008  -0.286041  0.001304  2.609663  0.002  -0.293488  0.000911  2.621258  0.001  -0.12624  -0.281399  0.001428  2.602072  0.002
N  N52  1  0.22392653  0.28404020  0.60016330  1  -0.300259  0.070357  3.374444  0.084  -0.243097  0.055497  3.65942  0.071  -0.274981  0.048109  3.683107  0.065  -0.352785  -0.225051  0.058026  3.645887  0.072
N  N53  1  0.77607220  0.71596464  0.39983742  1  -0.300101  -0.070365  3.374167  -0.084  -0.2429  -0.055496  3.659093  -0.071  -0.274777  -0.048106  3.682757  -0.065  -0.352732  -0.224844  -0.058022  3.645547  -0.072
N  N54  1  0.73523548  0.26607103  0.04601369  1  -0.200802  0.000568  3.390562  0.001  -0.111032  0.000123  3.624235  0.0  -0.132372  6.4e-05  3.64609  0.0  -0.277159  -0.09692  0.000327  3.609224  0.0
N  N55  1  0.26476492  0.73392799  0.95398413  1  -0.200703  -0.000571  3.39062  -0.001  -0.110786  -0.000128  3.624091  0.0  -0.132124  -6.2e-05  3.645949  0.0  -0.277088  -0.096676  -0.000327  3.609081  0.0
O  O56  1  0.57503424  0.25190407  0.63965294  1  -0.606646  0.104465  2.040632  0.133  -0.577043  0.069006  2.323459  0.097  -0.623079  0.054857  2.319229  0.081  -0.330413  -0.547304  0.077682  2.324576  0.105
O  O57  1  0.42496856  0.74810194  0.36034324  1  -0.606723  -0.104469  2.040572  -0.133  -0.577119  -0.069013  2.323472  -0.097  -0.623149  -0.054863  2.319213  -0.082  -0.330452  -0.547366  -0.077689  2.32457  -0.105
O  O58  1  0.39544533  0.09357508  0.85558438  1  -0.597521  -0.000433  1.911601  0.001  -0.560181  -0.000628  2.141371  0.0  -0.586382  -0.001341  2.134448  -0.001  -0.318096  -0.542675  0.00018  2.145543  0.001
O  O59  1  0.60456061  0.90642394  0.14440990  1  -0.597471  0.000436  1.911594  -0.001  -0.560099  0.000624  2.141319  0.0  -0.5863  0.001345  2.134399  0.001  -0.318095  -0.542609  -0.00018  2.145519  -0.001
O  O60  1  0.50398825  0.30877692  0.25806636  1  -0.59073  0.000518  1.954036  0.001  -0.562151  -2e-05  2.202864  0.001  -0.586087  -0.000364  2.192612  0.0  -0.317234  -0.545897  0.001028  2.208553  0.002
O  O61  1  0.49601382  0.69121742  0.74193446  1  -0.590723  -0.00052  1.954181  -0.001  -0.5621  1.4e-05  2.202997  -0.001  -0.586035  0.000365  2.192738  0.0  -0.317213  -0.545841  -0.001028  2.208679  -0.002
