# generated using pymatgen
data_CaH8C6N2O7
_symmetry_space_group_name_H-M   'P 1'
_cell_length_a   7.02368475
_cell_length_b   11.41900365
_cell_length_c   11.80432754
_cell_angle_alpha   89.99980146
_cell_angle_beta   91.29525663
_cell_angle_gamma   89.99994361
_symmetry_Int_Tables_number   1
_chemical_formula_structural   CaH8C6N2O7
_chemical_formula_sum   'Ca4 H32 C24 N8 O28'
_cell_volume   946.50625948
_cell_formula_units_Z   4
loop_
 _symmetry_equiv_pos_site_id
 _symmetry_equiv_pos_as_xyz
  1  'x, y, z'
loop_
 _atom_site_type_symbol
 _atom_site_label
 _atom_site_symmetry_multiplicity
 _atom_site_fract_x
 _atom_site_fract_y
 _atom_site_fract_z
 _atom_site_occupancy
 _atom_site_hle17_bader_spin_density
 _atom_site_hle17_ddec_charge
 _atom_site_hle17_ddec_spin_density
 _atom_site_hle17_ddec_sum_bond_order
 _atom_site_hle17_magmom
 _atom_site_hse06_10hf_bader_spin_density
 _atom_site_hse06_10hf_ddec_charge
 _atom_site_hse06_10hf_ddec_spin_density
 _atom_site_hse06_10hf_ddec_sum_bond_order
 _atom_site_hse06_10hf_magmom
 _atom_site_hse06_bader_spin_density
 _atom_site_hse06_ddec_charge
 _atom_site_hse06_ddec_spin_density
 _atom_site_hse06_ddec_sum_bond_order
 _atom_site_hse06_magmom
 _atom_site_pbe_bader_spin_density
 _atom_site_pbe_cm5_charge
 _atom_site_pbe_ddec_charge
 _atom_site_pbe_ddec_spin_density
 _atom_site_pbe_ddec_sum_bond_order
 _atom_site_pbe_magmom
Ca  Ca0  1  0.52059183  0.05678823  0.16217142  1  0  1.479725  0  1.125991  0  0  1.330932  0  1.475937  0  0  1.37441  0  1.434598  0  0  0.852708  1.298412  0  1.505129  0
Ca  Ca1  1  0.97940601  0.55678763  0.33782832  1  0  1.479708  0  1.126032  0  0  1.330916  0  1.475971  0  0  1.374396  0  1.434629  0  0  0.8527  1.298395  0  1.505164  0
Ca  Ca2  1  0.47940545  0.94321638  0.83782607  1  0  1.479717  0  1.125998  0  0  1.330898  0  1.475992  0  0  1.374418  0  1.434586  0  0  0.852691  1.298391  0  1.5052  0
Ca  Ca3  1  0.02059553  0.44321611  0.66217430  1  0  1.479709  0  1.125981  0  0  1.330893  0  1.475968  0  0  1.374393  0  1.434598  0  0  0.852683  1.298377  0  1.50516  0
H  H4  1  0.83600596  0.81612928  0.20028501  1  0  0.082064  0  0.940634  0  0  0.083828  0  1.010849  0  0  0.087602  0  1.005682  0  0  0.138932  0.081001  0  1.014685  0
H  H5  1  0.66399426  0.31612493  0.29971305  1  0  0.082145  0  0.940589  0  0  0.083877  0  1.010841  0  0  0.087651  0  1.005674  0  0  0.138948  0.081051  0  1.014679  0
H  H6  1  0.16397708  0.18387358  0.79971481  1  0  0.082013  0  0.940625  0  0  0.083818  0  1.010795  0  0  0.087593  0  1.005627  0  0  0.138951  0.08099  0  1.014628  0
H  H7  1  0.33602296  0.68387355  0.70028557  1  0  0.082038  0  0.940621  0  0  0.083804  0  1.010848  0  0  0.087578  0  1.005679  0  0  0.138953  0.080977  0  1.014683  0
H  H8  1  0.81866039  0.95112548  0.58965517  1  0  0.136503  0  0.957333  0  0  0.14369  0  1.020042  0  0  0.148085  0  1.017712  0  0  0.123415  0.140451  0  1.022037  0
H  H9  1  0.68134415  0.45112423  0.91034600  1  0  0.13648  0  0.957373  0  0  0.143701  0  1.02005  0  0  0.148072  0  1.017749  0  0  0.123405  0.140463  0  1.022043  0
H  H10  1  0.18130553  0.04886688  0.41035118  1  0  0.136402  0  0.957372  0  0  0.143597  0  1.020093  0  0  0.148007  0  1.017748  0  0  0.123433  0.140358  0  1.022089  0
H  H11  1  0.31869872  0.54886550  0.08964706  1  0  0.136418  0  0.957455  0  0  0.14364  0  1.020122  0  0  0.148031  0  1.0178  0  0  0.123448  0.140399  0  1.022119  0
H  H12  1  0.34680295  0.85303276  0.22940950  1  0  0.399441  0  0.921028  0  0  0.370288  0  0.983705  0  0  0.380842  0  0.968325  0  0  0.290861  0.362843  0  0.994532  0
H  H13  1  0.15319645  0.35303290  0.27059272  1  0  0.399483  0  0.920982  0  0  0.37029  0  0.983694  0  0  0.380844  0  0.968315  0  0  0.290855  0.362844  0  0.994519  0
H  H14  1  0.65318437  0.14697010  0.77058614  1  0  0.399378  0  0.921125  0  0  0.370264  0  0.983758  0  0  0.380818  0  0.968378  0  0  0.290834  0.362821  0  0.994579  0
H  H15  1  0.84681647  0.64696909  0.72941600  1  0  0.39937  0  0.921135  0  0  0.370254  0  0.983773  0  0  0.380808  0  0.968393  0  0  0.290831  0.362807  0  0.994603  0
H  H16  1  0.30805973  0.91268138  0.34347472  1  0  0.413267  0  0.899485  0  0  0.381364  0  0.966861  0  0  0.392175  0  0.951175  0  0  0.286811  0.373695  0  0.977964  0
H  H17  1  0.19194241  0.41268278  0.15652650  1  0  0.413316  0  0.899425  0  0  0.381397  0  0.966829  0  0  0.392212  0  0.951137  0  0  0.286804  0.373729  0  0.97793  0
H  H18  1  0.69192760  0.08732324  0.65651754  1  0  0.413349  0  0.899373  0  0  0.381453  0  0.966802  0  0  0.392279  0  0.951086  0  0  0.286818  0.373786  0  0.977901  0
H  H19  1  0.80807620  0.58732271  0.84348399  1  0  0.413355  0  0.899367  0  0  0.381452  0  0.966805  0  0  0.39228  0  0.951086  0  0  0.286804  0.373784  0  0.977907  0
H  H20  1  0.95290259  0.06950563  0.09251102  1  0  0.420113  0  0.881999  0  0  0.39043  0  0.943464  0  0  0.401631  0  0.926843  0  0  0.297664  0.382416  0  0.955356  0
H  H21  1  0.54709238  0.56950765  0.40748779  1  0  0.420125  0  0.881972  0  0  0.390418  0  0.943469  0  0  0.401616  0  0.926855  0  0  0.297658  0.382407  0  0.955358  0
H  H22  1  0.04709469  0.93049723  0.90748731  1  0  0.420141  0  0.881964  0  0  0.39046  0  0.943427  0  0  0.401663  0  0.926802  0  0  0.29765  0.382451  0  0.955311  0
H  H23  1  0.45290632  0.43049784  0.59251226  1  0  0.420139  0  0.881963  0  0  0.390472  0  0.9434  0  0  0.401673  0  0.92678  0  0  0.297667  0.382458  0  0.955294  0
H  H24  1  0.83168532  0.99619613  0.00218753  1  0  0.421325  0  0.861181  0  0  0.397908  0  0.920768  0  0  0.406913  0  0.907358  0  0  0.317755  0.391448  0  0.930414  0
H  H25  1  0.66831599  0.49619896  0.49781164  1  0  0.421304  0  0.861055  0  0  0.397887  0  0.920765  0  0  0.406894  0  0.907352  0  0  0.317741  0.391428  0  0.93041  0
H  H26  1  0.16831481  0.00380585  0.99781254  1  0  0.421309  0  0.861074  0  0  0.397894  0  0.92076  0  0  0.406898  0  0.90735  0  0  0.317745  0.391435  0  0.930404  0
H  H27  1  0.33168414  0.50380216  0.50218589  1  0  0.421327  0  0.861068  0  0  0.39791  0  0.920742  0  0  0.406915  0  0.907331  0  0  0.317734  0.391454  0  0.930379  0
H  H28  1  0.13726789  0.15573648  0.20406828  1  0  0.441239  0  0.844684  0  0  0.413897  0  0.900914  0  0  0.423957  0  0.886199  0  0  0.315567  0.406752  0  0.911361  0
H  H29  1  0.36272903  0.65573609  0.29593204  1  0  0.44126  0  0.844654  0  0  0.413926  0  0.900871  0  0  0.423985  0  0.886156  0  0  0.31557  0.406778  0  0.911324  0
H  H30  1  0.86272653  0.84426639  0.79593255  1  0  0.441263  0  0.844696  0  0  0.413915  0  0.900906  0  0  0.423975  0  0.88619  0  0  0.315569  0.406771  0  0.911353  0
H  H31  1  0.63726966  0.34426677  0.70406970  1  0  0.44124  0  0.844698  0  0  0.413901  0  0.900913  0  0  0.423961  0  0.886197  0  0  0.315566  0.406759  0  0.911354  0
H  H32  1  0.16922176  0.21031763  0.08248924  1  0  0.434864  0  0.862723  0  0  0.39877  0  0.934281  0  0  0.410688  0  0.916829  0  0  0.300358  0.390287  0  0.946672  0
H  H33  1  0.33077791  0.71031682  0.41751178  1  0  0.434895  0  0.862682  0  0  0.398806  0  0.934232  0  0  0.410724  0  0.916781  0  0  0.300377  0.390324  0  0.946622  0
H  H34  1  0.83077978  0.78968786  0.91751169  1  0  0.434937  0  0.862633  0  0  0.39883  0  0.934208  0  0  0.410751  0  0.916754  0  0  0.300391  0.390351  0  0.946595  0
H  H35  1  0.66921937  0.28969042  0.58248910  1  0  0.434914  0  0.862671  0  0  0.398796  0  0.934264  0  0  0.410718  0  0.91681  0  0  0.300384  0.390312  0  0.946658  0
C  C36  1  0.82387972  0.84499329  0.28766851  1  0  0.338188  0  3.657548  0  0  0.288017  0  3.938051  0  0  0.302813  0  3.94546  0  0  0.203956  0.27805  0  3.933141  0
C  C37  1  0.67612187  0.34499100  0.21233032  1  0  0.338045  0  3.657669  0  0  0.287885  0  3.938185  0  0  0.30268  0  3.945594  0  0  0.203896  0.277911  0  3.933283  0
C  C38  1  0.17610189  0.15500081  0.71233128  1  0  0.338188  0  3.657485  0  0  0.288022  0  3.937941  0  0  0.302816  0  3.945352  0  0  0.203955  0.278057  0  3.933038  0
C  C39  1  0.32389535  0.65500048  0.78766746  1  0  0.338217  0  3.657472  0  0  0.288056  0  3.937947  0  0  0.302851  0  3.945357  0  0  0.203978  0.278093  0  3.933052  0
C  C40  1  0.88694420  0.81120628  0.47599343  1  0  0.160375  0  3.703667  0  0  0.158571  0  3.953651  0  0  0.164307  0  3.967582  0  0  0.140789  0.154564  0  3.94457  0
C  C41  1  0.61305318  0.31120470  0.02400630  1  0  0.160383  0  3.703571  0  0  0.158634  0  3.953586  0  0  0.16437  0  3.967511  0  0  0.140802  0.154637  0  3.944487  0
C  C42  1  0.11302887  0.18879133  0.52400624  1  0  0.160168  0  3.703948  0  0  0.158476  0  3.953914  0  0  0.164213  0  3.967846  0  0  0.140764  0.154498  0  3.944782  0
C  C43  1  0.38696973  0.68879204  0.97599325  1  0  0.16019  0  3.703659  0  0  0.158485  0  3.953668  0  0  0.164223  0  3.967596  0  0  0.140732  0.154503  0  3.944541  0
C  C44  1  0.81638080  0.92160730  0.50236162  1  0  -0.155586  0  3.661888  0  0  -0.188686  0  3.913381  0  0  -0.195833  0  3.932286  0  0  -0.065259  -0.184262  0  3.901339  0
C  C45  1  0.68362380  0.42160398  0.99763796  1  0  -0.155572  0  3.661889  0  0  -0.188709  0  3.913372  0  0  -0.195836  0  3.932293  0  0  -0.065268  -0.184291  0  3.901326  0
C  C46  1  0.18359082  0.07839206  0.49764227  1  0  -0.155437  0  3.661896  0  0  -0.18861  0  3.913488  0  0  -0.195771  0  3.932381  0  0  -0.065324  -0.184199  0  3.901424  0
C  C47  1  0.31640909  0.57839012  0.00235750  1  0  -0.15541  0  3.661795  0  0  -0.188587  0  3.913385  0  0  -0.195732  0  3.93229  0  0  -0.065268  -0.184164  0  3.901316  0
C  C48  1  0.73736499  0.98717099  0.41365088  1  0  0.145805  0  3.717987  0  0  0.147015  0  3.96452  0  0  0.152037  0  3.980469  0  0  0.135837  0.143541  0  3.953925  0
C  C49  1  0.76263919  0.48716911  0.08634751  1  0  0.145761  0  3.71798  0  0  0.146977  0  3.964518  0  0  0.152  0  3.980462  0  0  0.135838  0.143502  0  3.953924  0
C  C50  1  0.26260808  0.01282399  0.58634795  1  0  0.145918  0  3.718067  0  0  0.147153  0  3.964538  0  0  0.152177  0  3.980491  0  0  0.135911  0.143704  0  3.953897  0
C  C51  1  0.23739085  0.51282325  0.91365214  1  0  0.145876  0  3.718197  0  0  0.14706  0  3.964676  0  0  0.152082  0  3.980627  0  0  0.135849  0.143604  0  3.954049  0
C  C52  1  0.64120797  0.10494516  0.43076183  1  0  0.628146  0  3.922978  0  0  0.572357  0  4.230862  0  0  0.605006  0  4.22293  0  0  0.219651  0.550254  0  4.235389  0
C  C53  1  0.85879121  0.60494296  0.06923862  1  0  0.628178  0  3.922898  0  0  0.572386  0  4.230793  0  0  0.605035  0  4.22286  0  0  0.219637  0.550289  0  4.235313  0
C  C54  1  0.35877791  0.89505683  0.56923719  1  0  0.627939  0  3.923296  0  0  0.572223  0  4.231082  0  0  0.604867  0  4.223156  0  0  0.219636  0.550129  0  4.235601  0
C  C55  1  0.14122458  0.39505728  0.93076167  1  0  0.627919  0  3.923565  0  0  0.572331  0  4.231147  0  0  0.604976  0  4.223218  0  0  0.219667  0.550228  0  4.235674  0
C  C56  1  0.95212383  0.72872254  0.56954307  1  0  0.643629  0  3.883013  0  0  0.590747  0  4.1791  0  0  0.624464  0  4.169341  0  0  0.236255  0.567876  0  4.18498  0
C  C57  1  0.54787259  0.22872041  0.93045704  1  0  0.643786  0  3.882672  0  0  0.590724  0  4.179039  0  0  0.624442  0  4.169283  0  0  0.236317  0.56786  0  4.184908  0
C  C58  1  0.04786348  0.27128120  0.43045681  1  0  0.643851  0  3.882967  0  0  0.590782  0  4.179345  0  0  0.6245  0  4.169588  0  0  0.236291  0.5679  0  4.185226  0
C  C59  1  0.45214178  0.77127982  0.06954239  1  0  0.643773  0  3.882915  0  0  0.590674  0  4.179357  0  0  0.62439  0  4.169602  0  0  0.23626  0.567804  0  4.185226  0
N  N60  1  0.74024283  0.94814676  0.30631073  1  0  -0.393063  0  3.131411  0  0  -0.340719  0  3.389217  0  0  -0.356546  0  3.402712  0  0  -0.336857  -0.329876  0  3.380052  0
N  N61  1  0.75975857  0.44814362  0.19368859  1  0  -0.39301  0  3.131426  0  0  -0.340663  0  3.389223  0  0  -0.356489  0  3.402719  0  0  -0.336839  -0.329824  0  3.380068  0
N  N62  1  0.25973451  0.05184734  0.69368900  1  0  -0.393145  0  3.131652  0  0  -0.340805  0  3.389438  0  0  -0.356639  0  3.402933  0  0  -0.336946  -0.32998  0  3.380279  0
N  N63  1  0.24026292  0.55184786  0.80631009  1  0  -0.393104  0  3.131653  0  0  -0.340743  0  3.389439  0  0  -0.356572  0  3.402934  0  0  -0.336898  -0.329913  0  3.380283  0
N  N64  1  0.89200453  0.77272675  0.36843844  1  0  -0.396801  0  3.101266  0  0  -0.345272  0  3.361949  0  0  -0.360852  0  3.374734  0  0  -0.337917  -0.334593  0  3.353286  0
N  N65  1  0.60799719  0.27272479  0.13156148  1  0  -0.396794  0  3.101281  0  0  -0.345249  0  3.361924  0  0  -0.360828  0  3.374709  0  0  -0.337904  -0.334569  0  3.353252  0
N  N66  1  0.10797993  0.22726560  0.63156224  1  0  -0.396716  0  3.101293  0  0  -0.345196  0  3.361947  0  0  -0.360777  0  3.37473  0  0  -0.337897  -0.334521  0  3.353266  0
N  N67  1  0.39202003  0.72726406  0.86843714  1  0  -0.396767  0  3.101235  0  0  -0.345236  0  3.361887  0  0  -0.360822  0  3.374671  0  0  -0.337936  -0.334571  0  3.353227  0
O  O68  1  0.54309087  0.14462393  0.34876032  1  0  -0.640295  0  1.988288  0  0  -0.589947  0  2.233803  0  0  -0.61563  0  2.225421  0  0  -0.340187  -0.571638  0  2.238835  0
O  O69  1  0.95690681  0.64462313  0.15124082  1  0  -0.64028  0  1.988223  0  0  -0.58993  0  2.23372  0  0  -0.615612  0  2.225333  0  0  -0.340185  -0.571625  0  2.238752  0
O  O70  1  0.45689218  0.85537281  0.65123611  1  0  -0.640233  0  1.98825  0  0  -0.58992  0  2.233757  0  0  -0.615608  0  2.225377  0  0  -0.340209  -0.571617  0  2.238794  0
O  O71  1  0.04310896  0.35537273  0.84876371  1  0  -0.640235  0  1.988324  0  0  -0.589969  0  2.233779  0  0  -0.615653  0  2.225391  0  0  -0.340215  -0.571663  0  2.238808  0
O  O72  1  0.66873009  0.15347285  0.52691438  1  0  -0.638795  0  2.026835  0  0  -0.576368  0  2.252753  0  0  -0.602828  0  2.243479  0  0  -0.304289  -0.557765  0  2.258661  0
O  O73  1  0.83127501  0.65347185  0.97308526  1  0  -0.638829  0  2.026775  0  0  -0.576405  0  2.252692  0  0  -0.602866  0  2.243415  0  0  -0.304277  -0.557807  0  2.258601  0
O  O74  1  0.33125864  0.84653088  0.47308637  1  0  -0.638641  0  2.026944  0  0  -0.576338  0  2.252876  0  0  -0.602788  0  2.24361  0  0  -0.30425  -0.557745  0  2.258789  0
O  O75  1  0.16874505  0.34653364  0.02691425  1  0  -0.638669  0  2.027058  0  0  -0.576402  0  2.252931  0  0  -0.602853  0  2.24366  0  0  -0.304284  -0.557807  0  2.258843  0
O  O76  1  0.99997207  0.62519368  0.54134580  1  0  -0.697076  0  1.998339  0  0  -0.626281  0  2.239426  0  0  -0.655629  0  2.231717  0  0  -0.35286  -0.605355  0  2.243924  0
O  O77  1  0.50002238  0.12519033  0.95865300  1  0  -0.697126  0  1.998314  0  0  -0.626302  0  2.239545  0  0  -0.655653  0  2.231835  0  0  -0.352924  -0.605389  0  2.244051  0
O  O78  1  0.00001734  0.37481034  0.45865673  1  0  -0.697118  0  1.998301  0  0  -0.626328  0  2.239574  0  0  -0.655676  0  2.231863  0  0  -0.352911  -0.60541  0  2.244079  0
O  O79  1  0.49998060  0.87480991  0.04134456  1  0  -0.697125  0  1.998379  0  0  -0.6263  0  2.239648  0  0  -0.65565  0  2.231938  0  0  -0.352877  -0.605387  0  2.244156  0
O  O80  1  0.94768823  0.76705933  0.67015627  1  0  -0.624131  0  1.975152  0  0  -0.570594  0  2.194953  0  0  -0.594609  0  2.184445  0  0  -0.29857  -0.553821  0  2.201774  0
O  O81  1  0.55230384  0.26706194  0.82984534  1  0  -0.62417  0  1.974918  0  0  -0.570578  0  2.194826  0  0  -0.594592  0  2.184315  0  0  -0.298579  -0.553813  0  2.201645  0
O  O82  1  0.05228625  0.23293741  0.32984681  1  0  -0.624164  0  1.975043  0  0  -0.570576  0  2.19496  0  0  -0.594591  0  2.184456  0  0  -0.29855  -0.553804  0  2.201781  0
O  O83  1  0.44771054  0.73293742  0.17015239  1  0  -0.624122  0  1.974984  0  0  -0.570549  0  2.19494  0  0  -0.594562  0  2.184435  0  0  -0.298556  -0.553776  0  2.201754  0
O  O84  1  0.30334954  0.92916458  0.26074583  1  0  -0.873661  0  1.816651  0  0  -0.822412  0  1.99414  0  0  -0.84354  0  1.96419  0  0  -0.637843  -0.807018  0  2.014946  0
O  O85  1  0.19665257  0.42916656  0.23925618  1  0  -0.873738  0  1.816556  0  0  -0.822442  0  1.994154  0  0  -0.843571  0  1.964197  0  0  -0.637827  -0.807051  0  2.014961  0
O  O86  1  0.69663352  0.07083653  0.73924467  1  0  -0.873647  0  1.816631  0  0  -0.822509  0  1.993951  0  0  -0.843649  0  1.963985  0  0  -0.637825  -0.807117  0  2.014753  0
O  O87  1  0.80336888  0.57083718  0.76075605  1  0  -0.873654  0  1.816631  0  0  -0.822511  0  1.993958  0  0  -0.843648  0  1.963989  0  0  -0.637811  -0.80711  0  2.014764  0
O  O88  1  0.82846184  0.03104700  0.07749027  1  0  -0.86595  0  1.862885  0  0  -0.816528  0  2.045001  0  0  -0.836224  0  2.014992  0  0  -0.615902  -0.802255  0  2.066016  0
O  O89  1  0.67153464  0.53104801  0.42250699  1  0  -0.865944  0  1.862726  0  0  -0.816514  0  2.045006  0  0  -0.83621  0  2.014996  0  0  -0.615888  -0.802246  0  2.06602  0
O  O90  1  0.17153686  0.96895674  0.92250723  1  0  -0.865969  0  1.862753  0  0  -0.81655  0  2.044963  0  0  -0.836252  0  2.014949  0  0  -0.615881  -0.802282  0  2.065975  0
O  O91  1  0.32846549  0.46895573  0.57749307  1  0  -0.865974  0  1.862738  0  0  -0.816577  0  2.044965  0  0  -0.836277  0  2.014952  0  0  -0.615877  -0.80231  0  2.065978  0
O  O92  1  0.17726229  0.13522781  0.12667811  1  0  -0.859369  0  1.837349  0  0  -0.790918  0  2.004203  0  0  -0.813164  0  1.972031  0  0  -0.570834  -0.774917  0  2.0267  0
O  O93  1  0.32273467  0.63522804  0.37332227  1  0  -0.859435  0  1.837329  0  0  -0.790971  0  2.004169  0  0  -0.813213  0  1.971994  0  0  -0.570849  -0.774963  0  2.026669  0
O  O94  1  0.82273641  0.86477681  0.87332278  1  0  -0.859446  0  1.837302  0  0  -0.791  0  2.004146  0  0  -0.813254  0  1.971962  0  0  -0.570866  -0.774997  0  2.026644  0
O  O95  1  0.67726117  0.36477832  0.62667943  1  0  -0.859407  0  1.837297  0  0  -0.790957  0  2.004167  0  0  -0.81321  0  1.971981  0  0  -0.570865  -0.774958  0  2.026663  0
