# generated using pymatgen
data_ZnMoH18C14(NO)4
_symmetry_space_group_name_H-M   'P 1'
_cell_length_a   7.00570948
_cell_length_b   9.41336924
_cell_length_c   9.41337331
_cell_angle_alpha   84.14221034
_cell_angle_beta   88.60957866
_cell_angle_gamma   88.60949736
_symmetry_Int_Tables_number   1
_chemical_formula_structural   ZnMoH18C14(NO)4
_chemical_formula_sum   'Zn1 Mo1 H18 C14 N4 O4'
_cell_volume   617.21521932
_cell_formula_units_Z   1
loop_
 _symmetry_equiv_pos_site_id
 _symmetry_equiv_pos_as_xyz
  1  'x, y, z'
loop_
 _atom_site_type_symbol
 _atom_site_label
 _atom_site_symmetry_multiplicity
 _atom_site_fract_x
 _atom_site_fract_y
 _atom_site_fract_z
 _atom_site_occupancy
 _atom_site_pbe_bader_charge
 _atom_site_pbe_bader_spin_density
 _atom_site_pbe_cm5_charge
 _atom_site_pbe_ddec_charge
 _atom_site_pbe_ddec_spin_density
 _atom_site_pbe_ddec_sum_bond_order
 _atom_site_pbe_magmom
Zn  Zn0  1  0.49999992  0.08222246  0.91777862  1  1.265173  0  0.665698  0.7559  0  2.381228  0
Mo  Mo1  1  0.00000000  0.00009646  0.99990437  1  2.502636  0  1.430213  1.969405  0  5.035482  0
H  H2  1  0.27579399  0.16373410  0.19865593  1  0.085855  0  0.107423  0.092725  0  1.008956  0
H  H3  1  0.72420555  0.80134553  0.83626627  1  0.085857  0  0.10742  0.092719  0  1.008973  0
H  H4  1  0.48785107  0.26386898  0.18719805  1  0.053845  0  0.110847  0.097214  0  0.967246  0
H  H5  1  0.51214872  0.81280316  0.73613110  1  0.053896  0  0.110847  0.097211  0  0.967245  0
H  H6  1  0.30479867  0.90567028  0.20248880  1  0.075368  0  0.106376  0.079076  0  1.003752  0
H  H7  1  0.69520208  0.79751179  0.09432910  1  0.075349  0  0.106388  0.079088  0  1.003743  0
H  H8  1  0.50964636  0.86678320  0.30769310  1  0.028337  0  0.098377  0.074806  0  0.969642  0
H  H9  1  0.49035690  0.69230689  0.13321709  1  0.028357  0  0.098391  0.074816  0  0.969664  0
H  H10  1  0.75428494  0.12575923  0.38763951  1  0.110582  0  0.108827  0.130825  0  1.004426  0
H  H11  1  0.24571573  0.61236237  0.87424059  1  0.110573  0  0.108827  0.130822  0  1.004425  0
H  H12  1  0.13955871  0.13678333  0.43112615  1  0.091161  0  0.109812  0.125613  0  0.994879  0
H  H13  1  0.86043980  0.56887536  0.86321363  1  0.091154  0  0.109802  0.125589  0  0.994887  0
H  H14  1  0.17930796  0.10370910  0.69843737  1  0.121363  0  0.112781  0.081393  0  1.035775  0
H  H15  1  0.82069046  0.30156345  0.89628791  1  0.121382  0  0.112769  0.081372  0  1.035816  0
H  H16  1  0.76591391  0.09162988  0.65679261  1  0.147415  0  0.11482  0.099112  0  1.016529  0
H  H17  1  0.23408696  0.34320706  0.90836976  1  0.147414  0  0.114787  0.099077  0  1.016523  0
H  H18  1  0.67205084  0.05202991  0.16926928  1  0.44566  0  0.278481  0.24134  0  1.024504  0
H  H19  1  0.32794897  0.83073157  0.94797110  1  0.445671  0  0.278481  0.241347  0  1.024505  0
C  C20  1  0.42692322  0.16045825  0.22763897  1  0.310603  0  -0.064894  -0.082637  0  3.921089  0
C  C21  1  0.57307624  0.77236150  0.83954181  1  0.310529  0  -0.064904  -0.082654  0  3.921122  0
C  C22  1  0.44400987  0.13848284  0.38790704  1  -0.019166  0  0.010223  0.142077  0  3.947371  0
C  C23  1  0.55599141  0.61209451  0.86151636  1  -0.019162  0  0.010252  0.142086  0  3.947299  0
C  C24  1  0.46205561  0.90421746  0.19908914  1  0.277508  0  -0.070523  -0.043589  0  3.908569  0
C  C25  1  0.53794612  0.80091129  0.09578239  1  0.25518  0  -0.070528  -0.043625  0  3.908651  0
C  C26  1  0.62269013  0.12386344  0.45247194  1  -0.07726  0  -0.0861  -0.185202  0  3.934929  0
C  C27  1  0.37730839  0.54752743  0.87613708  1  -0.07725  0  -0.086102  -0.185185  0  3.934876  0
C  C28  1  0.28135843  0.12955554  0.47708511  1  -0.01512  0  -0.084229  -0.185615  0  3.94542  0
C  C29  1  0.71864196  0.52291642  0.87044335  1  -0.015122  0  -0.08424  -0.185593  0  3.945389  0
C  C30  1  0.30183975  0.10961333  0.62455661  1  0.422374  0  0.043887  0.092091  0  3.956964  0
C  C31  1  0.69816077  0.37544304  0.89038416  1  0.422367  0  0.043873  0.092098  0  3.95697  0
C  C32  1  0.63119099  0.10361502  0.60054574  1  0.422887  0  0.042576  0.087232  0  3.945602  0
C  C33  1  0.36881096  0.39945458  0.89638438  1  0.422894  0  0.042608  0.087274  0  3.945618  0
N  N34  1  0.52635176  0.04976510  0.15262646  1  -1.077173  0  -0.483218  -0.33085  0  3.483724  0
N  N35  1  0.47365008  0.84737410  0.95023443  1  -1.077178  0  -0.483208  -0.330815  0  3.483673  0
N  N36  1  0.47356977  0.09708431  0.68590079  1  -1.221739  0  -0.320709  -0.22608  0  3.513007  0
N  N37  1  0.52642890  0.31409920  0.90291273  1  -1.221751  0  -0.320682  -0.226086  0  3.512974  0
O  O38  1  0.20054310  0.10872977  0.94432716  1  -1.056686  0  -0.58279  -0.837812  0  2.018666  0
O  O39  1  0.79945607  0.05567327  0.89127129  1  -1.05668  0  -0.582808  -0.837793  0  2.018637  0
O  O40  1  0.06214979  0.82009885  0.97856236  1  -0.998532  0  -0.599923  -0.814373  0  1.676167  0
O  O41  1  0.93784847  0.02143748  0.17990347  1  -0.998565  0  -0.59993  -0.814397  0  1.6761  0
