# generated using pymatgen
data_AgPH7C5S(NO2)2
_symmetry_space_group_name_H-M   'P 1'
_cell_length_a   9.52102400
_cell_length_b   10.69097104
_cell_length_c   11.14427675
_cell_angle_alpha   110.92706469
_cell_angle_beta   115.29442311
_cell_angle_gamma   89.97706522
_symmetry_Int_Tables_number   1
_chemical_formula_structural   AgPH7C5S(NO2)2
_chemical_formula_sum   'Ag4 P4 H28 C20 S4 N8 O16'
_cell_volume   942.26416049
_cell_formula_units_Z   4
loop_
 _symmetry_equiv_pos_site_id
 _symmetry_equiv_pos_as_xyz
  1  'x, y, z'
loop_
 _atom_site_type_symbol
 _atom_site_label
 _atom_site_symmetry_multiplicity
 _atom_site_fract_x
 _atom_site_fract_y
 _atom_site_fract_z
 _atom_site_occupancy
 _atom_site_hle17_bader_spin_density
 _atom_site_hle17_ddec_charge
 _atom_site_hle17_ddec_spin_density
 _atom_site_hle17_ddec_sum_bond_order
 _atom_site_hle17_magmom
 _atom_site_hse06_10hf_bader_spin_density
 _atom_site_hse06_10hf_ddec_charge
 _atom_site_hse06_10hf_ddec_spin_density
 _atom_site_hse06_10hf_ddec_sum_bond_order
 _atom_site_hse06_10hf_magmom
 _atom_site_hse06_bader_spin_density
 _atom_site_hse06_ddec_charge
 _atom_site_hse06_ddec_spin_density
 _atom_site_hse06_ddec_sum_bond_order
 _atom_site_hse06_magmom
 _atom_site_pbe_bader_spin_density
 _atom_site_pbe_cm5_charge
 _atom_site_pbe_ddec_charge
 _atom_site_pbe_ddec_spin_density
 _atom_site_pbe_ddec_sum_bond_order
 _atom_site_pbe_magmom
Ag  Ag0  1  0.58903500  0.45695382  0.89620704  1  0  0.64306  0  1.369983  0  0  0.521554  0  1.800448  0  0  0.544013  0  1.752538  0  0  0.478588  0.5056  0  1.833385  0
Ag  Ag1  1  0.69304759  0.04314848  0.10441408  1  0  0.643893  0  1.365493  0  0  0.522302  0  1.795448  0  0  0.544736  0  1.747619  0  0  0.478262  0.506358  0  1.828329  0
Ag  Ag2  1  0.41097074  0.54304353  0.10379631  1  0  0.643099  0  1.369948  0  0  0.521582  0  1.800416  0  0  0.544044  0  1.752505  0  0  0.478571  0.505624  0  1.833357  0
Ag  Ag3  1  0.30695042  0.95685097  0.89558369  1  0  0.643865  0  1.365567  0  0  0.522288  0  1.795535  0  0  0.544725  0  1.747706  0  0  0.478256  0.506349  0  1.828417  0
P  P4  1  0.77282674  0.41283373  0.21268488  1  0  1.685803  0  4.891267  0  0  1.51456  0  5.402444  0  0  1.571586  0  5.352291  0  0  0.401883  1.474791  0  5.436148  0
P  P5  1  0.56002983  0.08705210  0.78748655  1  0  1.684266  0  4.892442  0  0  1.513401  0  5.403163  0  0  1.570386  0  5.353113  0  0  0.401734  1.47365  0  5.436767  0
P  P6  1  0.22717526  0.58716263  0.78731411  1  0  1.685836  0  4.891208  0  0  1.514602  0  5.402382  0  0  1.571626  0  5.352228  0  0  0.401895  1.474833  0  5.436089  0
P  P7  1  0.43996163  0.91294943  0.21250874  1  0  1.684235  0  4.892442  0  0  1.513343  0  5.403195  0  0  1.570329  0  5.353142  0  0  0.401746  1.473592  0  5.436796  0
H  H8  1  0.60784459  0.26814397  0.38315656  1  0  0.182012  0  0.929754  0  0  0.19183  0  0.981171  0  0  0.195447  0  0.979709  0  0  0.12606  0.189185  0  0.982439  0
H  H9  1  0.22500968  0.23199828  0.61727451  1  0  0.182092  0  0.929592  0  0  0.191945  0  0.981065  0  0  0.195493  0  0.979707  0  0  0.126047  0.189343  0  0.982282  0
H  H10  1  0.39216285  0.73185029  0.61684810  1  0  0.182025  0  0.929775  0  0  0.19188  0  0.981137  0  0  0.195496  0  0.979679  0  0  0.126049  0.189233  0  0.982416  0
H  H11  1  0.77498741  0.76800217  0.38272508  1  0  0.182072  0  0.929566  0  0  0.191921  0  0.981064  0  0  0.195467  0  0.979709  0  0  0.12603  0.189333  0  0.982261  0
H  H12  1  0.53394609  0.22887516  0.57876040  1  0  0.106074  0  0.962114  0  0  0.114222  0  1.025438  0  0  0.116678  0  1.024098  0  0  0.11585  0.112372  0  1.026688  0
H  H13  1  0.95556199  0.27113899  0.42134301  1  0  0.106336  0  0.962671  0  0  0.114342  0  1.026024  0  0  0.116802  0  1.024654  0  0  0.116129  0.112515  0  1.027241  0
H  H14  1  0.46605524  0.77112321  0.42124265  1  0  0.106034  0  0.962071  0  0  0.11417  0  1.025424  0  0  0.116624  0  1.024086  0  0  0.115822  0.112338  0  1.026639  0
H  H15  1  0.04443879  0.72886247  0.57865825  1  0  0.106332  0  0.962586  0  0  0.114342  0  1.025938  0  0  0.116802  0  1.024567  0  0  0.116119  0.112516  0  1.027156  0
H  H16  1  0.73772567  0.87400687  0.82201593  1  0  0.147804  0  0.951205  0  0  0.167189  0  1.012981  0  0  0.169931  0  1.011439  0  0  0.105676  0.164937  0  1.014261  0
H  H17  1  0.91635854  0.62574684  0.17815618  1  0  0.147537  0  0.951699  0  0  0.167396  0  1.012966  0  0  0.170115  0  1.011464  0  0  0.105835  0.165151  0  1.014251  0
H  H18  1  0.26227467  0.12599256  0.17798355  1  0  0.147812  0  0.95121  0  0  0.167197  0  1.012986  0  0  0.169939  0  1.011443  0  0  0.105667  0.164946  0  1.014265  0
H  H19  1  0.08364784  0.37425863  0.82185295  1  0  0.147608  0  0.951658  0  0  0.16744  0  1.012946  0  0  0.17016  0  1.011441  0  0  0.105829  0.165194  0  1.014236  0
H  H20  1  0.80934518  0.77121801  0.70222736  1  0  0.111208  0  0.980349  0  0  0.129093  0  1.047222  0  0  0.129908  0  1.049209  0  0  0.083831  0.128502  0  1.04577  0
H  H21  1  0.10773574  0.72844952  0.29804168  1  0  0.110887  0  0.980235  0  0  0.128752  0  1.047356  0  0  0.129566  0  1.049357  0  0  0.083781  0.128165  0  1.045894  0
H  H22  1  0.19065611  0.22878039  0.29777299  1  0  0.111258  0  0.980398  0  0  0.129147  0  1.047261  0  0  0.129963  0  1.049248  0  0  0.083867  0.128556  0  1.045807  0
H  H23  1  0.89226753  0.27155804  0.70196351  1  0  0.110911  0  0.980084  0  0  0.128764  0  1.047219  0  0  0.12958  0  1.049217  0  0  0.08376  0.128177  0  1.045758  0
H  H24  1  0.93443045  0.84767130  0.89249911  1  0  0.127165  0  0.936217  0  0  0.149853  0  0.994807  0  0  0.151714  0  0.994103  0  0  0.098762  0.148252  0  0.995601  0
H  H25  1  0.04237878  0.65228680  0.10765700  1  0  0.127167  0  0.936101  0  0  0.150032  0  0.994589  0  0  0.151866  0  0.993905  0  0  0.098945  0.148441  0  0.995374  0
H  H26  1  0.06556875  0.15232812  0.10750176  1  0  0.127185  0  0.936217  0  0  0.149864  0  0.994809  0  0  0.151725  0  0.994108  0  0  0.09878  0.148266  0  0.9956  0
H  H27  1  0.95762438  0.34771461  0.89234867  1  0  0.127166  0  0.936157  0  0  0.150015  0  0.994671  0  0  0.151849  0  0.993988  0  0  0.098962  0.148441  0  0.995439  0
H  H28  1  0.00721119  0.49777056  0.39707386  1  0  0.388367  0  0.887445  0  0  0.359184  0  0.971616  0  0  0.368009  0  0.96161  0  0  0.307096  0.35274  0  0.979245  0
H  H29  1  0.61067784  0.00247594  0.60329152  1  0  0.387893  0  0.888023  0  0  0.358884  0  0.971952  0  0  0.367693  0  0.961995  0  0  0.307152  0.352444  0  0.979548  0
H  H30  1  0.99279127  0.50222784  0.60292691  1  0  0.388407  0  0.887403  0  0  0.359221  0  0.97157  0  0  0.368046  0  0.961567  0  0  0.307111  0.352777  0  0.9792  0
H  H31  1  0.38933066  0.99752343  0.39671353  1  0  0.387891  0  0.88804  0  0  0.358897  0  0.971927  0  0  0.367705  0  0.961972  0  0  0.307174  0.352455  0  0.979527  0
H  H32  1  0.86300788  0.24906547  0.10145212  1  0  0.40542  0  0.860071  0  0  0.374326  0  0.946822  0  0  0.385809  0  0.931637  0  0  0.316513  0.366074  0  0.957732  0
H  H33  1  0.75984867  0.25139034  0.89563732  1  0  0.403869  0  0.860905  0  0  0.372399  0  0.948468  0  0  0.383943  0  0.933192  0  0  0.316247  0.36412  0  0.959414  0
H  H34  1  0.13699023  0.75093507  0.89853979  1  0  0.405392  0  0.860177  0  0  0.374312  0  0.946909  0  0  0.385795  0  0.931725  0  0  0.31649  0.366059  0  0.957821  0
H  H35  1  0.24013759  0.74861430  0.10435363  1  0  0.403929  0  0.860788  0  0  0.37246  0  0.948357  0  0  0.384003  0  0.933082  0  0  0.316263  0.364182  0  0.959301  0
C  C36  1  0.62701586  0.34001596  0.48881280  1  0  -0.18691  0  3.612549  0  0  -0.20952  0  3.893688  0  0  -0.211874  0  3.911384  0  0  -0.088732  -0.208655  0  3.882631  0
C  C37  1  0.13862548  0.16008297  0.51161072  1  0  -0.185697  0  3.61086  0  0  -0.208338  0  3.891658  0  0  -0.210658  0  3.909458  0  0  -0.088369  -0.207464  0  3.880505  0
C  C38  1  0.37299295  0.65997932  0.51119180  1  0  -0.186773  0  3.612505  0  0  -0.209389  0  3.893587  0  0  -0.211742  0  3.911281  0  0  -0.088644  -0.208528  0  3.882535  0
C  C39  1  0.86137556  0.83991949  0.48839277  1  0  -0.185698  0  3.611019  0  0  -0.208354  0  3.891832  0  0  -0.210676  0  3.909637  0  0  -0.088379  -0.207491  0  3.88067  0
C  C40  1  0.59173206  0.32251206  0.58969964  1  0  0.069283  0  3.77154  0  0  0.033872  0  4.045904  0  0  0.036142  0  4.065773  0  0  0.006481  0.031691  0  4.033055  0
C  C41  1  0.00251494  0.17752208  0.41057474  1  0  0.069333  0  3.770763  0  0  0.033689  0  4.045458  0  0  0.035999  0  4.06524  0  0  0.00654  0.031458  0  4.032692  0
C  C42  1  0.40827138  0.67748528  0.41030379  1  0  0.06929  0  3.771483  0  0  0.033857  0  4.045887  0  0  0.036131  0  4.065755  0  0  0.006435  0.031673  0  4.033043  0
C  C43  1  0.99747908  0.82248044  0.58942270  1  0  0.069311  0  3.770887  0  0  0.033683  0  4.045571  0  0  0.035994  0  4.065355  0  0  0.00653  0.031452  0  4.032811  0
C  C44  1  0.69783705  0.54436494  0.70904092  1  0  0.077242  0  3.73678  0  0  0.070178  0  4.007561  0  0  0.077848  0  4.023838  0  0  0.117812  0.065456  0  3.996587  0
C  C45  1  0.98937796  0.95558707  0.29158724  1  0  0.075851  0  3.738807  0  0  0.068707  0  4.009181  0  0  0.076479  0  4.025379  0  0  0.116642  0.063902  0  3.998247  0
C  C46  1  0.30216215  0.45563447  0.29095995  1  0  0.077332  0  3.736805  0  0  0.070255  0  4.007528  0  0  0.077927  0  4.023808  0  0  0.117852  0.065532  0  3.996555  0
C  C47  1  0.01062435  0.04441647  0.70841081  1  0  0.075979  0  3.738545  0  0  0.068801  0  4.009008  0  0  0.076572  0  4.025206  0  0  0.11668  0.063995  0  3.998075  0
C  C48  1  0.75620626  0.67881460  0.82594614  1  0  0.249908  0  3.697452  0  0  0.24365  0  3.961823  0  0  0.254511  0  3.974317  0  0  0.141178  0.235517  0  3.954269  0
C  C49  1  0.93080079  0.82114655  0.17469150  1  0  0.24984  0  3.69737  0  0  0.243762  0  3.961953  0  0  0.254435  0  3.974666  0  0  0.141395  0.235782  0  3.954199  0
C  C50  1  0.24379409  0.32118482  0.17405424  1  0  0.249861  0  3.697546  0  0  0.243681  0  3.961808  0  0  0.254544  0  3.974301  0  0  0.141175  0.235548  0  3.954252  0
C  C51  1  0.06920157  0.17885696  0.82530924  1  0  0.249692  0  3.697366  0  0  0.243604  0  3.961993  0  0  0.254278  0  3.97471  0  0  0.141303  0.235625  0  3.954241  0
C  C52  1  0.81376926  0.79813939  0.80839811  1  0  -0.368818  0  3.678139  0  0  -0.449245  0  3.909531  0  0  -0.453967  0  3.917066  0  0  -0.242814  -0.445383  0  3.9043  0
C  C53  1  0.00597178  0.70171497  0.19192232  1  0  -0.368276  0  3.676315  0  0  -0.449414  0  3.908017  0  0  -0.454096  0  3.915767  0  0  -0.243122  -0.445586  0  3.902663  0
C  C54  1  0.18623225  0.20186003  0.19160268  1  0  -0.368909  0  3.678279  0  0  -0.449341  0  3.90964  0  0  -0.454065  0  3.917175  0  0  -0.242863  -0.44548  0  3.904408  0
C  C55  1  0.99403106  0.29829055  0.80808200  1  0  -0.368313  0  3.676121  0  0  -0.449398  0  3.907819  0  0  -0.454082  0  3.915566  0  0  -0.243076  -0.445586  0  3.902453  0
S  S56  1  0.71125776  0.50611421  0.54975705  1  0  0.171282  0  2.659561  0  0  0.188263  0  2.992982  0  0  0.186457  0  2.999732  0  0  0.137041  0.189181  0  2.988618  0
S  S57  1  0.16200169  0.99391894  0.45095138  1  0  0.1701  0  2.65907  0  0  0.187048  0  2.992533  0  0  0.185189  0  2.999219  0  0  0.136565  0.18803  0  2.988194  0
S  S58  1  0.28874752  0.49388112  0.45024363  1  0  0.171212  0  2.65962  0  0  0.188175  0  2.993061  0  0  0.186367  0  2.999812  0  0  0.137028  0.189092  0  2.988693  0
S  S59  1  0.83799883  0.00608153  0.54904675  1  0  0.170083  0  2.659014  0  0  0.187056  0  2.992491  0  0  0.185197  0  2.999178  0  0  0.136592  0.188039  0  2.988158  0
N  N60  1  0.63335728  0.43658747  0.71302197  1  0  -0.336761  0  3.376508  0  0  -0.27434  0  3.678903  0  0  -0.288705  0  3.691852  0  0  -0.351407  -0.263667  0  3.668989  0
N  N61  1  0.92087685  0.06334964  0.28737842  1  0  -0.336288  0  3.3751  0  0  -0.273532  0  3.676773  0  0  -0.287878  0  3.689658  0  0  -0.35081  -0.262858  0  3.666918  0
N  N62  1  0.36664425  0.56341194  0.28697972  1  0  -0.336915  0  3.376505  0  0  -0.274478  0  3.678895  0  0  -0.288851  0  3.691849  0  0  -0.35145  -0.263807  0  3.668985  0
N  N63  1  0.07912250  0.93665085  0.71261839  1  0  -0.336305  0  3.375162  0  0  -0.273577  0  3.676895  0  0  -0.287922  0  3.689781  0  0  -0.350813  -0.262904  0  3.667043  0
N  N64  1  0.75512295  0.68852774  0.94562316  1  0  -0.192373  0  3.136464  0  0  -0.151739  0  3.423398  0  0  -0.163695  0  3.437971  0  0  -0.182791  -0.143201  0  3.413613  0
N  N65  1  0.80987761  0.81148019  0.05511513  1  0  -0.192849  0  3.136039  0  0  -0.152356  0  3.423041  0  0  -0.164245  0  3.437663  0  0  -0.182708  -0.143848  0  3.413187  0
N  N66  1  0.24487858  0.31147167  0.05437853  1  0  -0.192346  0  3.136489  0  0  -0.15175  0  3.423413  0  0  -0.163705  0  3.437986  0  0  -0.182785  -0.143212  0  3.413629  0
N  N67  1  0.19012175  0.18852029  0.94488258  1  0  -0.19277  0  3.136153  0  0  -0.152265  0  3.423164  0  0  -0.164156  0  3.437791  0  0  -0.18268  -0.14376  0  3.41331  0
O  O68  1  0.67098978  0.49366788  0.13210880  1  0  -0.86522  0  2.068886  0  0  -0.761295  0  2.363614  0  0  -0.791541  0  2.33746  0  0  -0.385536  -0.739806  0  2.380927  0
O  O69  1  0.53896784  0.00608736  0.86793806  1  0  -0.863557  0  2.068925  0  0  -0.760108  0  2.363202  0  0  -0.7903  0  2.33712  0  0  -0.384317  -0.738628  0  2.380477  0
O  O70  1  0.32901310  0.50633257  0.86789194  1  0  -0.865164  0  2.068821  0  0  -0.761248  0  2.363542  0  0  -0.791489  0  2.337386  0  0  -0.38551  -0.739758  0  2.380855  0
O  O71  1  0.46102412  0.99391111  0.13205632  1  0  -0.863521  0  2.068939  0  0  -0.7601  0  2.363248  0  0  -0.790286  0  2.337163  0  0  -0.384295  -0.738619  0  2.380522  0
O  O72  1  0.69761326  0.30620891  0.23549518  1  0  -0.876456  0  1.886875  0  0  -0.80825  0  2.15242  0  0  -0.833888  0  2.129268  0  0  -0.382708  -0.790032  0  2.168251  0
O  O73  1  0.46179791  0.19347074  0.76421403  1  0  -0.876563  0  1.888009  0  0  -0.808346  0  2.152979  0  0  -0.833963  0  2.129866  0  0  -0.382651  -0.790187  0  2.168884  0
O  O74  1  0.30238451  0.69378953  0.76450125  1  0  -0.876459  0  1.886801  0  0  -0.808275  0  2.152361  0  0  -0.833912  0  2.12921  0  0  -0.382724  -0.790058  0  2.1682  0
O  O75  1  0.53819130  0.80652570  0.23577866  1  0  -0.876601  0  1.888028  0  0  -0.808315  0  2.15295  0  0  -0.833935  0  2.129841  0  0  -0.382631  -0.790159  0  2.168855  0
O  O76  1  0.90488856  0.52733995  0.36440338  1  0  -0.755995  0  2.03255  0  0  -0.687815  0  2.264782  0  0  -0.708254  0  2.2443  0  0  -0.396876  -0.672629  0  2.278511  0
O  O77  1  0.54121621  0.97270681  0.63599046  1  0  -0.755359  0  2.032929  0  0  -0.687724  0  2.265363  0  0  -0.708098  0  2.244811  0  0  -0.397448  -0.672629  0  2.279296  0
O  O78  1  0.09511369  0.47265742  0.63559784  1  0  -0.756099  0  2.032588  0  0  -0.687888  0  2.26478  0  0  -0.708341  0  2.244323  0  0  -0.396909  -0.672704  0  2.278516  0
O  O79  1  0.45878242  0.02729572  0.36400681  1  0  -0.755365  0  2.032972  0  0  -0.687711  0  2.265384  0  0  -0.708083  0  2.244835  0  0  -0.397491  -0.672624  0  2.279339  0
O  O80  1  0.88592835  0.34866447  0.13849532  1  0  -0.78208  0  2.013974  0  0  -0.71518  0  2.249041  0  0  -0.735786  0  2.224891  0  0  -0.406461  -0.700515  0  2.266184  0
O  O81  1  0.74737223  0.15206943  0.86294652  1  0  -0.780488  0  2.014833  0  0  -0.713228  0  2.249563  0  0  -0.733802  0  2.225278  0  0  -0.405293  -0.698569  0  2.266777  0
O  O82  1  0.11407825  0.65133697  0.86150798  1  0  -0.782085  0  2.014157  0  0  -0.715205  0  2.249203  0  0  -0.735811  0  2.225056  0  0  -0.406415  -0.700538  0  2.266346  0
O  O83  1  0.25261874  0.84793515  0.13705057  1  0  -0.780496  0  2.01462  0  0  -0.713262  0  2.249378  0  0  -0.733834  0  2.225094  0  0  -0.405324  -0.698602  0  2.266594  0
