# generated using pymatgen
data_CoH12C19N2O5
_symmetry_space_group_name_H-M   'P 1'
_cell_length_a   5.84880095
_cell_length_b   15.64833679
_cell_length_c   22.57111557
_cell_angle_alpha   96.18910687
_cell_angle_beta   90.00079867
_cell_angle_gamma   90.00185665
_symmetry_Int_Tables_number   1
_chemical_formula_structural   CoH12C19N2O5
_chemical_formula_sum   'Co4 H48 C76 N8 O20'
_cell_volume   2053.75838793
_cell_formula_units_Z   4
loop_
 _symmetry_equiv_pos_site_id
 _symmetry_equiv_pos_as_xyz
  1  'x, y, z'
loop_
 _atom_site_type_symbol
 _atom_site_label
 _atom_site_symmetry_multiplicity
 _atom_site_fract_x
 _atom_site_fract_y
 _atom_site_fract_z
 _atom_site_occupancy
 _atom_site_pbe_bader_charge
 _atom_site_pbe_bader_spin_density
 _atom_site_pbe_cm5_charge
 _atom_site_pbe_ddec_charge
 _atom_site_pbe_ddec_spin_density
 _atom_site_pbe_ddec_sum_bond_order
 _atom_site_pbe_magmom
Co  Co0  1  0.37118766  0.76148804  0.84653221  1  1.280821  2.60639  0.680998  0.85187  2.847379  2.519209  2.581
Co  Co1  1  0.87117344  0.73852268  0.65346604  1  1.280942  2.606383  0.681041  0.851941  2.847391  2.51934  2.581
Co  Co2  1  0.62883187  0.23851715  0.15347316  1  1.280931  2.606324  0.681035  0.851917  2.847318  2.519444  2.581
Co  Co3  1  0.12884267  0.26148582  0.34652852  1  1.280664  2.606343  0.680988  0.851924  2.847315  2.519361  2.581
H  H4  1  0.40232393  0.96373245  0.68796986  1  0.113855  0.001351  0.110853  0.117685  0.000607  0.995843  0.001
H  H5  1  0.90229096  0.53628066  0.81202206  1  0.113207  0.001351  0.110944  0.117796  0.000607  0.995938  0.001
H  H6  1  0.59765970  0.03626058  0.31202835  1  0.113928  0.001351  0.110912  0.117717  0.000607  0.995966  0.001
H  H7  1  0.09775422  0.46372596  0.18796703  1  0.112713  0.001351  0.110914  0.117756  0.000607  0.995936  0.001
H  H8  1  0.05554029  0.05558310  0.71903596  1  0.083372  -0.000346  0.113904  0.126233  -0.000389  0.975832  0.0
H  H9  1  0.55546297  0.44443831  0.78096660  1  0.083763  -0.000346  0.113919  0.126278  -0.000388  0.975799  0.0
H  H10  1  0.94446385  0.94441756  0.28097216  1  0.082774  -0.000347  0.113948  0.126235  -0.000389  0.976012  0.0
H  H11  1  0.44457195  0.55556377  0.21902612  1  0.083271  -0.000346  0.113927  0.126219  -0.000388  0.976104  0.0
H  H12  1  0.95215403  0.89630435  0.86171146  1  0.149493  0.00178  0.13104  0.129047  0.000395  0.976071  0.001
H  H13  1  0.45209837  0.60370547  0.63828748  1  0.149269  0.001779  0.131161  0.129186  0.000395  0.976003  0.001
H  H14  1  0.04788260  0.10368413  0.13829259  1  0.149775  0.001778  0.131158  0.129247  0.000395  0.975986  0.001
H  H15  1  0.54791090  0.39631070  0.36171167  1  0.149393  0.001779  0.131065  0.129075  0.000395  0.975993  0.001
H  H16  1  0.09867681  0.11350539  0.87810946  1  0.088934  3.3e-05  0.102707  0.114676  -1e-06  1.021141  0.0
H  H17  1  0.59853728  0.38648151  0.62192997  1  0.088161  3.3e-05  0.102722  0.114722  -1e-06  1.021018  0.0
H  H18  1  0.90138717  0.88646937  0.12191743  1  0.088069  3.3e-05  0.10271  0.114866  -1e-06  1.021093  0.0
H  H19  1  0.40149593  0.61352247  0.37806644  1  0.088229  3.3e-05  0.102675  0.114655  -1e-06  1.021114  0.0
H  H20  1  0.41694581  0.00930754  0.86902029  1  0.083418  -3.5e-05  0.103096  0.115166  -0.000146  1.033009  0.0
H  H21  1  0.91683807  0.49069931  0.63096926  1  0.08327  -3.6e-05  0.103109  0.114997  -0.000146  1.032892  0.0
H  H22  1  0.58307714  0.99069058  0.13098408  1  0.082943  -3.6e-05  0.103072  0.115101  -0.000146  1.033021  0.0
H  H23  1  0.08319343  0.50931045  0.36902894  1  0.082695  -3.6e-05  0.103169  0.115139  -0.000146  1.032901  0.0
H  H24  1  0.29300686  0.57642748  0.87166477  1  0.112624  0.001514  0.114789  0.087424  0.000386  1.016564  0.001
H  H25  1  0.79296150  0.92356937  0.62833384  1  0.112223  0.001513  0.114943  0.087713  0.000385  1.016635  0.001
H  H26  1  0.70701951  0.42357527  0.12832490  1  0.112724  0.001515  0.114893  0.087594  0.000386  1.016613  0.001
H  H27  1  0.20697938  0.07643000  0.37167506  1  0.111763  0.001515  0.11486  0.087558  0.000387  1.016416  0.001
H  H28  1  0.49265302  0.47005955  0.92884196  1  0.054821  0.000888  0.104256  0.112535  0.000391  1.000567  0.0
H  H29  1  0.99259097  0.02994562  0.57115529  1  0.054946  0.000889  0.104223  0.112525  0.000391  1.000525  0.0
H  H30  1  0.50732547  0.52992841  0.07114654  1  0.05508  0.000889  0.104264  0.112669  0.000391  1.000597  0.0
H  H31  1  0.00725075  0.97007561  0.42885356  1  0.055675  0.000888  0.104362  0.112674  0.000391  1.000486  0.0
H  H32  1  0.81809022  0.42988122  0.98407125  1  0.061405  -0.00021  0.102223  0.102396  -0.00017  1.008924  0.0
H  H33  1  0.31803606  0.07013015  0.51591871  1  0.061085  -0.000209  0.102275  0.10259  -0.000169  1.008908  0.0
H  H34  1  0.18187973  0.57009765  0.01592849  1  0.06161  -0.00021  0.102284  0.102562  -0.000169  1.009011  0.0
H  H35  1  0.68178343  0.92991258  0.48405950  1  0.061939  -0.00021  0.102289  0.102486  -0.00017  1.009342  0.0
H  H36  1  0.04048379  0.65692145  0.95970439  1  0.098721  0.000643  0.107703  0.116371  0.000235  1.021386  0.0
H  H37  1  0.54042036  0.84309986  0.54029028  1  0.098421  0.000643  0.107792  0.116447  0.000235  1.021367  0.0
H  H38  1  0.95951864  0.34305662  0.04031169  1  0.098651  0.000643  0.107737  0.116494  0.000235  1.021333  0.0
H  H39  1  0.45944871  0.15694370  0.45966673  1  0.097588  0.000643  0.107918  0.116717  0.000235  1.021256  0.0
H  H40  1  0.82235110  0.75152206  0.90215666  1  0.17096  0.001651  0.124771  0.111974  0.000383  1.018008  0.001
H  H41  1  0.32231134  0.74849508  0.59784545  1  0.171316  0.001651  0.124802  0.112087  0.000383  1.017906  0.001
H  H42  1  0.17768040  0.24847014  0.09786319  1  0.170745  0.001652  0.124748  0.11192  0.000384  1.017691  0.001
H  H43  1  0.67765519  0.25153102  0.40212303  1  0.170606  0.001653  0.124752  0.111865  0.000384  1.017652  0.001
H  H44  1  0.35288648  0.06726830  0.97597993  1  0.121864  0.000388  0.105622  0.108045  0.000221  1.013567  0.0
H  H45  1  0.85283355  0.43271773  0.52401570  1  0.122437  0.000388  0.105723  0.10832  0.000221  1.013675  0.0
H  H46  1  0.64714502  0.93271300  0.02403463  1  0.127087  0.000388  0.105664  0.108167  0.000221  1.013762  0.0
H  H47  1  0.14719624  0.56728623  0.47598204  1  0.126817  0.000388  0.105735  0.108339  0.000221  1.01373  0.0
H  H48  1  0.03471143  0.16972294  0.98493016  1  0.091688  0.000595  0.10632  0.112218  0.000292  1.008692  0.0
H  H49  1  0.53462688  0.33024704  0.51511035  1  0.092684  0.000593  0.106228  0.112279  0.000292  1.008723  0.0
H  H50  1  0.96534058  0.83023311  0.01510279  1  0.092368  0.000593  0.106307  0.112238  0.000292  1.00881  0.0
H  H51  1  0.46540975  0.66975373  0.48488493  1  0.09286  0.000593  0.106269  0.11238  0.000293  1.008706  0.0
C  C52  1  0.55569771  0.82658173  0.74501449  1  1.588638  0.00159  0.221865  0.558861  0.000356  4.17899  0.001
C  C53  1  0.05568790  0.67343460  0.75498383  1  1.589858  0.001592  0.221792  0.559065  0.000364  4.179185  0.001
C  C54  1  0.44430472  0.17341968  0.25498128  1  1.58927  0.001597  0.221723  0.558909  0.000363  4.179168  0.001
C  C55  1  0.94432308  0.32657840  0.24501153  1  1.588912  0.001597  0.221745  0.558801  0.000365  4.179187  0.001
C  C56  1  0.35597590  0.88479305  0.75907670  1  0.528684  -0.002995  0.105908  0.080173  -0.004801  3.985609  -0.001
C  C57  1  0.85594306  0.61522265  0.74091789  1  0.527596  -0.002987  0.106014  0.080052  -0.004795  3.985504  -0.001
C  C58  1  0.64403337  0.11519610  0.24092297  1  0.528391  -0.002996  0.105948  0.080022  -0.004803  3.985618  -0.001
C  C59  1  0.14408331  0.38479294  0.25907501  1  0.528183  -0.002992  0.105991  0.0803  -0.004797  3.985192  -0.001
C  C60  1  0.29819699  0.95190581  0.72623107  1  -0.031075  0.004586  -0.070892  -0.092243  0.002105  3.966063  0.003
C  C61  1  0.79815127  0.54810141  0.77376661  1  -0.030507  0.004587  -0.070957  -0.092495  0.002106  3.966144  0.003
C  C62  1  0.70180202  0.04808012  0.27377012  1  -0.031858  0.004591  -0.07098  -0.092353  0.002108  3.96629  0.003
C  C63  1  0.20187851  0.45191225  0.22622614  1  -0.02989  0.00459  -0.070898  -0.092349  0.002107  3.965784  0.003
C  C64  1  0.10800568  0.00217891  0.74314665  1  0.015468  -0.013645  -0.081111  -0.159646  -0.014645  3.965135  -0.008
C  C65  1  0.60794045  0.49783483  0.75685286  1  0.015279  -0.013632  -0.081314  -0.159552  -0.014628  3.965194  -0.008
C  C66  1  0.89200188  0.99781149  0.25685800  1  0.016441  -0.013647  -0.081033  -0.159316  -0.014646  3.965855  -0.008
C  C67  1  0.39209618  0.50217947  0.24313950  1  0.016588  -0.013638  -0.081339  -0.15964  -0.014636  3.965346  -0.008
C  C68  1  0.98254531  0.98282231  0.79255064  1  0.431433  0.00444  0.094097  0.22476  0.002152  4.035664  0.004
C  C69  1  0.48245971  0.51719172  0.70745275  1  0.431874  0.004445  0.094052  0.224397  0.002154  4.03568  0.004
C  C70  1  0.01746567  0.01716994  0.20746257  1  0.431063  0.004443  0.093917  0.224496  0.002153  4.035538  0.004
C  C71  1  0.51755127  0.48282133  0.29253641  1  0.429798  0.004446  0.094204  0.224551  0.002155  4.035364  0.004
C  C72  1  0.04912265  0.91379863  0.82350446  1  0.535053  -0.010132  0.050153  -0.003076  -0.011011  3.88519  -0.006
C  C73  1  0.54906539  0.58621313  0.67649170  1  0.535846  -0.010126  0.050104  -0.002949  -0.011004  3.885024  -0.006
C  C74  1  0.95090543  0.08618661  0.17650199  1  0.53527  -0.010134  0.050122  -0.003145  -0.011015  3.884749  -0.006
C  C75  1  0.45094730  0.41379988  0.32350188  1  0.536417  -0.010141  0.050221  -0.002818  -0.011019  3.884548  -0.006
C  C76  1  0.75924206  0.05901487  0.86811982  1  0.374673  -0.001317  0.083795  0.257204  -0.001401  4.03694  -0.001
C  C77  1  0.25910794  0.44098274  0.63188655  1  0.373849  -0.001318  0.083532  0.256917  -0.001402  4.0373  -0.001
C  C78  1  0.24081338  0.94096771  0.13189573  1  0.374823  -0.001318  0.083609  0.257031  -0.001402  4.037206  -0.001
C  C79  1  0.74092185  0.55902447  0.36810835  1  0.374139  -0.001317  0.083468  0.256755  -0.001402  4.037517  -0.001
C  C80  1  0.93578522  0.10359260  0.89979576  1  -0.013518  0.000746  -0.107293  -0.215543  0.000232  4.020058  0.001
C  C81  1  0.43565766  0.39639809  0.60022982  1  -0.011968  0.000746  -0.107241  -0.215549  0.000232  4.020668  0.001
C  C82  1  0.06426508  0.89638221  0.10022671  1  -0.01278  0.000746  -0.107362  -0.215901  0.000233  4.020521  0.001
C  C83  1  0.56437555  0.60360590  0.39976527  1  -0.012006  0.000746  -0.107122  -0.215359  0.000232  4.020675  0.001
C  C84  1  0.54829803  0.04624505  0.89447775  1  0.039929  0.000936  -0.097928  -0.180274  0.000358  3.975903  0.001
C  C85  1  0.04820311  0.45374149  0.60552868  1  0.040521  0.000936  -0.097802  -0.179697  0.000358  3.975755  0.001
C  C86  1  0.45175569  0.95373497  0.10553627  1  0.039806  0.000937  -0.097838  -0.179863  0.000358  3.975678  0.001
C  C87  1  0.95184036  0.54626120  0.39446808  1  0.04068  0.000936  -0.097817  -0.179773  0.000358  3.975711  0.001
C  C88  1  0.45859577  0.59074618  0.89260081  1  0.43698  -0.009607  0.038352  0.083105  -0.009986  3.982222  -0.005
C  C89  1  0.95853278  0.90926176  0.60740155  1  0.436462  -0.009611  0.038375  0.083053  -0.00999  3.98216  -0.005
C  C90  1  0.54142547  0.40924945  0.10739362  1  0.436631  -0.009594  0.038152  0.082786  -0.009973  3.982722  -0.005
C  C91  1  0.04136194  0.09075372  0.39260330  1  0.438387  -0.009592  0.038296  0.083009  -0.009974  3.982665  -0.005
C  C92  1  0.57137775  0.53220088  0.92421867  1  -0.050723  0.001744  -0.093002  -0.195802  -8.6e-05  3.971308  0.003
C  C93  1  0.07131000  0.96780534  0.57578158  1  -0.049633  0.001752  -0.093069  -0.196135  -8.1e-05  3.971105  0.003
C  C94  1  0.42864349  0.46778446  0.07577627  1  -0.049241  0.001742  -0.092942  -0.195938  -8.7e-05  3.971431  0.003
C  C95  1  0.92855736  0.03221788  0.42422079  1  -0.050415  0.001742  -0.093027  -0.195907  -8.6e-05  3.971514  0.003
C  C96  1  0.78554799  0.55333754  0.95067207  1  0.018027  -0.014898  -0.00429  0.129252  -0.015665  4.058791  -0.008
C  C97  1  0.28548910  0.94667465  0.54932640  1  0.017095  -0.014907  -0.003961  0.130278  -0.015673  4.057995  -0.008
C  C98  1  0.21444589  0.44663875  0.04932748  1  0.015845  -0.0149  -0.004231  0.12964  -0.01566  4.058729  -0.008
C  C99  1  0.71438168  0.05336868  0.45065717  1  0.016343  -0.014883  -0.004455  0.129275  -0.015646  4.058586  -0.008
C  C100  1  0.90148784  0.49243592  0.98441886  1  -0.003135  -0.015294  -0.089352  -0.131784  -0.016435  3.988135  -0.008
C  C101  1  0.40141450  0.00757454  0.51557623  1  -0.003758  -0.015264  -0.089593  -0.132604  -0.016404  3.988529  -0.008
C  C102  1  0.09848040  0.50753845  0.01557920  1  -0.09004  -0.015268  -0.089467  -0.132267  -0.016449  3.988624  -0.008
C  C103  1  0.59838447  0.99245846  0.48441184  1  -0.089992  -0.015287  -0.089286  -0.131723  -0.016463  3.988065  -0.008
C  C104  1  0.87512014  0.63465776  0.94201585  1  -0.017498  -0.001954  -0.084215  -0.174001  -0.002871  3.922106  0.0
C  C105  1  0.37505624  0.86536200  0.55798402  1  -0.01656  -0.001946  -0.084476  -0.174578  -0.002866  3.922107  0.0
C  C106  1  0.12488401  0.36532103  0.05799187  1  -0.018004  -0.001957  -0.084211  -0.174357  -0.002877  3.922282  0.0
C  C107  1  0.62481796  0.13467753  0.44199350  1  -0.01686  -0.001952  -0.084356  -0.17455  -0.002871  3.922713  0.0
C  C108  1  0.75360965  0.68897691  0.90917159  1  0.42603  -0.006697  0.048128  0.106571  -0.007316  3.92097  -0.003
C  C109  1  0.25357162  0.81103612  0.59083080  1  0.425729  -0.006703  0.048128  0.106549  -0.007323  3.920727  -0.003
C  C110  1  0.24642185  0.31101407  0.09083975  1  0.426608  -0.006699  0.048138  0.106835  -0.007317  3.920737  -0.003
C  C111  1  0.74638807  0.18898153  0.40914720  1  0.426154  -0.006697  0.048226  0.107054  -0.007313  3.920565  -0.003
C  C112  1  0.51430754  0.07800576  0.95384768  1  0.004233  -0.000334  -0.077769  -0.063971  -0.000595  3.960365  0.0
C  C113  1  0.01421385  0.42197007  0.54615732  1  0.002851  -0.000336  -0.077744  -0.064486  -0.000598  3.960843  0.0
C  C114  1  0.48575131  0.92196331  0.04616769  1  -0.000679  -0.000335  -0.077683  -0.064198  -0.000596  3.960859  0.0
C  C115  1  0.98582107  0.57803391  0.45383910  1  -0.001527  -0.000335  -0.077749  -0.064481  -0.000596  3.960937  0.0
C  C116  1  0.68919055  0.12239251  0.98660642  1  -0.112843  0.003511  -0.026084  -0.052088  0.001882  3.995924  0.002
C  C117  1  0.18911707  0.37758292  0.51340677  1  -0.111449  0.003508  -0.026165  -0.051833  0.001881  3.995733  0.002
C  C118  1  0.31084778  0.87757268  0.01341218  1  -0.112214  0.003508  -0.025998  -0.051851  0.001881  3.996076  0.002
C  C119  1  0.81091272  0.62242235  0.48658886  1  -0.111696  0.003509  -0.026191  -0.051889  0.001881  3.995755  0.002
C  C120  1  0.89979431  0.13504275  0.95907781  1  -0.064748  -4e-06  -0.084048  -0.071036  -0.000334  3.978766  0.0
C  C121  1  0.39971418  0.36493843  0.54095307  1  -0.066448  -5e-06  -0.083996  -0.071454  -0.000335  3.97895  0.0
C  C122  1  0.10024916  0.86492559  0.04094813  1  -0.065727  -4e-06  -0.084176  -0.071369  -0.000335  3.979101  0.0
C  C123  1  0.60030193  0.63506746  0.45904571  1  -0.066287  -4e-06  -0.084078  -0.071592  -0.000335  3.978793  0.0
C  C124  1  0.65222378  0.15664851  0.04993913  1  1.546651  -0.003557  0.192169  0.541807  -0.004873  4.21771  -0.005
C  C125  1  0.15221419  0.34334248  0.45006923  1  1.545021  -0.003555  0.192181  0.54182  -0.004873  4.21776  -0.005
C  C126  1  0.34777010  0.84332958  0.95007607  1  1.544688  -0.003554  0.192057  0.541627  -0.004875  4.217725  -0.005
C  C127  1  0.84780534  0.65666729  0.54992676  1  1.545486  -0.003554  0.192199  0.54199  -0.004872  4.21754  -0.005
N  N128  1  0.54645120  0.66860771  0.88503969  1  -1.219343  0.048396  -0.336227  -0.249677  0.026504  3.584468  0.041
N  N129  1  0.04642122  0.83140204  0.61496206  1  -1.219211  0.048412  -0.336439  -0.249869  0.026512  3.584444  0.041
N  N130  1  0.45357517  0.33139237  0.11496173  1  -1.219547  0.048408  -0.336279  -0.249746  0.026511  3.584779  0.041
N  N131  1  0.95354188  0.16860776  0.38503127  1  -1.219372  0.048397  -0.336339  -0.249964  0.026506  3.584811  0.041
N  N132  1  0.23294247  0.86644452  0.80679745  1  -1.2111  0.050362  -0.313534  -0.237528  0.02619  3.608752  0.047
N  N133  1  0.73290042  0.63356510  0.69319795  1  -1.211211  0.050375  -0.313659  -0.237735  0.026197  3.609403  0.047
N  N134  1  0.76706852  0.13355042  0.19320313  1  -1.210873  0.050357  -0.313546  -0.23761  0.026187  3.608451  0.047
N  N135  1  0.26711740  0.36644275  0.30679656  1  -1.211584  0.050366  -0.313707  -0.237868  0.026189  3.608859  0.047
O  O136  1  0.61372558  0.77919501  0.78511637  1  -1.13298  0.092792  -0.295651  -0.51684  0.0479  2.352825  0.076
O  O137  1  0.11369750  0.72082010  0.71488651  1  -1.133555  0.09279  -0.295505  -0.516729  0.0479  2.352934  0.076
O  O138  1  0.38630592  0.22080443  0.21488500  1  -1.133636  0.092759  -0.295455  -0.516636  0.047884  2.353254  0.076
O  O139  1  0.88631861  0.27918901  0.28511164  1  -1.133137  0.092789  -0.295542  -0.516697  0.047898  2.352805  0.076
O  O140  1  0.78746392  0.02937987  0.80796468  1  -1.099167  0.001215  -0.160312  -0.22553  0.000587  2.546153  0.001
O  O141  1  0.28735065  0.47065536  0.69204743  1  -1.099202  0.001215  -0.160187  -0.225185  0.000587  2.545548  0.001
O  O142  1  0.21259152  0.97062009  0.19204959  1  -1.098943  0.001216  -0.160299  -0.225422  0.000588  2.545489  0.001
O  O143  1  0.71268940  0.52935699  0.30794876  1  -1.099191  0.001216  -0.160339  -0.225295  0.000588  2.545356  0.001
O  O144  1  0.81474002  0.20069898  0.07736663  1  -1.153097  0.096176  -0.315783  -0.55045  0.049831  2.299374  0.081
O  O145  1  0.31473552  0.29929275  0.42264775  1  -1.152571  0.096123  -0.315789  -0.550447  0.049816  2.29911  0.081
O  O146  1  0.18523335  0.79928429  0.92264365  1  -1.15201  0.096146  -0.315798  -0.550404  0.049826  2.298748  0.081
O  O147  1  0.68526178  0.70070801  0.57734974  1  -1.152427  0.096144  -0.315818  -0.550563  0.049826  2.298827  0.081
O  O148  1  0.46583869  0.14487698  0.07653231  1  -1.148725  0.067678  -0.306325  -0.541795  0.034422  2.187451  0.059
O  O149  1  0.96586632  0.35512972  0.42346170  1  -1.148018  0.067672  -0.306258  -0.541706  0.03442  2.187501  0.059
O  O150  1  0.53414494  0.85511145  0.92347617  1  -1.1484  0.067689  -0.306134  -0.541566  0.034429  2.187481  0.059
O  O151  1  0.03416518  0.64488908  0.57653146  1  -1.148558  0.067675  -0.306259  -0.54182  0.034423  2.187519  0.059
O  O152  1  0.65552731  0.82807545  0.69512840  1  -1.15599  0.09165  -0.298923  -0.526015  0.047932  2.378742  0.076
O  O153  1  0.15552145  0.67193063  0.80486420  1  -1.156388  0.091632  -0.299014  -0.526186  0.047924  2.378884  0.076
O  O154  1  0.34445631  0.17191695  0.30486755  1  -1.155432  0.091653  -0.298963  -0.526191  0.047938  2.378615  0.077
O  O155  1  0.84447244  0.32808494  0.19513136  1  -1.155555  0.091628  -0.298856  -0.52607  0.047924  2.379118  0.076
