# generated using pymatgen
data_KNaB2H26C18(SN3)6
_symmetry_space_group_name_H-M   'P 1'
_cell_length_a   10.55843524
_cell_length_b   10.47347166
_cell_length_c   10.50967466
_cell_angle_alpha   92.86964226
_cell_angle_beta   95.94406017
_cell_angle_gamma   118.06528234
_symmetry_Int_Tables_number   1
_chemical_formula_structural   KNaB2H26C18(SN3)6
_chemical_formula_sum   'K1 Na1 B2 H26 C18 S6 N18'
_cell_volume   1013.54063910
_cell_formula_units_Z   1
loop_
 _symmetry_equiv_pos_site_id
 _symmetry_equiv_pos_as_xyz
  1  'x, y, z'
loop_
 _atom_site_type_symbol
 _atom_site_label
 _atom_site_symmetry_multiplicity
 _atom_site_fract_x
 _atom_site_fract_y
 _atom_site_fract_z
 _atom_site_occupancy
 _atom_site_hle17_bader_spin_density
 _atom_site_hle17_ddec_charge
 _atom_site_hle17_ddec_spin_density
 _atom_site_hle17_ddec_sum_bond_order
 _atom_site_hle17_magmom
 _atom_site_hse06_10hf_bader_spin_density
 _atom_site_hse06_10hf_ddec_charge
 _atom_site_hse06_10hf_ddec_spin_density
 _atom_site_hse06_10hf_ddec_sum_bond_order
 _atom_site_hse06_10hf_magmom
 _atom_site_hse06_bader_spin_density
 _atom_site_hse06_ddec_charge
 _atom_site_hse06_ddec_spin_density
 _atom_site_hse06_ddec_sum_bond_order
 _atom_site_hse06_magmom
 _atom_site_pbe_bader_spin_density
 _atom_site_pbe_cm5_charge
 _atom_site_pbe_ddec_charge
 _atom_site_pbe_ddec_spin_density
 _atom_site_pbe_ddec_sum_bond_order
 _atom_site_pbe_magmom
K  K0  1  0.50000124  0.49999656  0.49999303  1  0  0.808616  0  0.656814  0  0  0.751186  0  0.885293  0  0  0.762772  0  0.868398  0  0  0.50144  0.742234  0  0.897535  0
Na  Na1  1  0.99999912  0.49999766  0.99999946  1  0  0.76433  0  0.629571  0  0  0.659581  0  0.87082  0  0  0.673405  0  0.847928  0  0  0.827195  0.649673  0  0.887509  0
B  B2  1  0.24533621  0.50074414  0.24586961  1  0  0.550972  0  3.145842  0  0  0.364374  0  3.465367  0  0  0.385474  0  3.463073  0  0  -0.076806  0.34967  0  3.466907  0
B  B3  1  0.75466254  0.49925320  0.75412771  1  0  0.551086  0  3.145685  0  0  0.364521  0  3.465059  0  0  0.385652  0  3.462704  0  0  -0.076771  0.349784  0  3.466694  0
H  H4  1  0.32957983  0.50174163  0.33020982  1  0  -0.249707  0  1.074247  0  0  -0.205019  0  1.176959  0  0  -0.209154  0  1.175794  0  0  0.050148  -0.202008  0  1.176956  0
H  H5  1  0.67041739  0.49825246  0.66978526  1  0  -0.24974  0  1.074217  0  0  -0.205068  0  1.176953  0  0  -0.209208  0  1.175788  0  0  0.050129  -0.202058  0  1.176964  0
H  H6  1  0.16524712  0.30905782  0.82106402  1  0  0.112509  0  0.920281  0  0  0.124171  0  0.979718  0  0  0.127222  0  0.976009  0  0  0.14413  0.122321  0  0.98206  0
H  H7  1  0.83475453  0.69093959  0.17892790  1  0  0.112483  0  0.920333  0  0  0.124163  0  0.979743  0  0  0.12721  0  0.976037  0  0  0.144176  0.122311  0  0.982088  0
H  H8  1  0.51502605  0.31765114  0.95889601  1  0  0.110615  0  0.951556  0  0  0.123226  0  1.025395  0  0  0.124689  0  1.025243  0  0  0.103891  0.121942  0  1.025873  0
H  H9  1  0.48498113  0.68235603  0.04110368  1  0  0.110699  0  0.951507  0  0  0.123268  0  1.025393  0  0  0.124741  0  1.025222  0  0  0.103909  0.121984  0  1.02587  0
H  H10  1  0.39368760  0.27517734  0.81087643  1  0  0.108189  0  0.971782  0  0  0.123522  0  1.044698  0  0  0.12479  0  1.044866  0  0  0.103423  0.122393  0  1.04482  0
H  H11  1  0.60631959  0.72482985  0.18912135  1  0  0.108172  0  0.97184  0  0  0.123491  0  1.044765  0  0  0.124752  0  1.044936  0  0  0.103416  0.122362  0  1.044886  0
H  H12  1  0.35762755  0.14374721  0.92393858  1  0  0.088749  0  0.922424  0  0  0.11228  0  0.981536  0  0  0.112682  0  0.98114  0  0  0.099093  0.111767  0  0.98209  0
H  H13  1  0.64238347  0.85626001  0.07605866  1  0  0.088681  0  0.922504  0  0  0.112263  0  0.981558  0  0  0.112686  0  0.98114  0  0  0.099097  0.111736  0  0.982125  0
H  H14  1  0.25224041  0.90165458  0.07468159  1  0  0.103738  0  0.912477  0  0  0.117413  0  0.96626  0  0  0.120275  0  0.962917  0  0  0.147882  0.115038  0  0.969442  0
H  H15  1  0.74775604  0.09834599  0.92531851  1  0  0.103758  0  0.912449  0  0  0.117442  0  0.966235  0  0  0.120305  0  0.962887  0  0  0.147858  0.115065  0  0.96942  0
H  H16  1  0.61369586  0.06662515  0.25036888  1  0  0.092762  0  0.94213  0  0  0.110388  0  1.008925  0  0  0.111209  0  1.008401  0  0  0.099319  0.109477  0  1.009968  0
H  H17  1  0.38630403  0.93337869  0.74963271  1  0  0.092738  0  0.942145  0  0  0.110362  0  1.008933  0  0  0.111181  0  1.008414  0  0  0.099293  0.109452  0  1.009979  0
H  H18  1  0.47483682  0.11639996  0.20461118  1  0  0.098603  0  0.979076  0  0  0.113037  0  1.051915  0  0  0.114706  0  1.051126  0  0  0.093529  0.111479  0  1.053063  0
H  H19  1  0.52516051  0.88359844  0.79538985  1  0  0.098601  0  0.979082  0  0  0.11302  0  1.051934  0  0  0.114689  0  1.051147  0  0  0.093521  0.111462  0  1.053082  0
H  H20  1  0.50818596  0.08258243  0.36638538  1  0  0.107355  0  0.973609  0  0  0.123057  0  1.04546  0  0  0.124428  0  1.045508  0  0  0.096817  0.12149  0  1.046296  0
H  H21  1  0.49181041  0.91741596  0.63361650  1  0  0.10737  0  0.973567  0  0  0.123066  0  1.045436  0  0  0.124443  0  1.04548  0  0  0.096809  0.121502  0  1.04627  0
H  H22  1  0.75850055  0.34512103  0.24943391  1  0  0.105899  0  0.934348  0  0  0.11846  0  0.995348  0  0  0.120922  0  0.99257  0  0  0.13912  0.116688  0  0.997595  0
H  H23  1  0.24149869  0.65487737  0.75056827  1  0  0.105877  0  0.934323  0  0  0.118448  0  0.995315  0  0  0.120901  0  0.992546  0  0  0.13912  0.116709  0  0.997526  0
H  H24  1  0.89322002  0.30596781  0.58759709  1  0  0.113174  0  0.946364  0  0  0.127436  0  1.015933  0  0  0.129064  0  1.015409  0  0  0.103497  0.126139  0  1.016344  0
H  H25  1  0.10678038  0.69403711  0.41240651  1  0  0.113197  0  0.946362  0  0  0.12747  0  1.015906  0  0  0.129094  0  1.01538  0  0  0.103529  0.126174  0  1.016317  0
H  H26  1  0.73778792  0.29806036  0.49165706  1  0  0.103674  0  0.961696  0  0  0.118372  0  1.036266  0  0  0.119185  0  1.037002  0  0  0.103558  0.117561  0  1.035997  0
H  H27  1  0.26220999  0.70194129  0.50834515  1  0  0.103629  0  0.961675  0  0  0.11832  0  1.036253  0  0  0.119128  0  1.036989  0  0  0.103519  0.117508  0  1.035983  0
H  H28  1  0.77297192  0.14609893  0.48069682  1  0  0.103569  0  0.935075  0  0  0.122712  0  1.000552  0  0  0.123897  0  0.999651  0  0  0.100737  0.121374  0  1.001854  0
H  H29  1  0.22702746  0.85390383  0.51930466  1  0  0.103512  0  0.935092  0  0  0.122644  0  1.000578  0  0  0.123827  0  0.999672  0  0  0.100708  0.121307  0  1.001879  0
C  C30  1  0.35412290  0.37374255  0.10614466  1  0  0.325866  0  3.760078  0  0  0.280395  0  4.052194  0  0  0.303582  0  4.061601  0  0  0.227846  0.264805  0  4.045219  0
C  C31  1  0.64587821  0.62625374  0.89385190  1  0  0.32588  0  3.760126  0  0  0.280459  0  4.05223  0  0  0.303639  0  4.061643  0  0  0.227855  0.26487  0  4.045249  0
C  C32  1  0.20991918  0.33799189  0.92261590  1  0  0.160809  0  3.70434  0  0  0.098874  0  3.982716  0  0  0.112672  0  3.992361  0  0  0.161359  0.089649  0  3.976477  0
C  C33  1  0.79008161  0.66200980  0.07738377  1  0  0.161049  0  3.703929  0  0  0.099138  0  3.982339  0  0  0.112944  0  3.991973  0  0  0.161394  0.089912  0  3.976102  0
C  C34  1  0.40151008  0.26030634  0.91326329  1  0  -0.159787  0  3.663395  0  0  -0.265304  0  3.920341  0  0  -0.261702  0  3.928883  0  0  -0.133833  -0.267262  0  3.914563  0
C  C35  1  0.59849518  0.73970081  0.08673715  1  0  -0.159787  0  3.663447  0  0  -0.26527  0  3.920403  0  0  -0.261682  0  3.92893  0  0  -0.13384  -0.267214  0  3.914636  0
C  C36  1  0.40694057  0.78456757  0.28975171  1  0  0.312173  0  3.762831  0  0  0.269698  0  4.049059  0  0  0.291762  0  4.060238  0  0  0.228631  0.255406  0  4.040092  0
C  C37  1  0.59305868  0.21543084  0.71024952  1  0  0.312138  0  3.762951  0  0  0.269658  0  4.049137  0  0  0.291717  0  4.060328  0  0  0.228642  0.255367  0  4.04017  0
C  C38  1  0.28408972  0.83839135  0.13613671  1  0  0.148655  0  3.723736  0  0  0.088555  0  3.995258  0  0  0.101462  0  4.005719  0  0  0.159719  0.079573  0  3.98886  0
C  C39  1  0.71590785  0.16159945  0.86386584  1  0  0.148475  0  3.723381  0  0  0.088375  0  3.994891  0  0  0.101282  0  4.005351  0  0  0.159646  0.079391  0  3.988493  0
C  C40  1  0.50556695  0.04996700  0.26468786  1  0  -0.168766  0  3.667905  0  0  -0.269658  0  3.912424  0  0  -0.266566  0  3.920902  0  0  -0.13691  -0.271172  0  3.90725  0
C  C41  1  0.49442839  0.95002920  0.73531380  1  0  -0.168781  0  3.667814  0  0  -0.269662  0  3.912324  0  0  -0.266581  0  3.920811  0  0  -0.136884  -0.27118  0  3.907151  0
C  C42  1  0.05776039  0.37168169  0.40228886  1  0  0.329101  0  3.751802  0  0  0.284821  0  4.041966  0  0  0.308318  0  4.051244  0  0  0.227973  0.269058  0  4.035283  0
C  C43  1  0.94223893  0.62831889  0.59771154  1  0  0.329022  0  3.751989  0  0  0.28476  0  4.042139  0  0  0.308265  0  4.051414  0  0  0.227939  0.268989  0  4.035461  0
C  C44  1  0.86721323  0.36176203  0.27977625  1  0  0.153133  0  3.724279  0  0  0.090191  0  4.005854  0  0  0.104081  0  4.016032  0  0  0.155839  0.080937  0  3.999506  0
C  C45  1  0.13278953  0.63824182  0.72022660  1  0  0.153229  0  3.723969  0  0  0.09029  0  4.005546  0  0  0.104197  0  4.015719  0  0  0.155872  0.081006  0  3.999193  0
C  C46  1  0.82259995  0.26553890  0.49460107  1  0  -0.162471  0  3.634023  0  0  -0.265283  0  3.883163  0  0  -0.262137  0  3.891693  0  0  -0.13435  -0.266788  0  3.877206  0
C  C47  1  0.17740044  0.73446601  0.50540349  1  0  -0.162428  0  3.634114  0  0  -0.265201  0  3.883223  0  0  -0.262033  0  3.891743  0  0  -0.134313  -0.266716  0  3.877288  0
S  S48  1  0.48948864  0.38005627  0.20980456  1  0  -0.50864  0  1.874873  0  0  -0.501834  0  2.184437  0  0  -0.517318  0  2.179142  0  0  -0.251026  -0.490673  0  2.188112  0
S  S49  1  0.51051400  0.61994328  0.79019233  1  0  -0.508694  0  1.874925  0  0  -0.501875  0  2.184435  0  0  -0.517354  0  2.17914  0  0  -0.251035  -0.490714  0  2.188112  0
S  S50  1  0.53523597  0.80686936  0.41016425  1  0  -0.485705  0  1.863195  0  0  -0.477827  0  2.158769  0  0  -0.491794  0  2.153561  0  0  -0.228346  -0.466656  0  2.162757  0
S  S51  1  0.46475976  0.19312360  0.58983632  1  0  -0.485711  0  1.863165  0  0  -0.477862  0  2.158746  0  0  -0.491821  0  2.15354  0  0  -0.228363  -0.466685  0  2.162733  0
S  S52  1  0.15974948  0.35820295  0.52858483  1  0  -0.516467  0  1.823837  0  0  -0.517428  0  2.114618  0  0  -0.532279  0  2.10893  0  0  -0.271061  -0.507225  0  2.118993  0
S  S53  1  0.84025570  0.64180202  0.47141738  1  0  -0.516402  0  1.823927  0  0  -0.517386  0  2.11471  0  0  -0.532235  0  2.109017  0  0  -0.271044  -0.507176  0  2.119084  0
N  N54  1  0.25482604  0.42024611  0.12261693  1  0  -0.20587  0  3.376117  0  0  -0.107231  0  3.615634  0  0  -0.124132  0  3.634407  0  0  -0.123874  -0.095683  0  3.602602  0
N  N55  1  0.74517027  0.57975012  0.87738102  1  0  -0.205825  0  3.376193  0  0  -0.107196  0  3.615707  0  0  -0.124103  0  3.634483  0  0  -0.123862  -0.095646  0  3.602688  0
N  N56  1  0.16593787  0.39749920  0.00807853  1  0  -0.282505  0  2.998994  0  0  -0.265509  0  3.289827  0  0  -0.271999  0  3.300605  0  0  -0.291143  -0.261272  0  3.283103  0
N  N57  1  0.83406318  0.60249494  0.99191505  1  0  -0.282722  0  2.998773  0  0  -0.265726  0  3.289605  0  0  -0.27222  0  3.300381  0  0  -0.291218  -0.261488  0  3.282882  0
N  N58  1  0.32271558  0.31982690  0.97711824  1  0  -0.103226  0  3.536685  0  0  -0.004141  0  3.762766  0  0  -0.022096  0  3.78527  0  0  -0.242707  0.00761  0  3.747388  0
N  N59  1  0.67728383  0.68017589  0.02287753  1  0  -0.103243  0  3.536461  0  0  -0.004272  0  3.762684  0  0  -0.022231  0  3.785193  0  0  -0.242719  0.00748  0  3.747301  0
N  N60  1  0.29064108  0.66154947  0.22510883  1  0  -0.206554  0  3.383418  0  0  -0.108047  0  3.621681  0  0  -0.125323  0  3.642006  0  0  -0.122363  -0.09585  0  3.60682  0
N  N61  1  0.70935716  0.33844678  0.77488932  1  0  -0.206585  0  3.383562  0  0  -0.107993  0  3.621727  0  0  -0.125267  0  3.642048  0  0  -0.122369  -0.095791  0  3.606874  0
N  N62  1  0.21525075  0.69617671  0.13018251  1  0  -0.276313  0  3.016595  0  0  -0.259419  0  3.30742  0  0  -0.265293  0  3.318592  0  0  -0.28976  -0.255262  0  3.30016  0
N  N63  1  0.78474665  0.30382386  0.86981769  1  0  -0.276242  0  3.016542  0  0  -0.259396  0  3.307373  0  0  -0.265273  0  3.318546  0  0  -0.289726  -0.255235  0  3.300109  0
N  N64  1  0.40090296  0.89764453  0.23080699  1  0  -0.091702  0  3.525346  0  0  0.011051  0  3.743526  0  0  -0.00636  0  3.766007  0  0  -0.239897  0.022623  0  3.727754  0
N  N65  1  0.59909240  0.10235169  0.76919086  1  0  -0.091548  0  3.52512  0  0  0.011204  0  3.743262  0  0  -0.006209  0  3.765762  0  0  -0.239821  0.02278  0  3.727489  0
N  N66  1  0.09327821  0.42577773  0.28716378  1  0  -0.210007  0  3.382186  0  0  -0.11071  0  3.621621  0  0  -0.127948  0  3.640476  0  0  -0.126692  -0.099149  0  3.608663  0
N  N67  1  0.90672301  0.57422287  0.71283778  1  0  -0.210105  0  3.3822  0  0  -0.110808  0  3.621636  0  0  -0.128053  0  3.640492  0  0  -0.126714  -0.099238  0  3.608688  0
N  N68  1  0.97412961  0.41863385  0.21202173  1  0  -0.29069  0  3.017824  0  0  -0.273776  0  3.310927  0  0  -0.280244  0  3.321636  0  0  -0.300935  -0.269426  0  3.304302  0
N  N69  1  0.02587065  0.58136673  0.78798163  1  0  -0.290676  0  3.017586  0  0  -0.273779  0  3.310709  0  0  -0.280256  0  3.321419  0  0  -0.300937  -0.26943  0  3.304098  0
N  N70  1  0.91111666  0.32984215  0.39504119  1  0  -0.0976  0  3.516939  0  0  0.003772  0  3.738996  0  0  -0.014168  0  3.761214  0  0  -0.241119  0.015485  0  3.723801  0
N  N71  1  0.08888617  0.67016388  0.60496178  1  0  -0.097588  0  3.517111  0  0  0.003745  0  3.739154  0  0  -0.014211  0  3.761373  0  0  -0.241142  0.015459  0  3.723965  0
