# generated using pymatgen
data_ZnH6C3(NO)4
_symmetry_space_group_name_H-M   'P 1'
_cell_length_a   8.18099659
_cell_length_b   9.44409929
_cell_length_c   9.57682308
_cell_angle_alpha   89.55397414
_cell_angle_beta   64.68574679
_cell_angle_gamma   88.95882464
_symmetry_Int_Tables_number   1
_chemical_formula_structural   ZnH6C3(NO)4
_chemical_formula_sum   'Zn4 H24 C12 N16 O16'
_cell_volume   668.76496225
_cell_formula_units_Z   4
loop_
 _symmetry_equiv_pos_site_id
 _symmetry_equiv_pos_as_xyz
  1  'x, y, z'
loop_
 _atom_site_type_symbol
 _atom_site_label
 _atom_site_symmetry_multiplicity
 _atom_site_fract_x
 _atom_site_fract_y
 _atom_site_fract_z
 _atom_site_occupancy
 _atom_site_hle17_bader_spin_density
 _atom_site_hle17_ddec_charge
 _atom_site_hle17_ddec_spin_density
 _atom_site_hle17_ddec_sum_bond_order
 _atom_site_hle17_magmom
 _atom_site_hse06_10hf_bader_spin_density
 _atom_site_hse06_10hf_ddec_charge
 _atom_site_hse06_10hf_ddec_spin_density
 _atom_site_hse06_10hf_ddec_sum_bond_order
 _atom_site_hse06_10hf_magmom
 _atom_site_hse06_bader_spin_density
 _atom_site_hse06_ddec_charge
 _atom_site_hse06_ddec_spin_density
 _atom_site_hse06_ddec_sum_bond_order
 _atom_site_hse06_magmom
 _atom_site_pbe_bader_spin_density
 _atom_site_pbe_cm5_charge
 _atom_site_pbe_ddec_charge
 _atom_site_pbe_ddec_spin_density
 _atom_site_pbe_ddec_sum_bond_order
 _atom_site_pbe_magmom
Zn  Zn0  1  0.90651937  0.31692519  0.76563646  1  0  1.125744  0  1.79441  0  0  0.952548  0  2.254003  0  0  0.994341  0  2.200613  0  0  0.706399  0.922653  0  2.290919  0
Zn  Zn1  1  0.67214617  0.81695285  0.23431783  1  0  1.125921  0  1.793965  0  0  0.953255  0  2.252948  0  0  0.994999  0  2.199625  0  0  0.706359  0.923091  0  2.290176  0
Zn  Zn2  1  0.18315927  0.44614583  0.20509954  1  0  1.074269  0  1.792332  0  0  0.888728  0  2.262232  0  0  0.932954  0  2.206879  0  0  0.717959  0.857664  0  2.300516  0
Zn  Zn3  1  0.38858015  0.94628227  0.79482057  1  0  1.074376  0  1.792745  0  0  0.889072  0  2.262344  0  0  0.933168  0  2.206972  0  0  0.717909  0.858102  0  2.300512  0
H  H4  1  0.61613686  0.38271172  0.69118478  1  0  0.435796  0  0.857708  0  0  0.401463  0  0.926205  0  0  0.412388  0  0.91034  0  0  0.290751  0.393527  0  0.937743  0
H  H5  1  0.30744301  0.88264841  0.30872903  1  0  0.435578  0  0.858226  0  0  0.401345  0  0.926632  0  0  0.412309  0  0.910709  0  0  0.290944  0.393399  0  0.938195  0
H  H6  1  0.53094807  0.29041304  0.84806015  1  0  0.403978  0  0.898422  0  0  0.360857  0  0.98608  0  0  0.371087  0  0.970982  0  0  0.290418  0.353525  0  0.996898  0
H  H7  1  0.37901627  0.79032431  0.15184448  1  0  0.404073  0  0.898349  0  0  0.361061  0  0.985687  0  0  0.371218  0  0.970674  0  0  0.290569  0.35363  0  0.996676  0
H  H8  1  0.47255046  0.53306502  0.26518357  1  0  0.433117  0  0.865282  0  0  0.402467  0  0.927876  0  0  0.412087  0  0.914032  0  0  0.296952  0.395538  0  0.937882  0
H  H9  1  0.73798023  0.03301792  0.73496966  1  0  0.433434  0  0.864921  0  0  0.402589  0  0.927772  0  0  0.41227  0  0.913846  0  0  0.297207  0.395717  0  0.937661  0
H  H10  1  0.52801627  0.38990931  0.16514746  1  0  0.397984  0  0.922472  0  0  0.353502  0  1.009951  0  0  0.364536  0  0.994239  0  0  0.286394  0.345683  0  1.021094  0
H  H11  1  0.69337351  0.88985245  0.83501914  1  0  0.397251  0  0.923344  0  0  0.353812  0  1.009339  0  0  0.364807  0  0.993673  0  0  0.286625  0.346045  0  1.020418  0
H  H12  1  0.81396605  0.44203297  0.32843286  1  0  0.413042  0  0.881431  0  0  0.378596  0  0.962677  0  0  0.390061  0  0.945922  0  0  0.287061  0.370406  0  0.974632  0
H  H13  1  0.14298942  0.94210153  0.67138496  1  0  0.413376  0  0.880775  0  0  0.378968  0  0.962225  0  0  0.390337  0  0.945611  0  0  0.287511  0.370862  0  0.97406  0
H  H14  1  0.87808226  0.46513194  0.14948873  1  0  0.389147  0  0.927301  0  0  0.343066  0  1.020448  0  0  0.354105  0  1.004538  0  0  0.284774  0.335221  0  1.031726  0
H  H15  1  0.02789639  0.96532800  0.85031852  1  0  0.389559  0  0.926996  0  0  0.343608  0  1.019653  0  0  0.354708  0  1.00366  0  0  0.284851  0.335722  0  1.031014  0
H  H16  1  0.96215839  0.76340084  0.58809873  1  0  0.149393  0  0.921485  0  0  0.159552  0  0.980859  0  0  0.162913  0  0.978897  0  0  0.117793  0.157258  0  0.982226  0
H  H17  1  0.55016051  0.26351148  0.41166494  1  0  0.150412  0  0.920609  0  0  0.159926  0  0.9804  0  0  0.163293  0  0.978429  0  0  0.117622  0.157454  0  0.982021  0
H  H18  1  0.76113975  0.68266014  0.61414318  1  0  0.148516  0  0.912583  0  0  0.160634  0  0.969841  0  0  0.1631  0  0.969013  0  0  0.119914  0.15884  0  0.970825  0
H  H19  1  0.37501369  0.18252657  0.38613118  1  0  0.148605  0  0.912704  0  0  0.160878  0  0.969724  0  0  0.163377  0  0.968804  0  0  0.119885  0.159073  0  0.970476  0
H  H20  1  0.86299755  0.05182324  0.39548431  1  0  0.147514  0  0.92295  0  0  0.162351  0  0.977655  0  0  0.164841  0  0.97672  0  0  0.118847  0.160497  0  0.978321  0
H  H21  1  0.25760916  0.55232170  0.60495573  1  0  0.147296  0  0.923437  0  0  0.16208  0  0.978225  0  0  0.164519  0  0.977382  0  0  0.118726  0.160092  0  0.979173  0
H  H22  1  0.90995202  0.23049829  0.42183529  1  0  0.150054  0  0.933182  0  0  0.161535  0  0.992074  0  0  0.164672  0  0.990125  0  0  0.114873  0.159209  0  0.993672  0
H  H23  1  0.33136527  0.73085980  0.57850785  1  0  0.150082  0  0.933569  0  0  0.161058  0  0.993169  0  0  0.164246  0  0.99115  0  0  0.114708  0.158633  0  0.994909  0
H  H24  1  0.20944221  0.36582769  0.80596005  1  0  0.394566  0  0.925752  0  0  0.352035  0  1.010422  0  0  0.362665  0  0.995132  0  0  0.284717  0.344456  0  1.021339  0
H  H25  1  0.01546515  0.86588035  0.19400282  1  0  0.395129  0  0.925284  0  0  0.352296  0  1.010231  0  0  0.36296  0  0.994892  0  0  0.284952  0.344747  0  1.0211  0
H  H26  1  0.26321249  0.22328193  0.70196128  1  0  0.432138  0  0.86575  0  0  0.400618  0  0.92935  0  0  0.411165  0  0.914011  0  0  0.293076  0.393044  0  0.940359  0
H  H27  1  0.96497125  0.72329680  0.29801432  1  0  0.431845  0  0.866019  0  0  0.400545  0  0.92913  0  0  0.411091  0  0.913815  0  0  0.293087  0.392885  0  0.940238  0
C  C28  1  0.84553062  0.64166673  0.79198850  1  0  0.365614  0  3.717596  0  0  0.344029  0  3.984923  0  0  0.355082  0  4.00186  0  0  0.22618  0.336311  0  3.973927  0
C  C29  1  0.63725564  0.14162872  0.20792087  1  0  0.367257  0  3.717034  0  0  0.344725  0  3.985521  0  0  0.355859  0  4.002345  0  0  0.226806  0.33705  0  3.974001  0
C  C30  1  0.88759214  0.66416096  0.62640724  1  0  -0.364642  0  3.679804  0  0  -0.399506  0  3.918362  0  0  -0.406908  0  3.92347  0  0  -0.14945  -0.394427  0  3.914907  0
C  C31  1  0.51388906  0.16418431  0.37356211  1  0  -0.366031  0  3.681045  0  0  -0.4  0  3.919472  0  0  -0.407434  0  3.924595  0  0  -0.149463  -0.394657  0  3.915676  0
C  C32  1  0.99272911  0.55034370  0.51101599  1  0  0.739929  0  3.802203  0  0  0.68124  0  4.106816  0  0  0.715925  0  4.098921  0  0  0.223726  0.657609  0  4.111403  0
C  C33  1  0.50399440  0.05047269  0.48890157  1  0  0.739933  0  3.803491  0  0  0.68115  0  4.10814  0  0  0.715722  0  4.100379  0  0  0.22406  0.657621  0  4.112471  0
C  C34  1  0.11008888  0.12485680  0.22642472  1  0  0.377648  0  3.717681  0  0  0.351207  0  3.990838  0  0  0.363089  0  4.006388  0  0  0.232317  0.343059  0  3.980249  0
C  C35  1  0.33624313  0.62505983  0.77369808  1  0  0.377436  0  3.71631  0  0  0.350759  0  3.989938  0  0  0.362654  0  4.005402  0  0  0.231926  0.342643  0  3.979529  0
C  C36  1  0.96994235  0.12469366  0.38807541  1  0  -0.371672  0  3.661627  0  0  -0.410783  0  3.90151  0  0  -0.41727  0  3.905289  0  0  -0.155594  -0.406268  0  3.899004  0
C  C37  1  0.35745491  0.62498675  0.61216627  1  0  -0.370908  0  3.660647  0  0  -0.409861  0  3.901283  0  0  -0.416361  0  3.90509  0  0  -0.155337  -0.405315  0  3.899016  0
C  C38  1  0.03100250  0.07041990  0.50973666  1  0  0.740299  0  3.800959  0  0  0.685276  0  4.104619  0  0  0.718636  0  4.096497  0  0  0.226389  0.662488  0  4.109854  0
C  C39  1  0.54017205  0.57058959  0.49037025  1  0  0.741237  0  3.798899  0  0  0.686504  0  4.102697  0  0  0.719804  0  4.094598  0  0  0.226574  0.663675  0  4.107813  0
N  N40  1  0.87648352  0.52598962  0.86083066  1  0  -0.345522  0  3.136718  0  0  -0.293809  0  3.42973  0  0  -0.310532  0  3.442819  0  0  -0.223869  -0.282003  0  3.420738  0
N  N41  1  0.73725066  0.02601416  0.13903539  1  0  -0.34534  0  3.135621  0  0  -0.293453  0  3.429308  0  0  -0.310213  0  3.442394  0  0  -0.223882  -0.281553  0  3.419912  0
N  N42  1  0.82677356  0.56168914  0.00913289  1  0  -0.050927  0  3.021632  0  0  -0.02919  0  3.298632  0  0  -0.028855  0  3.310774  0  0  -0.073668  -0.029325  0  3.290645  0
N  N43  1  0.83585001  0.06173864  0.99071774  1  0  -0.052471  0  3.022093  0  0  -0.03133  0  3.300058  0  0  -0.030988  0  3.312168  0  0  -0.07468  -0.031282  0  3.291822  0
N  N44  1  0.76617685  0.69345388  0.02833907  1  0  -0.099917  0  3.194648  0  0  -0.056332  0  3.495895  0  0  -0.062141  0  3.507074  0  0  -0.097277  -0.051711  0  3.48836  0
N  N45  1  0.79426481  0.19345795  0.97154828  1  0  -0.097752  0  3.19396  0  0  -0.053854  0  3.494838  0  0  -0.059709  0  3.506057  0  0  -0.09617  -0.049397  0  3.487098  0
N  N46  1  0.77513121  0.74613070  0.89547685  1  0  -0.295855  0  3.033637  0  0  -0.260125  0  3.29955  0  0  -0.272547  0  3.313875  0  0  -0.206497  -0.251773  0  3.290165  0
N  N47  1  0.67021355  0.24607179  0.10443817  1  0  -0.298085  0  3.034586  0  0  -0.261305  0  3.30063  0  0  -0.273802  0  3.314993  0  0  -0.206871  -0.25305  0  3.291165  0
N  N48  1  0.14754028  0.01581319  0.12883575  1  0  -0.294126  0  3.02193  0  0  -0.258252  0  3.28713  0  0  -0.269703  0  3.300866  0  0  -0.200926  -0.250724  0  3.278283  0
N  N49  1  0.27616046  0.51592270  0.87119020  1  0  -0.293833  0  3.021857  0  0  -0.257993  0  3.28702  0  0  -0.269356  0  3.3007  0  0  -0.200566  -0.250284  0  3.278092  0
N  N50  1  0.27974640  0.06035947  0.99647007  1  0  -0.10515  0  3.247302  0  0  -0.055484  0  3.559381  0  0  -0.062537  0  3.568651  0  0  -0.106267  -0.050639  0  3.55336  0
N  N51  1  0.27625673  0.56028876  0.00346792  1  0  -0.105155  0  3.247039  0  0  -0.05518  0  3.559024  0  0  -0.062242  0  3.568277  0  0  -0.106287  -0.050197  0  3.552937  0
N  N52  1  0.32429364  0.19092229  0.00958852  1  0  -0.054063  0  2.977609  0  0  -0.038465  0  3.25117  0  0  -0.036208  0  3.262522  0  0  -0.071923  -0.039673  0  3.243531  0
N  N53  1  0.33403233  0.69083026  0.99037626  1  0  -0.056169  0  2.978404  0  0  -0.041043  0  3.252154  0  0  -0.038767  0  3.263483  0  0  -0.072821  -0.042231  0  3.244693  0
N  N54  1  0.21867438  0.23395913  0.15398261  1  0  -0.32994  0  3.150539  0  0  -0.265205  0  3.449621  0  0  -0.282986  0  3.460466  0  0  -0.227535  -0.252864  0  3.441919  0
N  N55  1  0.37262050  0.73402788  0.84608999  1  0  -0.328852  0  3.148806  0  0  -0.263467  0  3.446859  0  0  -0.281218  0  3.457679  0  0  -0.226788  -0.251235  0  3.439385  0
O  O56  1  0.16842932  0.29713413  0.74932159  1  0  -0.858411  0  1.9701  0  0  -0.802343  0  2.20158  0  0  -0.822619  0  2.166512  0  0  -0.592957  -0.788037  0  2.226298  0
O  O57  1  0.91774116  0.79716250  0.25055264  1  0  -0.858672  0  1.969262  0  0  -0.802407  0  2.201444  0  0  -0.822634  0  2.166314  0  0  -0.593033  -0.787868  0  2.226103  0
O  O58  1  0.06567456  0.59459240  0.37032460  1  0  -0.653647  0  2.080831  0  0  -0.565905  0  2.334069  0  0  -0.596211  0  2.320775  0  0  -0.314735  -0.544623  0  2.342671  0
O  O59  1  0.43677376  0.09480872  0.62953872  1  0  -0.653707  0  2.079782  0  0  -0.565929  0  2.333265  0  0  -0.595843  0  2.319521  0  0  -0.315143  -0.544895  0  2.34191  0
O  O60  1  0.63963442  0.33985880  0.77572405  1  0  -0.850233  0  1.949318  0  0  -0.794805  0  2.172759  0  0  -0.813935  0  2.138182  0  0  -0.587293  -0.781203  0  2.197368  0
O  O61  1  0.41547366  0.83989826  0.22398261  1  0  -0.849831  0  1.94958  0  0  -0.794592  0  2.172216  0  0  -0.813684  0  2.137736  0  0  -0.587917  -0.781222  0  2.197129  0
O  O62  1  0.00712920  0.42360086  0.54648129  1  0  -0.626145  0  2.030136  0  0  -0.557927  0  2.290788  0  0  -0.583779  0  2.277307  0  0  -0.301444  -0.539688  0  2.299672  0
O  O63  1  0.55361695  0.92366242  0.45344251  1  0  -0.626458  0  2.030818  0  0  -0.558182  0  2.291346  0  0  -0.584073  0  2.277969  0  0  -0.301637  -0.539902  0  2.300221  0
O  O64  1  0.15015701  0.97331155  0.47706370  1  0  -0.637443  0  1.960643  0  0  -0.568321  0  2.174806  0  0  -0.594674  0  2.166555  0  0  -0.302856  -0.549684  0  2.180132  0
O  O65  1  0.62650303  0.47333858  0.52302117  1  0  -0.63864  0  1.958483  0  0  -0.569707  0  2.172728  0  0  -0.595958  0  2.164302  0  0  -0.30372  -0.551024  0  2.178167  0
O  O66  1  0.42402068  0.45541615  0.22642313  1  0  -0.859732  0  1.968999  0  0  -0.799189  0  2.206657  0  0  -0.82018  0  2.171536  0  0  -0.593311  -0.784604  0  2.23149  0
O  O67  1  0.65053601  0.95547028  0.77395591  1  0  -0.85948  0  1.97013  0  0  -0.799556  0  2.207058  0  0  -0.820609  0  2.171937  0  0  -0.593576  -0.785016  0  2.231767  0
O  O68  1  0.94601548  0.12099700  0.64569205  1  0  -0.686809  0  2.103766  0  0  -0.607103  0  2.359019  0  0  -0.634295  0  2.345463  0  0  -0.326872  -0.588199  0  2.368032  0
O  O69  1  0.59130963  0.62113919  0.35442394  1  0  -0.687356  0  2.103073  0  0  -0.608065  0  2.358667  0  0  -0.635279  0  2.345329  0  0  -0.326422  -0.588829  0  2.367424  0
O  O70  1  0.91049543  0.41419132  0.22629854  1  0  -0.833817  0  1.957105  0  0  -0.776772  0  2.194334  0  0  -0.798119  0  2.159993  0  0  -0.585773  -0.761351  0  2.21825  0
O  O71  1  0.13737900  0.91453699  0.77356837  1  0  -0.834755  0  1.95871  0  0  -0.777893  0  2.195823  0  0  -0.799318  0  2.161623  0  0  -0.5863  -0.762676  0  2.219704  0
