# generated using pymatgen
data_ZnH20C26(NO4)2
_symmetry_space_group_name_H-M   'P 1'
_cell_length_a   7.62492990
_cell_length_b   8.24259000
_cell_length_c   19.01600000
_cell_angle_alpha   96.68318137
_cell_angle_beta   97.92118119
_cell_angle_gamma   109.25336272
_symmetry_Int_Tables_number   1
_chemical_formula_structural   ZnH20C26(NO4)2
_chemical_formula_sum   'Zn2 H40 C52 N4 O16'
_cell_volume   1100.66766193
_cell_formula_units_Z   2
loop_
 _symmetry_equiv_pos_site_id
 _symmetry_equiv_pos_as_xyz
  1  'x, y, z'
loop_
 _atom_site_type_symbol
 _atom_site_label
 _atom_site_symmetry_multiplicity
 _atom_site_fract_x
 _atom_site_fract_y
 _atom_site_fract_z
 _atom_site_occupancy
 _atom_site_hle17_bader_spin_density
 _atom_site_hle17_ddec_charge
 _atom_site_hle17_ddec_spin_density
 _atom_site_hle17_ddec_sum_bond_order
 _atom_site_hle17_magmom
 _atom_site_hse06_10hf_bader_spin_density
 _atom_site_hse06_10hf_ddec_charge
 _atom_site_hse06_10hf_ddec_spin_density
 _atom_site_hse06_10hf_ddec_sum_bond_order
 _atom_site_hse06_10hf_magmom
 _atom_site_hse06_bader_spin_density
 _atom_site_hse06_ddec_charge
 _atom_site_hse06_ddec_spin_density
 _atom_site_hse06_ddec_sum_bond_order
 _atom_site_hse06_magmom
 _atom_site_pbe_bader_charge
 _atom_site_pbe_bader_spin_density
 _atom_site_pbe_cm5_charge
 _atom_site_pbe_ddec_charge
 _atom_site_pbe_ddec_spin_density
 _atom_site_pbe_ddec_sum_bond_order
 _atom_site_pbe_magmom
Zn  Zn0  1  0.51291451  0.32051240  0.44787314  1  0  1.101952  0  1.784218  0  0  0.924124  0  2.260922  0  0  0.974249  0  2.196397  0  1.317532  0  0.696573  0.888883  0  2.305623  0
Zn  Zn1  1  0.48708494  0.67948691  0.55212695  1  0  1.10195  0  1.784192  0  0  0.924114  0  2.260901  0  0  0.974241  0  2.196377  0  1.317504  0  0.696559  0.888872  0  2.305603  0
H  H2  1  0.13054190  0.94685197  0.54287210  1  0  0.109235  0  0.949779  0  0  0.117447  0  1.017551  0  0  0.120884  0  1.014971  0  0.108148  0  0.108456  0.114903  0  1.019554  0
H  H3  1  0.86945954  0.05315256  0.45712994  1  0  0.109237  0  0.949735  0  0  0.117411  0  1.017554  0  0  0.120848  0  1.014976  0  0.108084  0  0.108428  0.114868  0  1.019555  0
H  H4  1  0.87412336  0.91068626  0.73143545  1  0  0.099762  0  0.949323  0  0  0.109813  0  1.014021  0  0  0.112599  0  1.012799  0  0.077668  0  0.103966  0.107784  0  1.014953  0
H  H5  1  0.12587742  0.08931305  0.26856524  1  0  0.099813  0  0.949274  0  0  0.109865  0  1.013966  0  0  0.11265  0  1.012747  0  0.077694  0  0.103976  0.107835  0  1.014901  0
H  H6  1  0.21218643  0.41112501  0.69094042  1  0  0.106321  0  0.959369  0  0  0.111508  0  1.029721  0  0  0.115702  0  1.025786  0  0.103832  0  0.105308  0.108477  0  1.032561  0
H  H7  1  0.78782147  0.58887561  0.30906230  1  0  0.106278  0  0.959443  0  0  0.111474  0  1.029776  0  0  0.115669  0  1.025841  0  0.103832  0  0.105286  0.108432  0  1.032626  0
H  H8  1  0.90634779  0.18340158  0.81226485  1  0  0.07608  0  0.922088  0  0  0.088563  0  0.986655  0  0  0.088952  0  0.985898  0  0.101011  0  0.105631  0.088261  0  0.987211  0
H  H9  1  0.09365796  0.81660034  0.18773677  1  0  0.076025  0  0.922088  0  0  0.088487  0  0.986686  0  0  0.088876  0  0.985928  0  0.101081  0  0.10562  0.088186  0  0.987242  0
H  H10  1  0.15768266  0.27964037  0.83297707  1  0  0.05976  0  0.939349  0  0  0.073632  0  1.005772  0  0  0.073044  0  1.006253  0  0.064232  0  0.103145  0.073974  0  1.005549  0
H  H11  1  0.84232194  0.72036547  0.16702416  1  0  0.059764  0  0.939357  0  0  0.073673  0  1.005726  0  0  0.073085  0  1.006205  0  0.06429  0  0.103164  0.074015  0  1.005503  0
H  H12  1  0.06646668  0.74001144  0.76912762  1  0  0.110445  0  0.956652  0  0  0.120536  0  1.018355  0  0  0.123907  0  1.017091  0  0.06064  0  0.103521  0.118076  0  1.019447  0
H  H13  1  0.93353543  0.25998787  0.23086947  1  0  0.110439  0  0.956669  0  0  0.120542  0  1.018372  0  0  0.123928  0  1.017066  0  0.060302  0  0.103541  0.118067  0  1.019485  0
H  H14  1  0.16372913  0.99527603  0.86983333  1  0  0.09292  0  0.954968  0  0  0.103534  0  1.018948  0  0  0.106508  0  1.016647  0  0.073771  0  0.101939  0.10139  0  1.020587  0
H  H15  1  0.83626868  0.00472589  0.13016418  1  0  0.092972  0  0.954929  0  0  0.10358  0  1.018911  0  0  0.106554  0  1.016613  0  0.073815  0  0.101967  0.101436  0  1.020551  0
H  H16  1  0.17447773  0.65482930  0.02294101  1  0  0.082715  0  0.996391  0  0  0.09091  0  1.065965  0  0  0.093395  0  1.0647  0  0.107603  0  0.099165  0.089091  0  1.066926  0
H  H17  1  0.82551395  0.34517392  0.97705833  1  0  0.08271  0  0.996422  0  0  0.090854  0  1.066051  0  0  0.093337  0  1.06479  0  0.107478  0  0.099102  0.089026  0  1.067022  0
H  H18  1  0.08245710  0.40052633  0.92426467  1  0  0.115667  0  0.95962  0  0  0.125589  0  1.021277  0  0  0.129269  0  1.019175  0  0.068785  0  0.107137  0.122978  0  1.022881  0
H  H19  1  0.91754070  0.59947559  0.07573389  1  0  0.115623  0  0.959562  0  0  0.12553  0  1.021256  0  0  0.12921  0  1.01915  0  0.068784  0  0.107108  0.122917  0  1.022864  0
H  H20  1  0.63103973  0.26775780  0.30893961  1  0  0.088015  0  0.927654  0  0  0.09801  0  0.988949  0  0  0.10061  0  0.986629  0  0.114943  0  0.122322  0.096062  0  0.990724  0
H  H21  1  0.36896188  0.73224021  0.69106054  1  0  0.08791  0  0.927624  0  0  0.097918  0  0.988927  0  0  0.100519  0  0.986604  0  0.114948  0  0.122272  0.095971  0  0.990705  0
H  H22  1  0.60081935  0.02405611  0.21310083  1  0  0.104907  0  0.974445  0  0  0.115248  0  1.037117  0  0  0.117567  0  1.037511  0  0.085851  0  0.107982  0.113561  0  1.037023  0
H  H23  1  0.39917829  0.97594190  0.78689857  1  0  0.104935  0  0.97439  0  0  0.115282  0  1.037064  0  0  0.117601  0  1.037456  0  0.08585  0  0.107991  0.113594  0  1.036971  0
H  H24  1  0.30168935  0.66918311  0.34398501  1  0  0.130214  0  0.936797  0  0  0.138869  0  0.996124  0  0  0.143019  0  0.993907  0  0.128863  0  0.116718  0.135834  0  0.997968  0
H  H25  1  0.69830961  0.33081489  0.65601447  1  0  0.130219  0  0.936828  0  0  0.138891  0  0.996144  0  0  0.143041  0  0.993925  0  0.128907  0  0.116719  0.135855  0  0.997989  0
H  H26  1  0.34226176  0.92669844  0.43344278  1  0  0.098102  0  0.939808  0  0  0.106783  0  1.001821  0  0  0.109679  0  0.999091  0  0.149502  0  0.121146  0.104614  0  1.003879  0
H  H27  1  0.65773720  0.07329957  0.56655669  1  0  0.098123  0  0.939806  0  0  0.106764  0  1.001848  0  0  0.109661  0  0.999118  0  0.14948  0  0.121155  0.104596  0  1.003905  0
H  H28  1  0.46467524  0.82384184  0.12626592  1  0  0.121092  0  0.965146  0  0  0.128997  0  1.028416  0  0  0.132551  0  1.026633  0  0.107802  0  0.110603  0.126448  0  1.029835  0
H  H29  1  0.53532720  0.17615486  0.87373525  1  0  0.121066  0  0.965155  0  0  0.128963  0  1.028438  0  0  0.132516  0  1.026654  0  0.107771  0  0.110577  0.126414  0  1.029856  0
H  H30  1  0.43921357  0.57271338  0.03650130  1  0  0.077442  0  0.950006  0  0  0.087396  0  1.013169  0  0  0.089425  0  1.011559  0  0.10688  0  0.116839  0.085881  0  1.014355  0
H  H31  1  0.56078540  0.42728463  0.96349870  1  0  0.077478  0  0.949984  0  0  0.087435  0  1.013141  0  0  0.089464  0  1.011532  0  0.106931  0  0.116856  0.08592  0  1.014327  0
H  H32  1  0.34505287  0.23547639  0.18320388  1  0  0.078372  0  0.945461  0  0  0.083967  0  1.015773  0  0  0.087115  0  1.012778  0  0.131274  0  0.113046  0.081649  0  1.017965  0
H  H33  1  0.65494742  0.76452161  0.81679777  1  0  0.078357  0  0.945519  0  0  0.083952  0  1.01583  0  0  0.087098  0  1.012838  0  0.131207  0  0.113065  0.081637  0  1.018017  0
H  H34  1  0.38145904  0.47634803  0.28367377  1  0  0.129542  0  0.968739  0  0  0.135918  0  1.033631  0  0  0.139728  0  1.032018  0  0.149862  0  0.109951  0.133176  0  1.034893  0
H  H35  1  0.61854174  0.52365128  0.71632692  1  0  0.129551  0  0.968744  0  0  0.135938  0  1.033623  0  0  0.139749  0  1.032011  0  0.149868  0  0.109949  0.133195  0  1.034886  0
H  H36  1  0.33297906  0.24115346  0.04354510  1  0  0.340886  0  0.961315  0  0  0.301637  0  1.054223  0  0  0.314669  0  1.041871  0  0.625876  0  0.284514  0.292577  0  1.062675  0
H  H37  1  0.66701577  0.75884063  0.95645447  1  0  0.340861  0  0.961318  0  0  0.301577  0  1.054299  0  0  0.314609  0  1.04195  0  0.625862  0  0.284493  0.292519  0  1.062749  0
H  H38  1  0.84036636  0.43360756  0.54125891  1  0  0.419744  0  0.887089  0  0  0.385393  0  0.956047  0  0  0.397733  0  0.938339  0  0.664701  0  0.283689  0.376679  0  0.968522  0
H  H39  1  0.15963592  0.56639567  0.45874206  1  0  0.419775  0  0.887028  0  0  0.385435  0  0.955972  0  0  0.397773  0  0.938267  0  0.664772  0  0.283703  0.376723  0  0.968445  0
H  H40  1  0.84888364  0.31901060  0.47130945  1  0  0.417594  0  0.892468  0  0  0.384318  0  0.960872  0  0  0.395653  0  0.944643  0  0.649175  0  0.285485  0.376328  0  0.972286  0
H  H41  1  0.15111813  0.68099132  0.52869249  1  0  0.417548  0  0.892529  0  0  0.384268  0  0.960939  0  0  0.395603  0  0.944708  0  0.649141  0  0.28547  0.376274  0  0.972358  0
C  C42  1  0.29861181  0.30234734  0.56733392  1  0  0.682271  0  3.865922  0  0  0.625792  0  4.154654  0  0  0.662543  0  4.146387  0  1.5869  0  0.227779  0.600829  0  4.159533  0
C  C43  1  0.70139229  0.69765719  0.43266827  1  0  0.682226  0  3.865898  0  0  0.625678  0  4.154726  0  0  0.662429  0  4.146461  0  1.586567  0  0.227719  0.600715  0  4.159606  0
C  C44  1  0.18081496  0.19008332  0.61214032  1  0  -0.072776  0  3.767282  0  0  -0.043095  0  4.000049  0  0  -0.053314  0  4.023829  0  0.052441  0  -0.018316  -0.036542  0  3.984072  0
C  C45  1  0.81919079  0.80991860  0.38786183  1  0  -0.072613  0  3.767089  0  0  -0.042959  0  3.999898  0  0  -0.053177  0  4.023681  0  0.052466  0  -0.018326  -0.036405  0  3.983919  0
C  C46  1  0.10538204  0.00847711  0.59241623  1  0  -0.062321  0  3.679726  0  0  -0.1036  0  3.932638  0  0  -0.100795  0  3.952029  0  -0.053967  0  -0.076402  -0.105144  0  3.919523  0
C  C47  1  0.89462056  0.99152350  0.40758621  1  0  -0.062354  0  3.679695  0  0  -0.103599  0  3.932614  0  0  -0.100794  0  3.952007  0  -0.053825  0  -0.076385  -0.105146  0  3.919493  0
C  C48  1  0.99400392  0.90835071  0.63536949  1  0  -0.069674  0  3.773764  0  0  -0.044731  0  4.015494  0  0  -0.053416  0  4.038743  0  -0.065969  0  -0.020039  -0.039284  0  3.999925  0
C  C49  1  0.00600051  0.09165121  0.36463258  1  0  -0.069769  0  3.77391  0  0  -0.044814  0  4.015583  0  0  -0.053503  0  4.038844  0  -0.066051  0  -0.020067  -0.03935  0  3.99999  0
C  C50  1  0.96491254  0.99012217  0.69935148  1  0  -0.112606  0  3.713397  0  0  -0.146024  0  3.960309  0  0  -0.146028  0  3.981531  0  -0.009233  0  -0.081606  -0.145596  0  3.945814  0
C  C51  1  0.03509089  0.00987714  0.30065041  1  0  -0.112626  0  3.713476  0  0  -0.14603  0  3.960406  0  0  -0.146036  0  3.981632  0  -0.00923  0  -0.081606  -0.145606  0  3.945904  0
C  C52  1  0.04809940  0.17068134  0.72113123  1  0  0.049504  0  3.768332  0  0  0.073586  0  4.010191  0  0  0.070555  0  4.034053  0  -0.062576  0  -0.01586  0.07538  0  3.994014  0
C  C53  1  0.95190453  0.82931927  0.27887075  1  0  0.049527  0  3.768389  0  0  0.073522  0  4.010341  0  0  0.070491  0  4.034202  0  -0.06264  0  -0.015812  0.075316  0  3.994164  0
C  C54  1  0.15198155  0.26991850  0.67627290  1  0  -0.084932  0  3.685454  0  0  -0.124833  0  3.936381  0  0  -0.122265  0  3.953527  0  -0.01893  0  -0.079942  -0.126238  0  3.924768  0
C  C55  1  0.84802189  0.73008081  0.32373005  1  0  -0.084964  0  3.685414  0  0  -0.12482  0  3.936334  0  0  -0.122257  0  3.953486  0  -0.018841  0  -0.079935  -0.126215  0  3.924728  0
C  C56  1  0.89892671  0.71454096  0.61197015  1  0  0.656392  0  3.921125  0  0  0.601527  0  4.219788  0  0  0.635817  0  4.21142  0  1.60409  0  0.206375  0.578275  0  4.224712  0
C  C57  1  0.10107871  0.28546357  0.38803106  1  0  0.656462  0  3.921057  0  0  0.601651  0  4.219631  0  0  0.635936  0  4.211264  0  1.60413  0  0.206476  0.578399  0  4.224553  0
C  C58  1  0.03137362  0.26009356  0.79212853  1  0  0.052844  0  3.626106  0  0  -0.012054  0  3.884699  0  0  -0.00286  0  3.88928  0  0.375624  0  -0.057937  -0.018192  0  3.881349  0
C  C59  1  0.96863163  0.73990706  0.20787405  1  0  0.052903  0  3.626115  0  0  -0.011967  0  3.884673  0  0  -0.002772  0  3.889251  0  0.375576  0  -0.057922  -0.018107  0  3.881325  0
C  C60  1  0.07280586  0.55661117  0.84023940  1  0  0.291866  0  3.809085  0  0  0.279203  0  4.069518  0  0  0.293397  0  4.084354  0  0.405267  0  0.087469  0.26962  0  4.05925  0
C  C61  1  0.92718897  0.44339336  0.15975860  1  0  0.291922  0  3.808987  0  0  0.279216  0  4.069492  0  0  0.293407  0  4.084332  0  0.405703  0  0.087518  0.269634  0  4.059218  0
C  C62  1  0.09350828  0.72429805  0.82525414  1  0  -0.19926  0  3.754285  0  0  -0.219128  0  4.012054  0  0  -0.226302  0  4.030716  0  0.003207  0  -0.107826  -0.214415  0  3.999502  0
C  C63  1  0.90648622  0.27569865  0.17474344  1  0  -0.199336  0  3.754194  0  0  -0.21921  0  4.011971  0  0  -0.226381  0  4.030641  0  0.00309  0  -0.107866  -0.214486  0  3.999423  0
C  C64  1  0.14742952  0.86510660  0.88121455  1  0  -0.039336  0  3.752038  0  0  -0.065075  0  4.003108  0  0  -0.061052  0  4.021458  0  -0.001469  0  -0.084226  -0.067424  0  3.990542  0
C  C65  1  0.85256878  0.13489662  0.11878252  1  0  -0.039363  0  3.751878  0  0  -0.065077  0  4.002966  0  0  -0.061059  0  4.021322  0  -0.001298  0  -0.084238  -0.067422  0  3.990395  0
C  C66  1  0.17959140  0.84109094  0.95321172  1  0  -0.102795  0  3.787366  0  0  -0.082016  0  4.020677  0  0  -0.093245  0  4.045051  0  -0.007692  0  -0.033195  -0.074828  0  4.004305  0
C  C67  1  0.82040227  0.15890706  0.04678483  1  0  -0.102734  0  3.786945  0  0  -0.082019  0  4.020292  0  0  -0.093244  0  4.044665  0  -0.006835  0  -0.03322  -0.074835  0  4.003916  0
C  C68  1  0.15349682  0.67269426  0.96708123  1  0  -0.034648  0  3.764822  0  0  -0.059394  0  4.011283  0  0  -0.055811  0  4.031067  0  -0.05064  0  -0.083553  -0.06139  0  3.997713  0
C  C69  1  0.84649817  0.32731418  0.03291434  1  0  -0.034714  0  3.764889  0  0  -0.059388  0  4.01133  0  0  -0.055808  0  4.031117  0  -0.051484  0  -0.083443  -0.061373  0  3.997761  0
C  C70  1  0.10176355  0.53018429  0.91173594  1  0  -0.216977  0  3.758871  0  0  -0.236818  0  4.015376  0  0  -0.244823  0  4.035328  0  -0.01112  0  -0.112055  -0.231591  0  4.001937  0
C  C71  1  0.89822912  0.46981111  0.08826253  1  0  -0.216958  0  3.759062  0  0  -0.236784  0  4.015572  0  0  -0.244787  0  4.035524  0  -0.011144  0  -0.112119  -0.231557  0  4.002129  0
C  C72  1  0.24258236  0.98749306  0.01526469  1  0  0.646313  0  3.846086  0  0  0.601338  0  4.139572  0  0  0.634698  0  4.131046  0  1.498937  0  0.216764  0.578663  0  4.144921  0
C  C73  1  0.75740766  0.01250234  0.98472206  1  0  0.646251  0  3.84656  0  0  0.601329  0  4.139992  0  0  0.634684  0  4.131463  0  1.498457  0  0.216611  0.57866  0  4.145339  0
C  C74  1  0.55782045  0.13268242  0.31385748  1  0  0.129919  0  3.709336  0  0  0.097405  0  3.964214  0  0  0.104289  0  3.982556  0  0.440286  0  0.049302  0.092965  0  3.951755  0
C  C75  1  0.44217967  0.86732211  0.68614292  1  0  0.130026  0  3.709298  0  0  0.097519  0  3.964199  0  0  0.104407  0  3.982534  0  0.440284  0  0.049346  0.093073  0  3.951743  0
C  C76  1  0.54021508  0.99525124  0.26072660  1  0  -0.154001  0  3.704746  0  0  -0.172818  0  3.952146  0  0  -0.180893  0  3.975172  0  0.010916  0  -0.07803  -0.1676  0  3.936693  0
C  C77  1  0.45978338  0.00474546  0.73927173  1  0  -0.154086  0  3.704811  0  0  -0.172919  0  3.952227  0  0  -0.180993  0  3.97525  0  0.010897  0  -0.078077  -0.167698  0  3.936774  0
C  C78  1  0.44845788  0.82274844  0.26984501  1  0  0.094484  0  3.742396  0  0  0.106531  0  3.972659  0  0  0.110574  0  3.994273  0  -0.037052  0  0.017466  0.103984  0  3.957945  0
C  C79  1  0.55154241  0.17724957  0.73015453  1  0  0.09459  0  3.742311  0  0  0.106665  0  3.97257  0  0  0.110708  0  3.994183  0  -0.037014  0  0.017563  0.104115  0  3.957854  0
C  C80  1  0.37632008  0.79883716  0.33337943  1  0  -0.132693  0  3.642866  0  0  -0.152829  0  3.893392  0  0  -0.160081  0  3.912944  0  0.003577  0  -0.070428  -0.148251  0  3.880475  0
C  C81  1  0.62368021  0.20116085  0.66661853  1  0  -0.132832  0  3.643053  0  0  -0.153023  0  3.893595  0  0  -0.160277  0  3.913145  0  0.003426  0  -0.070543  -0.148444  0  3.88068  0
C  C82  1  0.39864563  0.94350784  0.38406293  1  0  0.151576  0  3.6558  0  0  0.118743  0  3.907285  0  0  0.126288  0  3.924993  0  0.475955  0  0.056511  0.113855  0  3.895308  0
C  C83  1  0.60135383  0.05649147  0.61593611  1  0  0.151613  0  3.655901  0  0  0.118864  0  3.907358  0  0  0.126412  0  3.925063  0  0.476056  0  0.05655  0.113974  0  3.89538  0
C  C84  1  0.43018098  0.67418431  0.21420724  1  0  0.095368  0  3.741102  0  0  0.10413  0  3.975814  0  0  0.107851  0  3.996906  0  0.014959  0  0.014274  0.101772  0  3.961453  0
C  C85  1  0.56981931  0.32581369  0.78579335  1  0  0.095393  0  3.741122  0  0  0.104146  0  3.975844  0  0  0.107867  0  3.996937  0  0.01499  0  0.014276  0.101789  0  3.961482  0
C  C86  1  0.44639405  0.69851834  0.14319544  1  0  -0.157566  0  3.688762  0  0  -0.176841  0  3.941088  0  0  -0.183466  0  3.96037  0  -0.030104  0  -0.079737  -0.172602  0  3.928276  0
C  C87  1  0.55360707  0.30147836  0.85680409  1  0  -0.157605  0  3.688752  0  0  -0.176859  0  3.94107  0  0  -0.183484  0  3.960355  0  -0.030125  0  -0.079729  -0.172617  0  3.928249  0
C  C88  1  0.42789825  0.55645851  0.09195551  1  0  0.122662  0  3.72542  0  0  0.091568  0  3.980822  0  0  0.097481  0  3.99864  0  0.461229  0  0.048141  0.087814  0  3.968724  0
C  C89  1  0.57210203  0.44353949  0.90804351  1  0  0.122641  0  3.725435  0  0  0.091543  0  3.980829  0  0  0.097455  0  3.998646  0  0.461212  0  0.048128  0.087787  0  3.968734  0
C  C90  1  0.37626628  0.36999724  0.17449071  1  0  0.127866  0  3.701577  0  0  0.096817  0  3.956499  0  0  0.102546  0  3.974455  0  0.445312  0  0.04959  0.093168  0  3.944303  0
C  C91  1  0.62373533  0.63000077  0.82550944  1  0  0.127911  0  3.701662  0  0  0.096863  0  3.956575  0  0  0.102592  0  3.974529  0  0.444883  0  0.04959  0.093214  0  3.944379  0
C  C92  1  0.39581985  0.50493953  0.22971065  1  0  -0.150686  0  3.661706  0  0  -0.170971  0  3.915641  0  0  -0.177627  0  3.935391  0  -0.051278  0  -0.077373  -0.166693  0  3.90245  0
C  C93  1  0.60418276  0.49506109  0.77028916  1  0  -0.150694  0  3.661749  0  0  -0.170977  0  3.915654  0  0  -0.177633  0  3.935401  0  -0.051297  0  -0.077365  -0.166699  0  3.902463  0
N  N94  1  0.48788573  0.10786693  0.37464672  1  0  -0.339214  0  3.306646  0  0  -0.255718  0  3.581102  0  0  -0.275628  0  3.596394  0  -1.258837  0  -0.330723  -0.242309  0  3.570666  0
N  N95  1  0.51211456  0.89213107  0.62535231  1  0  -0.339181  0  3.306498  0  0  -0.255752  0  3.58101  0  0  -0.275663  0  3.5963  0  -1.258857  0  -0.330703  -0.242337  0  3.570571  0
N  N96  1  0.39193453  0.39479185  0.10671456  1  0  -0.292746  0  3.221018  0  0  -0.227518  0  3.462223  0  0  -0.24251  0  3.480925  0  -1.232886  0  -0.306285  -0.217414  0  3.449435  0
N  N97  1  0.60806659  0.60520485  0.89328550  1  0  -0.292761  0  3.221082  0  0  -0.227513  0  3.462294  0  0  -0.242504  0  3.480995  0  -1.232351  0  -0.306294  -0.21741  0  3.449507  0
O  O98  1  0.34288194  0.22554968  0.51398462  1  0  -0.642545  0  2.113582  0  0  -0.565288  0  2.392131  0  0  -0.595646  0  2.377826  0  -1.180848  0  -0.308901  -0.544175  0  2.401303  0
O  O99  1  0.65712266  0.77445616  0.48601714  1  0  -0.642645  0  2.113632  0  0  -0.565303  0  2.392161  0  0  -0.595662  0  2.377853  0  -1.180635  0  -0.308889  -0.544191  0  2.401334  0
O  O100  1  0.34720807  0.46596464  0.58695778  1  0  -0.630078  0  2.135972  0  0  -0.554918  0  2.418242  0  0  -0.583214  0  2.400335  0  -1.191427  0  -0.306334  -0.535298  0  2.429983  0
O  O101  1  0.65279520  0.53404120  0.41304548  1  0  -0.630036  0  2.135911  0  0  -0.554878  0  2.418259  0  0  -0.583159  0  2.400314  0  -1.191402  0  -0.306297  -0.535258  0  2.429999  0
O  O102  1  0.98765653  0.63069491  0.58013939  1  0  -0.62905  0  2.013031  0  0  -0.561097  0  2.227675  0  0  -0.587634  0  2.217268  0  -1.186757  0  -0.308641  -0.542557  0  2.234354  0
O  O103  1  0.01234210  0.36930571  0.41986072  1  0  -0.629056  0  2.012931  0  0  -0.561147  0  2.227575  0  0  -0.587673  0  2.21716  0  -1.186824  0  -0.308682  -0.542622  0  2.234263  0
O  O104  1  0.73387415  0.64312548  0.62470294  1  0  -0.66825  0  2.002592  0  0  -0.612088  0  2.263493  0  0  -0.637892  0  2.250489  0  -1.203572  0  -0.331931  -0.593769  0  2.271808  0
O  O105  1  0.26612945  0.35687774  0.37529915  1  0  -0.668292  0  2.002629  0  0  -0.612132  0  2.263477  0  0  -0.637935  0  2.250472  0  -1.203627  0  -0.331958  -0.593812  0  2.271791  0
O  O106  1  0.28713844  0.14469286  0.99632799  1  0  -0.560031  0  2.096871  0  0  -0.509594  0  2.324282  0  0  -0.53227  0  2.311357  0  -1.178026  0  -0.343515  -0.493701  0  2.33259  0
O  O107  1  0.71285192  0.85531036  0.00367284  1  0  -0.560081  0  2.096729  0  0  -0.509635  0  2.324127  0  0  -0.532311  0  2.311204  0  -1.177861  0  -0.343508  -0.493738  0  2.332427  0
O  O108  1  0.25473053  0.96466343  0.07888772  1  0  -0.58904  0  1.888623  0  0  -0.54923  0  2.103256  0  0  -0.568745  0  2.094721  0  -1.16804  0  -0.317304  -0.535816  0  2.10886  0
O  O109  1  0.74525452  0.03532935  0.92111808  1  0  -0.588859  0  1.889386  0  0  -0.549076  0  2.104035  0  0  -0.568578  0  2.095489  0  -1.167781  0  -0.317124  -0.535673  0  2.109646  0
O  O110  1  0.02255736  0.42768650  0.78178157  1  0  -0.281542  0  2.342039  0  0  -0.207304  0  2.574429  0  0  -0.226842  0  2.578115  0  -1.074833  0  -0.171222  -0.193422  0  2.571265  0
O  O111  1  0.97744343  0.57231281  0.21821649  1  0  -0.281539  0  2.341981  0  0  -0.207288  0  2.574377  0  0  -0.22683  0  2.578066  0  -1.074828  0  -0.171275  -0.193405  0  2.571211  0
O  O112  1  0.76568319  0.31914108  0.50785911  1  0  -0.839045  0  1.905415  0  0  -0.775819  0  2.121164  0  0  -0.799927  0  2.084415  0  -1.301415  0  -0.579414  -0.758666  0  2.146586  0
O  O113  1  0.23431958  0.68086345  0.49214301  1  0  -0.839024  0  1.905446  0  0  -0.775809  0  2.121201  0  0  -0.799916  0  2.084454  0  -1.301367  0  -0.57941  -0.758654  0  2.146627  0
