# generated using pymatgen
data_Zr3H26(C27O8)2
_symmetry_space_group_name_H-M   'P 1'
_cell_length_a   19.01925786
_cell_length_b   19.01925249
_cell_length_c   19.01924852
_cell_angle_alpha   60.00000133
_cell_angle_beta   59.99998621
_cell_angle_gamma   60.00000411
_symmetry_Int_Tables_number   1
_chemical_formula_structural   Zr3H26(C27O8)2
_chemical_formula_sum   'Zr6 H52 C108 O32'
_cell_volume   4864.80390077
_cell_formula_units_Z   2
loop_
 _symmetry_equiv_pos_site_id
 _symmetry_equiv_pos_as_xyz
  1  'x, y, z'
loop_
 _atom_site_type_symbol
 _atom_site_label
 _atom_site_symmetry_multiplicity
 _atom_site_fract_x
 _atom_site_fract_y
 _atom_site_fract_z
 _atom_site_occupancy
 _atom_site_pbe_bader_charge
 _atom_site_pbe_bader_spin_density
 _atom_site_pbe_cm5_charge
 _atom_site_pbe_ddec_charge
 _atom_site_pbe_ddec_spin_density
 _atom_site_pbe_ddec_sum_bond_order
 _atom_site_pbe_magmom
Zr  Zr0  1  0.90704054  0.40703525  0.59296540  1  2.623325  0  1.624996  2.372896  0  2.757865  0
Zr  Zr1  1  0.09295850  0.59296473  0.40704485  1  2.627744  0  1.624977  2.37285  0  2.757934  0
Zr  Zr2  1  0.09295937  0.40704351  0.59296134  1  2.627665  0  1.624937  2.372814  0  2.757996  0
Zr  Zr3  1  0.90704242  0.59295921  0.40703891  1  2.623349  0  1.624992  2.372895  0  2.757946  0
Zr  Zr4  1  0.90704046  0.59296362  0.59296160  1  2.627945  0  1.625016  2.372851  0  2.757881  0
Zr  Zr5  1  0.09295741  0.40703938  0.40704229  1  2.628134  0  1.62496  2.372864  0  2.757957  0
H  H6  1  0.92681741  0.42681743  0.71954806  1  0.615968  0  0.330711  0.422015  0  0.857127  0
H  H7  1  0.92681840  0.71954804  0.42681708  1  0.615955  0  0.330694  0.421994  0  0.857163  0
H  H8  1  0.21954896  0.42681713  0.42681723  1  0.615977  0  0.330704  0.422012  0  0.857128  0
H  H9  1  0.92681859  0.42681746  0.42681679  1  0.589024  0  0.330722  0.421982  0  0.856975  0
H  H10  1  0.32079925  0.38784314  0.17805232  1  0.0998  0  0.10706  0.115156  0  1.002871  0
H  H11  1  0.43499007  0.32081444  0.06510101  1  0.037969  0  0.101712  0.102871  0  0.993582  0
H  H12  1  0.32079838  0.61330646  0.17805288  1  0.071677  0  0.107039  0.115125  0  1.002899  0
H  H13  1  0.43498999  0.67909556  0.06510025  1  0.036809  0  0.101704  0.102852  0  0.993585  0
H  H14  1  0.67805460  0.61330510  0.82079834  1  0.071701  0  0.107046  0.115129  0  1.002914  0
H  H15  1  0.56510227  0.67909481  0.93498975  1  0.036814  0  0.101727  0.102888  0  0.993635  0
H  H16  1  0.67805240  0.38784398  0.82079735  1  0.099609  0  0.107026  0.115121  0  1.002873  0
H  H17  1  0.56510126  0.32081470  0.93498865  1  0.037942  0  0.1017  0.102848  0  0.993676  0
H  H18  1  0.88784426  0.82079713  0.61330714  1  0.071381  0  0.107025  0.11511  0  1.002884  0
H  H19  1  0.82081603  0.93498844  0.67909614  1  0.066171  0  0.101717  0.102357  0  0.994319  0
H  H20  1  0.11330679  0.82079753  0.38784402  1  0.071379  0  0.107052  0.11515  0  1.002877  0
H  H21  1  0.17909553  0.93498987  0.32081370  1  0.066137  0  0.101732  0.102359  0  0.994294  0
H  H22  1  0.11330493  0.17805427  0.38784133  1  0.103706  0  0.107056  0.115149  0  1.002894  0
H  H23  1  0.17909488  0.06510217  0.32081244  1  0.064149  0  0.101733  0.102392  0  0.994301  0
H  H24  1  0.88784327  0.17805264  0.61330610  1  0.10371  0  0.107047  0.115143  0  1.002883  0
H  H25  1  0.82081508  0.06510044  0.67909550  1  0.064204  0  0.101714  0.102332  0  0.994354  0
H  H26  1  0.32079872  0.17805219  0.61330555  1  0.07171  0  0.107056  0.115154  0  1.002886  0
H  H27  1  0.43498867  0.06509973  0.67909551  1  0.036833  0  0.101688  0.102818  0  0.993627  0
H  H28  1  0.32079938  0.17805381  0.38784153  1  0.099758  0  0.107045  0.115139  0  1.002929  0
H  H29  1  0.43499062  0.06510155  0.32081272  1  0.037865  0  0.10173  0.102894  0  0.993646  0
H  H30  1  0.67805358  0.82079895  0.38784181  1  0.099754  0  0.107054  0.115146  0  1.002918  0
H  H31  1  0.56510157  0.93499039  0.32081325  1  0.037887  0  0.101746  0.102911  0  0.993661  0
H  H32  1  0.67805322  0.82079868  0.61330483  1  0.071683  0  0.107073  0.115181  0  1.002864  0
H  H33  1  0.56510015  0.93498805  0.67909604  1  0.036802  0  0.101683  0.102809  0  0.993631  0
H  H34  1  0.11330652  0.38784346  0.82079774  1  0.071353  0  0.107064  0.115179  0  1.0029  0
H  H35  1  0.17909625  0.32081521  0.93498832  1  0.066149  0  0.101707  0.102315  0  0.99434  0
H  H36  1  0.88784306  0.61330624  0.82079796  1  0.07137  0  0.107051  0.115135  0  1.002878  0
H  H37  1  0.82081551  0.67909570  0.93498878  1  0.066147  0  0.101677  0.102283  0  0.994327  0
H  H38  1  0.88784408  0.61330491  0.17805299  1  0.103566  0  0.107052  0.115145  0  1.002881  0
H  H39  1  0.82081597  0.67909584  0.06509980  1  0.06421  0  0.101704  0.102338  0  0.99428  0
H  H40  1  0.11330711  0.38784171  0.17805234  1  0.103685  0  0.107042  0.115138  0  1.002891  0
H  H41  1  0.17909702  0.32081461  0.06509913  1  0.0642  0  0.101694  0.102318  0  0.994296  0
H  H42  1  0.11330710  0.82079776  0.17805290  1  0.071712  0  0.107062  0.115161  0  1.002928  0
H  H43  1  0.17909712  0.93498821  0.06509924  1  0.036777  0  0.101711  0.10285  0  0.993694  0
H  H44  1  0.88784335  0.82079922  0.17805300  1  0.099795  0  0.107063  0.115153  0  1.002872  0
H  H45  1  0.82081364  0.93499107  0.06510172  1  0.037969  0  0.101727  0.102889  0  0.993622  0
H  H46  1  0.88784297  0.17805347  0.82079918  1  0.099722  0  0.107066  0.115159  0  1.002844  0
H  H47  1  0.82081422  0.06510178  0.93499048  1  0.037928  0  0.101735  0.102896  0  0.993601  0
H  H48  1  0.11330794  0.17805218  0.82079705  1  0.071664  0  0.107023  0.115105  0  1.00289  0
H  H49  1  0.17909832  0.06509848  0.93498718  1  0.036797  0  0.101703  0.102824  0  0.993694  0
H  H50  1  0.32079745  0.61330771  0.38784442  1  0.07138  0  0.10706  0.115155  0  1.002851  0
H  H51  1  0.43498945  0.67909617  0.32081470  1  0.066109  0  0.101708  0.10234  0  0.994331  0
H  H52  1  0.32079733  0.38784559  0.61330731  1  0.071389  0  0.107042  0.115118  0  1.002892  0
H  H53  1  0.43498808  0.32081583  0.67909708  1  0.066178  0  0.101684  0.102297  0  0.994286  0
H  H54  1  0.67805275  0.38784319  0.61330612  1  0.103703  0  0.107038  0.115126  0  1.002897  0
H  H55  1  0.56510047  0.32081592  0.67909596  1  0.064169  0  0.101705  0.102332  0  0.994334  0
H  H56  1  0.67805430  0.61330569  0.38784141  1  0.103692  0  0.107052  0.115146  0  1.00289  0
H  H57  1  0.56510216  0.67909552  0.32081337  1  0.064132  0  0.101735  0.102365  0  0.994289  0
C  C58  1  0.76172867  0.50188634  0.73449751  1  1.545694  0  0.235967  0.642015  0  4.095006  0
C  C59  1  0.00188693  0.73449746  0.50188718  1  1.550514  0  0.235948  0.641963  0  4.095161  0
C  C60  1  0.23449840  0.50188771  0.26172808  1  1.545556  0  0.235914  0.641788  0  4.095148  0
C  C61  1  0.00188638  0.26172960  0.50188613  1  1.54935  0  0.235942  0.641912  0  4.095218  0
C  C62  1  0.00188633  0.26172859  0.73449871  1  1.545583  0  0.235975  0.641994  0  4.095005  0
C  C63  1  0.76172894  0.50188652  0.50188554  1  1.549333  0  0.235986  0.641925  0  4.095014  0
C  C64  1  0.00188745  0.73449790  0.26172954  1  1.545595  0  0.235942  0.641946  0  4.095014  0
C  C65  1  0.23449739  0.50188784  0.50188758  1  1.550543  0  0.236037  0.642156  0  4.094892  0
C  C66  1  0.00188736  0.50188629  0.73449729  1  1.550224  0  0.235979  0.642038  0  4.09505  0
C  C67  1  0.23449829  0.26172891  0.50188571  1  1.545658  0  0.23595  0.641994  0  4.095121  0
C  C68  1  0.00188660  0.50188536  0.26172885  1  1.549339  0  0.236006  0.642045  0  4.094907  0
C  C69  1  0.76172958  0.73449884  0.50188601  1  1.544796  0  0.235994  0.642  0  4.094984  0
C  C70  1  0.35087926  0.43657899  0.14818824  1  -0.034487  0  -0.079517  -0.139833  0  3.927928  0
C  C71  1  0.42505367  0.43479144  0.07502411  1  0.016828  0  -0.006903  0.075409  0  4.042975  0
C  C72  1  0.46426095  0.37016709  0.03603779  1  -0.053195  0  -0.090525  -0.132619  0  4.02298  0
C  C73  1  0.35087887  0.56435440  0.14818772  1  0.043177  0  -0.079511  -0.139866  0  3.927945  0
C  C74  1  0.42505379  0.56513108  0.07502371  1  0.00714  0  -0.006804  0.075634  0  4.042905  0
C  C75  1  0.46426146  0.62953533  0.03603732  1  -0.051776  0  -0.090538  -0.132658  0  4.022885  0
C  C76  1  0.64818938  0.56435395  0.85087800  1  0.043257  0  -0.079533  -0.13989  0  3.927917  0
C  C77  1  0.57502461  0.56513109  0.92505261  1  0.007151  0  -0.006816  0.075607  0  4.042878  0
C  C78  1  0.53603949  0.62953490  0.96426012  1  0.041045  0  -0.09052  -0.13262  0  4.022944  0
C  C79  1  0.64818702  0.43658000  0.85087787  1  -0.034366  0  -0.079477  -0.139788  0  3.927851  0
C  C80  1  0.57502488  0.43479289  0.92505118  1  0.016747  0  -0.006841  0.075556  0  4.042983  0
C  C81  1  0.53603855  0.37016727  0.96425977  1  0.039646  0  -0.090508  -0.132595  0  4.02302  0
C  C82  1  0.31386871  0.50097201  0.18418850  1  -0.081762  0  -0.02055  -0.039056  0  4.010935  0
C  C83  1  0.46277868  0.49986559  0.03749185  1  -0.110959  0  0.006565  0.006819  0  3.901562  0
C  C84  1  0.68418871  0.50097188  0.81386765  1  -0.082333  0  -0.020593  -0.039145  0  4.010918  0
C  C85  1  0.53749321  0.49986463  0.96277675  1  -0.027642  0  0.006496  0.006707  0  3.901629  0
C  C86  1  0.93657978  0.85087788  0.56435534  1  -0.001951  0  -0.079446  -0.139688  0  3.927768  0
C  C87  1  0.93479352  0.92505149  0.56513166  1  -0.034929  0  -0.006863  0.075592  0  4.04274  0
C  C88  1  0.87016735  0.96426011  0.62953590  1  -0.089081  0  -0.09052  -0.132173  0  4.022638  0
C  C89  1  0.06435486  0.85087815  0.43657917  1  -0.002204  0  -0.079488  -0.139782  0  3.927889  0
C  C90  1  0.06513104  0.92505259  0.43479222  1  -0.034861  0  -0.006837  0.075602  0  4.042768  0
C  C91  1  0.12953532  0.96426136  0.37016518  1  -0.089068  0  -0.090496  -0.132052  0  4.022682  0
C  C92  1  0.06435326  0.14818957  0.43657816  1  -0.019767  0  -0.079514  -0.139857  0  3.927939  0
C  C93  1  0.06513058  0.07502602  0.43478972  1  -0.030878  0  -0.006852  0.075542  0  4.042871  0
C  C94  1  0.12953396  0.03603943  0.37016472  1  0.005469  0  -0.090585  -0.132312  0  4.022909  0
C  C95  1  0.93657901  0.14818803  0.56435411  1  -0.019767  0  -0.079495  -0.139858  0  3.927883  0
C  C96  1  0.93479214  0.07502505  0.56513058  1  -0.030794  0  -0.006799  0.075607  0  4.042829  0
C  C97  1  0.87016673  0.03603787  0.62953565  1  0.005387  0  -0.090508  -0.132113  0  4.022697  0
C  C98  1  0.00097246  0.81386691  0.50097087  1  -0.01307  0  -0.020638  -0.03929  0  4.011078  0
C  C99  1  0.99986532  0.96277733  0.49986469  1  -0.025776  0  0.006522  0.006655  0  3.901789  0
C  C100  1  0.00097142  0.18419018  0.50097044  1  -0.051636  0  -0.020567  -0.039019  0  4.010892  0
C  C101  1  0.99986423  0.03749375  0.49986460  1  0.042606  0  0.006481  0.006802  0  3.901746  0
C  C102  1  0.35087929  0.14818822  0.56435351  1  0.043294  0  -0.079515  -0.139852  0  3.927909  0
C  C103  1  0.42505351  0.07502334  0.56513047  1  0.007136  0  -0.006861  0.07547  0  4.043065  0
C  C104  1  0.46426071  0.03603719  0.62953432  1  0.041088  0  -0.0905  -0.132552  0  4.023011  0
C  C105  1  0.35087973  0.14818862  0.43657687  1  -0.034521  0  -0.079518  -0.139867  0  3.927945  0
C  C106  1  0.42505342  0.07502532  0.43478986  1  0.016774  0  -0.006849  0.075533  0  4.042937  0
C  C107  1  0.46426202  0.03603841  0.37016478  1  -0.053128  0  -0.090578  -0.132719  0  4.023149  0
C  C108  1  0.64818911  0.85088006  0.43657698  1  -0.034533  0  -0.079493  -0.139849  0  3.927952  0
C  C109  1  0.57502604  0.92505292  0.43479060  1  0.016945  0  -0.006833  0.075577  0  4.04294  0
C  C110  1  0.53603903  0.96426138  0.37016450  1  0.039543  0  -0.09052  -0.132608  0  4.022997  0
C  C111  1  0.64818854  0.85087953  0.56435259  1  0.043279  0  -0.079519  -0.139868  0  3.927905  0
C  C112  1  0.57502516  0.92505209  0.56513039  1  0.007127  0  -0.006911  0.075475  0  4.04297  0
C  C113  1  0.53603719  0.96426068  0.62953404  1  -0.051792  0  -0.090485  -0.132552  0  4.022975  0
C  C114  1  0.31386868  0.18418991  0.50097001  1  -0.082278  0  -0.020609  -0.039149  0  4.010954  0
C  C115  1  0.46277837  0.03749183  0.49986467  1  -0.110958  0  0.006563  0.006849  0  3.901617  0
C  C116  1  0.68418984  0.81386955  0.50097012  1  -0.08172  0  -0.020633  -0.03919  0  4.010976  0
C  C117  1  0.53749293  0.96277725  0.49986438  1  -0.027726  0  0.006552  0.006786  0  3.901637  0
C  C118  1  0.06435577  0.43657898  0.85087746  1  -0.002094  0  -0.079495  -0.139809  0  3.927882  0
C  C119  1  0.06513237  0.43479294  0.92505058  1  -0.034878  0  -0.00683  0.075616  0  4.04269  0
C  C120  1  0.12953650  0.37016680  0.96425924  1  0.005596  0  -0.090504  -0.132098  0  4.022753  0
C  C121  1  0.93658005  0.56435382  0.85087849  1  -0.002186  0  -0.07951  -0.139772  0  3.92787  0
C  C122  1  0.93479306  0.56513058  0.92505305  1  -0.034953  0  -0.006868  0.075502  0  4.042893  0
C  C123  1  0.87016805  0.62953481  0.96426051  1  -0.089037  0  -0.090484  -0.132047  0  4.022707  0
C  C124  1  0.93658069  0.56435315  0.14818793  1  -0.019616  0  -0.079526  -0.139812  0  3.927941  0
C  C125  1  0.93479283  0.56513109  0.07502318  1  -0.030847  0  -0.006864  0.075486  0  4.04293  0
C  C126  1  0.87016820  0.62953462  0.03603739  1  0.005498  0  -0.090486  -0.132109  0  4.022737  0
C  C127  1  0.06435537  0.43657832  0.14818729  1  -0.019821  0  -0.079477  -0.1398  0  3.927901  0
C  C128  1  0.06513209  0.43479235  0.07502379  1  -0.030832  0  -0.006855  0.075593  0  4.042771  0
C  C129  1  0.12953612  0.37016714  0.03603612  1  -0.089198  0  -0.090506  -0.132158  0  4.022748  0
C  C130  1  0.00097214  0.50097110  0.81386702  1  -0.012559  0  -0.020612  -0.03925  0  4.011051  0
C  C131  1  0.99986529  0.49986545  0.96277728  1  -0.025862  0  0.00654  0.00676  0  3.901746  0
C  C132  1  0.00097177  0.50097050  0.18418911  1  -0.051667  0  -0.020595  -0.039184  0  4.011024  0
C  C133  1  0.99986591  0.49986467  0.03749196  1  0.042571  0  0.006526  0.006803  0  3.901716  0
C  C134  1  0.06435602  0.85087814  0.14818819  1  0.04327  0  -0.079514  -0.139816  0  3.928032  0
C  C135  1  0.06513258  0.92505189  0.07502355  1  0.007147  0  -0.006832  0.075522  0  4.042904  0
C  C136  1  0.12953795  0.96425966  0.03603593  1  0.041033  0  -0.09051  -0.132575  0  4.023013  0
C  C137  1  0.93657898  0.85087903  0.14818871  1  -0.034496  0  -0.079513  -0.139782  0  3.927868  0
C  C138  1  0.93479144  0.92505344  0.07502458  1  0.016811  0  -0.006903  0.075382  0  4.042925  0
C  C139  1  0.87016649  0.96426218  0.03603871  1  0.039703  0  -0.090516  -0.132592  0  4.023134  0
C  C140  1  0.93658032  0.14818839  0.85087869  1  -0.034426  0  -0.079508  -0.139816  0  3.927858  0
C  C141  1  0.93479217  0.07502521  0.92505277  1  0.016791  0  -0.0069  0.075396  0  4.042999  0
C  C142  1  0.87016647  0.03603878  0.96426219  1  -0.053137  0  -0.09052  -0.132609  0  4.023062  0
C  C143  1  0.06435545  0.14818770  0.85087731  1  0.043236  0  -0.07951  -0.13982  0  3.927864  0
C  C144  1  0.06513287  0.07502428  0.92505091  1  0.007088  0  -0.006846  0.075504  0  4.042846  0
C  C145  1  0.12953772  0.03603604  0.96425919  1  -0.051803  0  -0.090473  -0.132525  0  4.023001  0
C  C146  1  0.00097207  0.81386850  0.18418936  1  -0.081912  0  -0.020578  -0.039191  0  4.011029  0
C  C147  1  0.99986670  0.96277854  0.03749111  1  -0.110961  0  0.006529  0.00678  0  3.901569  0
C  C148  1  0.00097225  0.18418902  0.81386741  1  -0.081807  0  -0.020593  -0.03914  0  4.010945  0
C  C149  1  0.99986576  0.03749229  0.96277773  1  -0.027763  0  0.006562  0.006886  0  3.9016  0
C  C150  1  0.35087795  0.56435675  0.43657999  1  -0.002011  0  -0.079486  -0.139672  0  3.92785  0
C  C151  1  0.42505090  0.56513252  0.43479300  1  -0.034646  0  -0.006896  0.075441  0  4.042714  0
C  C152  1  0.46426093  0.62953597  0.37016618  1  -0.089028  0  -0.090533  -0.13215  0  4.022748  0
C  C153  1  0.35087703  0.43658112  0.56435590  1  -0.002061  0  -0.079469  -0.139615  0  3.92786  0
C  C154  1  0.42505158  0.43479374  0.56513304  1  -0.035089  0  -0.006911  0.075406  0  4.042773  0
C  C155  1  0.46426026  0.37016872  0.62953605  1  -0.088688  0  -0.090474  -0.132059  0  4.022695  0
C  C156  1  0.64818837  0.43657914  0.56435437  1  -0.019792  0  -0.079503  -0.139816  0  3.927876  0
C  C157  1  0.57502354  0.43479142  0.56513224  1  -0.030874  0  -0.00682  0.075584  0  4.042987  0
C  C158  1  0.53603800  0.37016870  0.62953491  1  0.005452  0  -0.090526  -0.132151  0  4.022893  0
C  C159  1  0.64818886  0.56435433  0.43657803  1  -0.019779  0  -0.079481  -0.139781  0  3.927912  0
C  C160  1  0.57502589  0.56513114  0.43479145  1  -0.030789  0  -0.006852  0.075536  0  4.042866  0
C  C161  1  0.53603889  0.62953513  0.37016564  1  0.005378  0  -0.090511  -0.132132  0  4.022737  0
C  C162  1  0.31386695  0.50097247  0.50097269  1  -0.013516  0  -0.020634  -0.039441  0  4.011213  0
C  C163  1  0.46277794  0.49986607  0.49986568  1  -0.025873  0  0.006621  0.006941  0  3.901518  0
C  C164  1  0.68418967  0.50097167  0.50097090  1  -0.051642  0  -0.020614  -0.039174  0  4.010991  0
C  C165  1  0.53749308  0.49986537  0.49986488  1  0.042628  0  0.006514  0.006754  0  3.901751  0
O  O166  1  0.79247330  0.44214055  0.70368021  1  -1.180477  0  -0.356605  -0.620261  0  2.28137  0
O  O167  1  0.06170653  0.70367838  0.44214125  1  -1.182815  0  -0.356618  -0.62022  0  2.281387  0
O  O168  1  0.20368072  0.56170661  0.29247256  1  -1.183996  0  -0.356599  -0.620147  0  2.28125  0
O  O169  1  0.94214070  0.29247338  0.56170569  1  -1.181127  0  -0.356585  -0.620221  0  2.281382  0
O  O170  1  0.06170704  0.29247352  0.70367939  1  -1.183972  0  -0.356627  -0.620256  0  2.281224  0
O  O171  1  0.79247428  0.56170661  0.44213826  1  -1.181176  0  -0.356624  -0.620193  0  2.281198  0
O  O172  1  0.94214024  0.70368039  0.29247337  1  -1.180819  0  -0.356607  -0.620218  0  2.281221  0
O  O173  1  0.20367885  0.44214072  0.56170850  1  -1.182843  0  -0.356619  -0.620269  0  2.281242  0
O  O174  1  0.94214162  0.56170577  0.70367894  1  -1.182797  0  -0.356575  -0.620213  0  2.281332  0
O  O175  1  0.20368038  0.29247279  0.44214065  1  -1.180556  0  -0.356611  -0.620255  0  2.281304  0
O  O176  1  0.06170707  0.44213860  0.29247394  1  -1.181173  0  -0.356625  -0.620246  0  2.281182  0
O  O177  1  0.79247354  0.70368206  0.56170517  1  -1.183911  0  -0.356613  -0.620214  0  2.281307  0
O  O178  1  0.20368035  0.29247282  0.56170609  1  -1.183864  0  -0.35659  -0.620214  0  2.28123  0
O  O179  1  0.94213973  0.56170583  0.29247354  1  -1.181111  0  -0.356624  -0.620244  0  2.281256  0
O  O180  1  0.79247428  0.70368064  0.44213848  1  -1.180298  0  -0.356635  -0.620223  0  2.281144  0
O  O181  1  0.06170706  0.44214085  0.70367955  1  -1.182789  0  -0.356603  -0.620232  0  2.281334  0
O  O182  1  0.94214003  0.29247381  0.70368018  1  -1.180865  0  -0.356638  -0.620242  0  2.281338  0
O  O183  1  0.20367780  0.56170795  0.44214166  1  -1.182849  0  -0.356623  -0.620267  0  2.281251  0
O  O184  1  0.06170663  0.70368053  0.29247340  1  -1.183943  0  -0.356632  -0.620229  0  2.281265  0
O  O185  1  0.79247451  0.44213855  0.56170610  1  -1.181155  0  -0.356621  -0.6202  0  2.281195  0
O  O186  1  0.06170481  0.29247330  0.44214085  1  -1.181144  0  -0.356569  -0.62017  0  2.281379  0
O  O187  1  0.79247341  0.56170688  0.70367984  1  -1.184134  0  -0.356618  -0.620234  0  2.281204  0
O  O188  1  0.94214242  0.70367845  0.56170609  1  -1.182797  0  -0.356583  -0.620182  0  2.281409  0
O  O189  1  0.20368048  0.44214120  0.29247149  1  -1.180754  0  -0.35661  -0.620174  0  2.2812  0
O  O190  1  0.94762277  0.44762060  0.44762046  1  -1.219181  0  -0.694293  -1.065928  0  2.360242  0
O  O191  1  0.15713454  0.44762258  0.44762277  1  -1.247281  0  -0.694332  -1.06606  0  2.360412  0
O  O192  1  0.94762258  0.65713549  0.44762199  1  -1.247329  0  -0.694298  -1.066033  0  2.360588  0
O  O193  1  0.94762160  0.44762162  0.65713493  1  -1.247319  0  -0.694293  -1.066005  0  2.360505  0
O  O194  1  0.03854265  0.53854258  0.53854090  1  -1.202809  0  -0.791264  -1.149193  0  2.129016  0
O  O195  1  0.88437632  0.53854216  0.53854101  1  -1.193896  0  -0.79129  -1.149382  0  2.128801  0
O  O196  1  0.03854134  0.53854227  0.38437506  1  -1.196248  0  -0.791284  -1.149338  0  2.128895  0
O  O197  1  0.03854207  0.38437504  0.53854157  1  -1.196332  0  -0.791277  -1.149278  0  2.128948  0
