# generated using pymatgen
data_CuH21C21(NO3)3
_symmetry_space_group_name_H-M   'P 1'
_cell_length_a   6.74177079
_cell_length_b   12.92412238
_cell_length_c   13.32992105
_cell_angle_alpha   97.39942282
_cell_angle_beta   93.60835489
_cell_angle_gamma   98.44095790
_symmetry_Int_Tables_number   1
_chemical_formula_structural   CuH21C21(NO3)3
_chemical_formula_sum   'Cu2 H42 C42 N6 O18'
_cell_volume   1135.33485816
_cell_formula_units_Z   2
loop_
 _symmetry_equiv_pos_site_id
 _symmetry_equiv_pos_as_xyz
  1  'x, y, z'
loop_
 _atom_site_type_symbol
 _atom_site_label
 _atom_site_symmetry_multiplicity
 _atom_site_fract_x
 _atom_site_fract_y
 _atom_site_fract_z
 _atom_site_occupancy
 _atom_site_hle17_ddec_charge
 _atom_site_hle17_ddec_spin_density
 _atom_site_hle17_ddec_sum_bond_order
 _atom_site_hle17_magmom
 _atom_site_hse06_10hf_ddec_charge
 _atom_site_hse06_10hf_ddec_spin_density
 _atom_site_hse06_10hf_ddec_sum_bond_order
 _atom_site_hse06_10hf_magmom
 _atom_site_hse06_ddec_charge
 _atom_site_hse06_ddec_spin_density
 _atom_site_hse06_ddec_sum_bond_order
 _atom_site_hse06_magmom
 _atom_site_pbe_cm5_charge
 _atom_site_pbe_ddec_charge
 _atom_site_pbe_ddec_spin_density
 _atom_site_pbe_ddec_sum_bond_order
 _atom_site_pbe_magmom
Cu  Cu0  1  0.38233130  0.75997202  0.21753083  1  0.888833  0.713541  1.772122  0.537  0.864285  0.792927  2.151685  0.647  0.965718  0.853299  2.055012  0.727  0.746536  0.814615  0.749526  2.193734  0.593
Cu  Cu1  1  0.61765804  0.24002656  0.78246984  1  0.888819  0.713557  1.772249  0.537  0.864254  0.792934  2.151848  0.647  0.955147  0.853254  2.073311  0.727  0.746496  0.814515  0.749521  2.193965  0.593
H  H2  1  0.82771127  0.95443670  0.26368008  1  0.413603  6.4e-05  0.888057  0.0  0.388587  0.000109  0.942983  0.0  0.399313  9.1e-05  0.927301  0.0  0.285399  0.381189  0.000126  0.953775  0.0
H  H3  1  0.17228981  0.04557106  0.73633683  1  0.413506  6.5e-05  0.888243  0.0  0.38856  0.000109  0.943065  0.0  0.399228  9.1e-05  0.927479  0.0  0.285385  0.381157  0.000126  0.95386  0.0
H  H4  1  0.70260294  0.89813211  0.16569598  1  0.406777  -1.3e-05  0.851861  0.0  0.387552  0.000147  0.916142  0.0  0.395682  7.3e-05  0.9071  0.0  0.304078  0.381637  0.000224  0.923227  0.0
H  H5  1  0.29733091  0.10188902  0.83433351  1  0.407081  -8e-06  0.851738  0.0  0.387879  0.000147  0.915954  0.0  0.396121  7.2e-05  0.906472  0.0  0.304136  0.381962  0.000224  0.923043  0.0
H  H6  1  0.02369071  0.76523703  0.23135196  1  0.432727  -0.00127  0.816014  -0.002  0.410399  -5.3e-05  0.882342  0.0  0.420511  -0.00023  0.872213  0.0  0.312186  0.402947  0.000116  0.890376  0.0
H  H7  1  0.97629441  0.23474817  0.76867060  1  0.43311  -0.001267  0.815576  -0.002  0.410769  -5.4e-05  0.881943  0.0  0.420934  -0.00023  0.871477  0.0  0.312339  0.403317  0.000115  0.889982  0.0
H  H8  1  0.11164662  0.88989669  0.23654416  1  0.414988  -0.000462  0.901835  -0.001  0.381959  0.000292  0.969522  0.0  0.395336  0.000104  0.950745  0.0  0.284173  0.372444  0.000444  0.982931  0.0
H  H9  1  0.88832947  0.11008323  0.76346186  1  0.414937  -0.00046  0.90192  -0.001  0.38198  0.000293  0.969481  0.0  0.395358  0.000106  0.950649  0.0  0.284141  0.372499  0.000444  0.982838  0.0
H  H10  1  0.71772921  0.70332337  0.28976549  1  0.414851  -0.000859  0.900885  -0.002  0.38458  0.000128  0.965262  0.0  0.398158  2e-06  0.946123  0.0  0.281181  0.374899  0.000235  0.978982  0.0
H  H11  1  0.28226086  0.29668234  0.71023662  1  0.414837  -0.000863  0.900898  -0.002  0.384578  0.000128  0.965253  0.0  0.398171  2e-06  0.946042  0.0  0.281156  0.374901  0.000234  0.978964  0.0
H  H12  1  0.54971396  0.60696318  0.23083657  1  0.405358  -0.000772  0.896083  -0.002  0.374695  0.000205  0.971111  0.0  0.386864  -4.9e-05  0.953807  0.0  0.283201  0.365877  0.00042  0.983731  0.0
H  H13  1  0.45027513  0.39304420  0.76916791  1  0.405561  -0.000777  0.8957  -0.002  0.374765  0.000206  0.971046  0.0  0.38704  -4.8e-05  0.953504  0.0  0.283252  0.365945  0.00042  0.983675  0.0
H  H14  1  0.32958270  0.93099312  0.37567624  1  0.090594  0.000946  0.966876  0.002  0.094382  0.00069  1.036378  0.002  0.096062  0.000425  1.03472  0.001  0.120584  0.092785  0.000916  1.038258  0.002
H  H15  1  0.67037969  0.06900961  0.62432694  1  0.090597  0.000947  0.966848  0.002  0.094379  0.000689  1.036355  0.002  0.096153  0.000426  1.034417  0.001  0.120566  0.092786  0.000915  1.038228  0.002
H  H16  1  0.33315608  0.95916772  0.56377573  1  0.116277  0.000575  0.939287  0.001  0.1303  0.000487  0.990242  0.001  0.132522  0.00034  0.990917  0.0  0.114821  0.128671  0.000611  0.989921  0.001
H  H17  1  0.66681548  0.04083108  0.43622889  1  0.11629  0.000581  0.939345  0.001  0.130317  0.000487  0.990256  0.001  0.132543  0.00034  0.990934  0.0  0.11482  0.128694  0.00061  0.989932  0.001
H  H18  1  0.39525625  0.62956651  0.55873328  1  0.120589  0.000456  0.936258  0.0  0.131668  0.000394  0.992485  0.0  0.135048  0.000267  0.991379  0.0  0.113494  0.129234  0.000503  0.993424  0.001
H  H19  1  0.60476842  0.37044047  0.44126480  1  0.120549  0.000458  0.936267  0.0  0.131717  0.000394  0.992382  0.0  0.135081  0.000267  0.99132  0.0  0.113555  0.129285  0.000503  0.99332  0.001
H  H20  1  0.40196816  0.61692479  0.37377192  1  0.087021  0.000813  0.975794  0.002  0.093719  0.000615  1.038943  0.001  0.095342  0.000403  1.037837  0.001  0.120263  0.092242  0.000786  1.040177  0.001
H  H21  1  0.59804064  0.38308372  0.62622279  1  0.087057  0.000813  0.975766  0.002  0.093671  0.000615  1.039035  0.001  0.095334  0.000403  1.037789  0.001  0.120283  0.092199  0.000786  1.040251  0.001
H  H22  1  0.35504170  0.89474402  0.72318089  1  0.111864  3.9e-05  0.971462  0.0  0.123054  6.2e-05  1.031619  0.0  0.125938  5.8e-05  1.030461  0.0  0.105477  0.12089  6.4e-05  1.032637  0.0
H  H23  1  0.64491363  0.10526934  0.27681028  1  0.111918  3.9e-05  0.97155  0.0  0.123073  6.2e-05  1.031719  0.0  0.125988  5.7e-05  1.030509  0.0  0.105446  0.120911  6.4e-05  1.03274  0.0
H  H24  1  0.43945697  0.66513064  0.71655646  1  0.102178  0.000112  0.943722  0.0  0.112517  3.2e-05  1.006954  0.0  0.115925  2.5e-05  1.004727  0.0  0.106425  0.109985  3.8e-05  1.008712  0.0
H  H25  1  0.56054721  0.33489181  0.28345290  1  0.102515  0.000113  0.943413  0.0  0.11277  3.2e-05  1.006699  0.0  0.116256  2.5e-05  1.004368  0.0  0.106578  0.110236  3.8e-05  1.008456  0.0
H  H26  1  0.31236455  0.91103965  0.88425350  1  0.116122  0.00059  0.951865  0.001  0.12548  0.00045  1.011562  0.001  0.128616  0.000323  1.010656  0.0  0.111967  0.12319  0.000556  1.012345  0.001
H  H27  1  0.68756278  0.08896513  0.11575850  1  0.116037  0.00059  0.951757  0.001  0.12557  0.00045  1.011294  0.001  0.128719  0.000323  1.010367  0.0  0.111969  0.123276  0.000556  1.012089  0.001
H  H28  1  0.31013349  0.91407395  0.07052154  1  0.105459  0.000863  0.945572  0.002  0.110397  0.000653  1.010435  0.001  0.113241  0.000417  1.007407  0.001  0.120882  0.108028  0.000856  1.013096  0.002
H  H29  1  0.68982254  0.08592751  0.92948958  1  0.105505  0.000851  0.945294  0.002  0.110409  0.000653  1.010222  0.001  0.113287  0.000417  1.00708  0.001  0.12083  0.108039  0.000856  1.012881  0.002
H  H30  1  0.51950386  0.62595425  0.05781025  1  0.095582  0.000838  0.938827  0.002  0.106703  0.0006  0.994105  0.001  0.10875  0.000385  0.991882  0.001  0.123326  0.104893  0.000794  0.996232  0.002
H  H31  1  0.48061889  0.37409093  0.94218929  1  0.095961  0.000839  0.938477  0.002  0.10678  0.000601  0.994057  0.001  0.108848  0.000386  0.991712  0.001  0.123358  0.104973  0.000795  0.996192  0.002
H  H32  1  0.51405883  0.60683893  0.86833353  1  0.123157  0.000431  0.992254  0.001  0.129419  0.000316  1.054269  0.0  0.133109  0.00022  1.053249  0.0  0.105595  0.1267  0.0004  1.055192  0.001
H  H33  1  0.48600727  0.39320089  0.13166293  1  0.123145  0.000434  0.992202  0.001  0.129424  0.000316  1.054193  0.0  0.133107  0.00022  1.053198  0.0  0.105579  0.126707  0.0004  1.055109  0.001
H  H34  1  0.91009077  0.48436158  0.25894851  1  0.141532  6.3e-05  0.925968  0.0  0.152486  9.2e-05  0.986221  0.0  0.156817  7.1e-05  0.982076  0.0  0.125896  0.149284  0.000109  0.989331  0.0
H  H35  1  0.08989516  0.51560181  0.74101502  1  0.141562  5.7e-05  0.925913  0.0  0.152436  9.2e-05  0.986188  0.0  0.156756  7e-05  0.982084  0.0  0.125868  0.149225  0.000109  0.989307  0.0
H  H36  1  0.94955964  0.40274998  0.14480201  1  0.119258  0.0  0.913648  0.0  0.13448  -1.8e-05  0.967593  0.0  0.13678  -1.3e-05  0.966607  0.0  0.123666  0.132905  -2.1e-05  0.968238  0.0
H  H37  1  0.05052230  0.59723067  0.85517222  1  0.119188  -4e-06  0.913632  0.0  0.134278  -1.8e-05  0.967641  0.0  0.136564  -1.4e-05  0.966679  0.0  0.123571  0.132702  -2.1e-05  0.968288  0.0
H  H38  1  0.05156704  0.46037386  0.41355484  1  0.124997  2e-06  0.953918  0.0  0.127521  -4e-06  1.024078  0.0  0.131902  -2e-06  1.01937  0.0  0.132559  0.124294  -7e-06  1.027443  0.0
H  H39  1  0.94845944  0.53961484  0.58641684  1  0.12528  -4e-06  0.953833  0.0  0.127913  -4e-06  1.023902  0.0  0.132294  -3e-06  1.019202  0.0  0.132783  0.124718  -7e-06  1.027218  0.0
H  H40  1  0.14737535  0.14303713  0.44455536  1  0.125171  2.6e-05  0.916633  0.0  0.131335  7e-06  0.981273  0.0  0.135953  4e-06  0.976266  0.0  0.118821  0.127829  1.3e-05  0.984995  0.0
H  H41  1  0.85263797  0.85694768  0.55543805  1  0.12519  2.6e-05  0.91666  0.0  0.131443  7e-06  0.981173  0.0  0.136068  4e-06  0.97616  0.0  0.118881  0.127983  1.3e-05  0.984844  0.0
H  H42  1  0.08178969  0.24937851  0.15219155  1  0.114468  1.8e-05  0.915562  0.0  0.121726  -0.0  0.978803  0.0  0.125376  4e-06  0.975558  0.0  0.137248  0.119053  -6e-06  0.981255  0.0
H  H43  1  0.91819990  0.75058731  0.84779634  1  0.114344  1.7e-05  0.915713  0.0  0.121685  -1e-06  0.978942  0.0  0.125339  4e-06  0.975696  0.0  0.137289  0.119017  -6e-06  0.981391  0.0
C  C44  1  0.35015115  0.86729611  0.41953468  1  0.137971  -0.012057  3.693632  -0.007  0.107389  -0.002525  3.954745  -0.001  0.118236  -0.004246  3.973406  -0.002  0.049151  0.09999  -0.001245  3.944142  0.0
C  C45  1  0.64982975  0.13270879  0.58046555  1  0.137861  -0.012089  3.692956  -0.007  0.107306  -0.002527  3.954097  -0.001  0.118366  -0.00425  3.971562  -0.002  0.049223  0.099905  -0.001248  3.943481  0.0
C  C46  1  0.35062220  0.88213575  0.52446806  1  -0.155934  0.010145  3.667801  0.011  -0.170188  0.003847  3.906907  0.005  -0.179534  0.0035  3.92748  0.004  -0.076716  -0.164114  0.004155  3.893151  0.005
C  C47  1  0.64934998  0.11786968  0.47552368  1  -0.155878  0.010148  3.66733  0.011  -0.170034  0.003846  3.906446  0.005  -0.179451  0.0035  3.927101  0.004  -0.076634  -0.163974  0.004154  3.89272  0.005
C  C48  1  0.37150541  0.79815512  0.57957621  1  0.136889  -0.012541  3.811634  -0.008  0.151074  -0.004523  4.04307  -0.003  0.157506  -0.004965  4.066  -0.003  0.007067  0.146832  -0.004259  4.02765  -0.003
C  C49  1  0.62849622  0.20185424  0.42041909  1  0.137067  -0.012557  3.811727  -0.008  0.151017  -0.004522  4.043394  -0.003  0.157439  -0.004966  4.066414  -0.003  0.006956  0.146772  -0.004258  4.027987  -0.003
C  C50  1  0.38596221  0.70008210  0.52290844  1  -0.161648  0.010637  3.68113  0.011  -0.178441  0.00371  3.926689  0.004  -0.188352  0.003381  3.948521  0.004  -0.080186  -0.171985  0.004029  3.912193  0.005
C  C51  1  0.61404787  0.29992577  0.47709075  1  -0.161793  0.010649  3.681071  0.011  -0.178563  0.00371  3.926672  0.004  -0.188548  0.003382  3.948631  0.004  -0.080265  -0.172117  0.004029  3.912198  0.005
C  C52  1  0.38662831  0.69151075  0.41852111  1  0.135553  -0.012434  3.686746  -0.008  0.107426  -0.003073  3.941567  -0.002  0.116731  -0.004645  3.962724  -0.003  0.045419  0.101142  -0.001897  3.929046  -0.001
C  C53  1  0.61338471  0.30849704  0.58147593  1  0.135705  -0.012445  3.686729  -0.008  0.107619  -0.003071  3.941632  -0.002  0.117062  -0.004644  3.961824  -0.003  0.045512  0.101336  -0.001896  3.929105  -0.001
C  C54  1  0.37559202  0.81568981  0.68943974  1  -0.110629  0.001278  3.708558  0.002  -0.131405  2.1e-05  3.96232  0.0  -0.135928  3.9e-05  3.984143  0.0  -0.082999  -0.128447  4e-05  3.947924  0.0
C  C55  1  0.62438418  0.18431906  0.31056071  1  -0.110845  0.001295  3.709257  0.002  -0.131436  1.9e-05  3.962898  0.0  -0.13597  4.1e-05  3.984711  0.0  -0.082997  -0.128479  3.9e-05  3.94851  0.0
C  C56  1  0.40959575  0.74265201  0.74986561  1  -0.096464  -0.005093  3.710138  -0.003  -0.122302  -0.001938  3.974796  -0.001  -0.125131  -0.002163  3.994739  -0.001  -0.080042  -0.120315  -0.00181  3.961478  -0.001
C  C57  1  0.59038617  0.25736580  0.25014335  1  -0.097025  -0.005122  3.710406  -0.003  -0.122858  -0.001935  3.975175  -0.001  -0.125738  -0.002168  3.995105  -0.001  -0.080311  -0.120872  -0.00181  3.961845  -0.001
C  C58  1  0.41290927  0.75725767  0.85975820  1  0.138699  -0.008053  3.803086  -0.005  0.148052  -0.002811  4.045384  -0.002  0.154676  -0.003163  4.066632  -0.002  0.007673  0.143699  -0.002536  4.030896  -0.001
C  C59  1  0.58706915  0.24276315  0.14024642  1  0.139248  -0.008065  3.802958  -0.005  0.148522  -0.002815  4.045399  -0.002  0.155121  -0.003167  4.066765  -0.002  0.007938  0.144177  -0.002538  4.030897  -0.001
C  C60  1  0.35758132  0.84527595  0.91888347  1  -0.146414  0.008512  3.662321  0.009  -0.162029  0.003357  3.904665  0.004  -0.170739  0.002879  3.925165  0.004  -0.07472  -0.156318  0.00377  3.890867  0.005
C  C61  1  0.64236179  0.15473175  0.08112405  1  -0.146451  0.008513  3.662031  0.009  -0.16223  0.003357  3.904475  0.004  -0.170996  0.002881  3.925065  0.004  -0.074809  -0.15653  0.00377  3.890685  0.005
C  C62  1  0.35838164  0.84824287  0.02336615  1  0.127493  -0.007324  3.661075  -0.004  0.103416  -0.000541  3.908547  0.0  0.112508  -0.001967  3.928873  -0.001  0.051085  0.097356  0.000579  3.896351  0.001
C  C63  1  0.64158324  0.15176312  0.97664042  1  0.127581  -0.007292  3.660276  -0.004  0.103505  -0.00054  3.907844  0.0  0.112698  -0.001969  3.92734  -0.001  0.05117  0.097452  0.000578  3.89563  0.001
C  C64  1  0.47241343  0.68610619  0.01574886  1  0.138084  -0.010006  3.704093  -0.006  0.108716  -0.002427  3.954426  -0.001  0.118593  -0.003811  3.974817  -0.002  0.046606  0.101892  -0.001311  3.942565  0.0
C  C65  1  0.52763716  0.31391724  0.98425009  1  0.13796  -0.010014  3.704459  -0.006  0.108832  -0.002426  3.954722  -0.001  0.1189  -0.003813  3.974112  -0.002  0.046598  0.101993  -0.001311  3.942864  0.0
C  C66  1  0.47052218  0.67656945  0.91117414  1  -0.177667  0.007563  3.699004  0.009  -0.191845  0.002755  3.943942  0.004  -0.201673  0.00233  3.964239  0.003  -0.086465  -0.1855  0.003135  3.930583  0.004
C  C67  1  0.52949770  0.32345557  0.08882095  1  -0.17812  0.00756  3.699318  0.009  -0.192271  0.002757  3.944256  0.004  -0.202173  0.002331  3.964641  0.003  -0.086611  -0.185923  0.003136  3.930889  0.004
C  C68  1  0.20561166  0.51980852  0.20819608  1  0.663057  -0.000672  3.920011  0.0  0.620741  -0.000559  4.225728  0.0  0.652874  -0.000479  4.220668  0.0  0.199795  0.599035  -0.000568  4.228478  0.0
C  C69  1  0.79439527  0.48018452  0.79180615  1  0.662601  -0.000689  3.920038  0.0  0.620249  -0.000562  4.225679  0.0  0.652376  -0.000481  4.220143  0.0  0.199763  0.598556  -0.000569  4.228397  0.0
C  C70  1  0.01744354  0.44035112  0.21998603  1  -0.18451  -6.9e-05  3.573575  0.0  -0.247738  -6.9e-05  3.824583  0.0  -0.248172  -7.8e-05  3.828081  0.0  -0.05784  -0.247028  -5.5e-05  3.821757  0.0
C  C71  1  0.98258301  0.55963311  0.77999275  1  -0.184353  -5.3e-05  3.573536  0.0  -0.247225  -7.1e-05  3.824146  0.0  -0.247705  -7.6e-05  3.827782  0.0  -0.057763  -0.246492  -5.5e-05  3.821283  0.0
C  C72  1  0.07749488  0.38153248  0.38307604  1  0.092934  -0.000325  3.526282  0.0  0.040996  -0.000114  3.775014  0.0  0.052576  -7.2e-05  3.786228  0.0  0.073388  0.032946  -0.000181  3.768865  0.0
C  C73  1  0.92252606  0.61845285  0.61691091  1  0.092508  -0.000291  3.526123  0.0  0.040295  -0.000111  3.775097  0.0  0.051869  -7.7e-05  3.786324  0.0  0.07307  0.032129  -0.000181  3.769112  0.0
C  C74  1  0.11504852  0.30636212  0.44428133  1  -0.093858  0.000603  3.727853  0.001  -0.069218  0.000193  3.971674  0.0  -0.081539  7.9e-05  3.993236  0.0  -0.001658  -0.061782  0.000371  3.957696  0.0
C  C75  1  0.88496996  0.69362971  0.55571065  1  -0.09377  0.000599  3.727786  0.001  -0.069023  0.00019  3.971533  0.0  -0.081337  8.2e-05  3.993085  0.0  -0.001683  -0.061571  0.000371  3.957543  0.0
C  C76  1  0.12877309  0.20468344  0.39783339  1  0.003976  -0.00031  3.630752  0.0  -0.043074  -0.000138  3.890295  0.0  -0.032069  -8.4e-05  3.900823  0.0  -0.042741  -0.049929  -0.000224  3.88348  0.0
C  C77  1  0.87122693  0.79530168  0.60216713  1  0.00364  -0.000304  3.631052  0.0  -0.043469  -0.000135  3.890457  0.0  -0.032442  -8.8e-05  3.901027  0.0  -0.042881  -0.050358  -0.000224  3.883622  0.0
C  C78  1  0.12008367  0.18269778  0.29196467  1  -0.09304  0.00019  3.734482  0.0  -0.066932  3.6e-05  3.979556  0.0  -0.07914  1e-05  4.00116  0.0  -0.001953  -0.05959  6.8e-05  3.965747  0.0
C  C79  1  0.87991389  0.81727940  0.70803353  1  -0.092839  0.000181  3.734443  0.0  -0.066656  3.6e-05  3.979439  0.0  -0.078969  1.2e-05  4.001184  0.0  -0.001871  -0.059308  6.8e-05  3.965625  0.0
C  C80  1  0.08926169  0.26218161  0.23473837  1  0.08684  -0.000271  3.573472  0.0  0.02966  -0.000147  3.832523  0.0  0.040659  -9.6e-05  3.84578  0.0  0.074264  0.021863  -0.000235  3.825346  0.0
C  C81  1  0.91073287  0.73779068  0.76525478  1  0.08711  -0.000247  3.573487  0.0  0.029714  -0.000147  3.832684  0.0  0.040732  -9.8e-05  3.845981  0.0  0.074315  0.021931  -0.000235  3.825479  0.0
C  C82  1  0.14104049  0.33738428  0.55914620  1  0.632995  -0.000593  3.975553  0.0  0.583193  -0.000203  4.279963  0.0  0.616202  -0.000136  4.275301  0.0  0.195983  0.561085  -0.000223  4.281931  0.0
C  C83  1  0.85897399  0.66261380  0.44084398  1  0.633025  -0.000592  3.975033  0.0  0.5832  -0.000203  4.279444  0.0  0.616228  -0.000137  4.27469  0.0  0.19604  0.561104  -0.000223  4.281391  0.0
C  C84  1  0.13885325  0.07461439  0.23715209  1  0.636284  -0.000207  3.956351  0.0  0.585343  9.4e-05  4.257892  0.0  0.617738  5.4e-05  4.253122  0.0  0.204269  0.563613  0.000161  4.259937  0.0
C  C85  1  0.86114120  0.92535770  0.76285755  1  0.636085  -0.000212  3.956432  0.0  0.58515  9.3e-05  4.257962  0.0  0.617555  5.4e-05  4.253276  0.0  0.20434  0.563417  0.000161  4.26001  0.0
N  N86  1  0.37061821  0.77380349  0.36696807  1  -0.314372  0.081846  3.343385  0.107  -0.26909  0.050991  3.644263  0.071  -0.30432  0.040336  3.667132  0.06  -0.354676  -0.249991  0.057637  3.631219  0.076
N  N87  1  0.62936318  0.22620773  0.63303276  1  -0.314356  0.081844  3.343281  0.107  -0.269151  0.050983  3.644293  0.071  -0.302264  0.040337  3.666475  0.06  -0.354795  -0.250029  0.057629  3.631237  0.076
N  N88  1  0.41595094  0.76987943  0.07132365  1  -0.299357  0.075423  3.317238  0.097  -0.249018  0.04805  3.605364  0.065  -0.283673  0.038293  3.629125  0.056  -0.351478  -0.229965  0.053982  3.591302  0.07
N  N89  1  0.58405070  0.23013478  0.92867511  1  -0.299434  0.075435  3.317272  0.097  -0.249022  0.048055  3.605253  0.065  -0.281741  0.038299  3.628568  0.056  -0.351451  -0.229942  0.053988  3.59117  0.07
N  N90  1  0.06064117  0.35771749  0.28050587  1  0.024286  -2.1e-05  3.586077  0.0  0.117408  -9.6e-05  3.802016  0.0  0.103619  -6.9e-05  3.827758  0.0  -0.207784  0.126209  -0.000115  3.784443  0.0
N  N91  1  0.93936741  0.64226157  0.71948011  1  0.024309  -4.1e-05  3.586408  0.0  0.117468  -9.7e-05  3.802379  0.0  0.10368  -6.6e-05  3.828105  0.0  -0.207777  0.126275  -0.000114  3.784793  0.0
O  O92  1  0.16726948  0.60000000  0.17118767  1  -0.631749  -0.001587  1.962493  0.0  -0.592866  -0.001578  2.199357  0.0  -0.622028  -0.001875  2.186704  0.0  -0.339028  -0.574217  -0.001176  2.206524  0.0
O  O93  1  0.83273576  0.39998758  0.82881625  1  -0.631636  -0.001577  1.962502  0.0  -0.592747  -0.001576  2.199338  0.0  -0.620413  -0.001868  2.187325  0.0  -0.339057  -0.574091  -0.001174  2.206499  0.0
O  O94  1  0.68856851  0.93870696  0.23095922  1  -0.821939  -0.000347  1.770532  0.001  -0.788729  -0.000258  1.934708  0.001  -0.807009  -0.000669  1.905705  0.0  -0.593329  -0.777029  0.000231  1.95498  0.001
O  O95  1  0.31141561  0.06131333  0.76907556  1  -0.822188  -0.000354  1.770683  0.001  -0.789039  -0.000258  1.934689  0.001  -0.80635  -0.00066  1.905659  0.0  -0.59338  -0.777329  0.000232  1.954957  0.001
O  O96  1  0.11708200  0.81460077  0.20024044  1  -0.784988  0.072128  1.927292  0.098  -0.756623  0.051691  2.148246  0.076  -0.793144  0.03924  2.115414  0.062  -0.57061  -0.734187  0.060269  2.170133  0.083
O  O97  1  0.88288472  0.18537774  0.79976890  1  -0.785428  0.072111  1.927027  0.098  -0.757065  0.051685  2.147888  0.076  -0.791687  0.039247  2.11604  0.062  -0.570757  -0.734652  0.060266  2.169768  0.083
O  O98  1  0.37739388  0.49915319  0.23723701  1  -0.644932  6.2e-05  1.969596  0.0  -0.590924  -0.000115  2.189788  0.0  -0.614701  -0.000228  2.179797  0.0  -0.329385  -0.573861  1.3e-05  2.195971  0.0
O  O99  1  0.62262299  0.50085275  0.76277499  1  -0.644855  7e-05  1.969731  0.0  -0.590752  -0.000112  2.189933  0.0  -0.614535  -0.000228  2.17983  0.0  -0.329355  -0.573688  1.3e-05  2.196102  0.0
O  O100  1  0.16705548  0.43472550  0.59169169  1  -0.625206  0.000438  1.901199  0.001  -0.582961  0.000293  2.124765  0.0  -0.606842  0.000146  2.116419  0.0  -0.334218  -0.565808  0.000517  2.129691  0.001
O  O101  1  0.83300721  0.56527460  0.40829498  1  -0.625215  0.000441  1.900945  0.001  -0.582933  0.000294  2.124471  0.0  -0.606795  0.000145  2.11608  0.0  -0.33417  -0.565775  0.000518  2.129387  0.001
O  O102  1  0.62033038  0.68043194  0.22569651  1  -0.810565  0.081125  1.962236  0.111  -0.786135  0.055644  2.184313  0.081  -0.825599  0.041378  2.146899  0.066  -0.580716  -0.761449  0.065736  2.20912  0.091
O  O103  1  0.37966414  0.31957376  0.77430573  1  -0.810728  0.081134  1.962  0.111  -0.786179  0.055641  2.184121  0.081  -0.823772  0.041388  2.147794  0.066  -0.580688  -0.761481  0.065737  2.208927  0.091
O  O104  1  0.14025495  0.26102174  0.61116778  1  -0.630932  0.002796  1.941487  0.004  -0.580813  0.000982  2.158599  0.002  -0.606152  0.000307  2.149435  0.001  -0.333705  -0.562623  0.002014  2.16423  0.003
O  O105  1  0.85972645  0.73898474  0.38883261  1  -0.630954  0.002793  1.941355  0.004  -0.580828  0.000982  2.15847  0.002  -0.606104  0.000308  2.149228  0.001  -0.333786  -0.562645  0.002015  2.16411  0.003
O  O106  1  0.09604506  0.99866924  0.29073191  1  -0.663489  0.002727  2.001636  0.004  -0.599456  0.001159  2.212594  0.002  -0.626472  0.000493  2.201092  0.001  -0.33176  -0.579982  0.002078  2.219556  0.003
O  O107  1  0.90395730  0.00131394  0.70928052  1  -0.663484  0.00273  2.00129  0.004  -0.599545  0.00116  2.212264  0.002  -0.626622  0.000494  2.200852  0.001  -0.331868  -0.580091  0.002081  2.219217  0.003
O  O108  1  0.18900369  0.06742539  0.14861491  1  -0.578693  0.000435  1.872793  0.001  -0.540811  0.00016  2.078459  0.0  -0.562827  7.3e-05  2.072644  0.0  -0.320413  -0.525061  0.000348  2.081799  0.0
O  O109  1  0.81102265  0.93254402  0.85139027  1  -0.57842  0.000437  1.873009  0.001  -0.54056  0.00016  2.078711  0.0  -0.562588  7.3e-05  2.072915  0.0  -0.32035  -0.524819  0.000347  2.082051  0.0
