# generated using pymatgen
data_Zn2H7C36N2Cl17O8
_symmetry_space_group_name_H-M   'P 1'
_cell_length_a   10.90347094
_cell_length_b   16.83311184
_cell_length_c   17.69098385
_cell_angle_alpha   96.54907202
_cell_angle_beta   90.67082436
_cell_angle_gamma   90.42949392
_symmetry_Int_Tables_number   1
_chemical_formula_structural   Zn2H7C36N2Cl17O8
_chemical_formula_sum   'Zn2 H7 C36 N2 Cl17 O8'
_cell_volume   3225.45491800
_cell_formula_units_Z   1
loop_
 _symmetry_equiv_pos_site_id
 _symmetry_equiv_pos_as_xyz
  1  'x, y, z'
loop_
 _atom_site_type_symbol
 _atom_site_label
 _atom_site_symmetry_multiplicity
 _atom_site_fract_x
 _atom_site_fract_y
 _atom_site_fract_z
 _atom_site_occupancy
 _atom_site_pbe_bader_charge
 _atom_site_pbe_bader_spin_density
 _atom_site_pbe_cm5_charge
 _atom_site_pbe_ddec_charge
 _atom_site_pbe_ddec_spin_density
 _atom_site_pbe_ddec_sum_bond_order
 _atom_site_pbe_magmom
Zn  Zn0  1  0.49965364  0.40803915  0.48620836  1  1.309906  0  0.668505  0.896168  0  2.277996  0
Zn  Zn1  1  0.50425671  0.58661833  0.50301065  1  1.330149  0  0.672885  0.904135  0  2.292154  0
H  H2  1  0.50284017  0.00296207  0.60228110  1  0.134489  0  0.100414  0.112166  0  1.019039  0
H  H3  1  0.48719137  0.99048173  0.42744665  1  0.099711  0  0.098695  0.108055  0  1.020148  0
H  H4  1  0.39313086  0.44950081  0.99878749  1  0.119901  0  0.091548  0.102078  0  1.033459  0
H  H5  1  0.60287324  0.57166751  0.99425840  1  0.096363  0  0.091898  0.10176  0  1.027472  0
H  H6  1  0.88549071  0.36358442  0.43975744  1  0.10453  0  0.104919  0.114806  0  0.995961  0
H  H7  1  0.88711039  0.60396455  0.55111785  1  0.142957  0  0.097488  0.11619  0  1.028027  0
H  H8  1  0.11597622  0.36470950  0.44397617  1  0.088488  0  0.101382  0.106406  0  1.00985  0
C  C9  1  0.50324101  0.50842594  0.35005363  1  1.662955  0  0.206838  0.615081  0  4.208024  0
C  C10  1  0.26845686  0.48066611  0.49596157  1  1.591004  0  0.212204  0.609826  0  4.156402  0
C  C11  1  0.49773852  0.51525961  0.64154097  1  1.645036  0  0.206352  0.612607  0  4.213341  0
C  C12  1  0.73550341  0.48462008  0.49315920  1  1.535186  0  0.214958  0.597934  0  4.159874  0
C  C13  1  0.41761926  0.75721579  0.47643377  1  0.693643  0  0.14408  0.229592  0  4.055118  0
C  C14  1  0.41051022  0.84131203  0.48325981  1  0.073418  0  0.01348  0.002458  0  3.996078  0
C  C15  1  0.49159425  0.88762777  0.53326263  1  0.064668  0  0.004575  0.069554  0  3.972182  0
C  C16  1  0.57382162  0.84582936  0.57604372  1  0.087299  0  0.012626  -0.000573  0  4.008307  0
C  C17  1  0.57594955  0.76184494  0.56559554  1  0.717221  0  0.144514  0.23084  0  4.055648  0
C  C18  1  0.49500048  0.97543151  0.54359031  1  0.031981  0  -0.084702  -0.097288  0  3.95391  0
C  C19  1  0.49531575  0.02033241  0.48536499  1  0.010149  0  -0.087321  -0.100567  0  3.964259  0
C  C20  1  0.43468835  0.14530588  0.43503126  1  0.168108  0  0.013018  -0.000283  0  4.002611  0
C  C21  1  0.50113985  0.10765175  0.48988308  1  0.000523  0  0.004181  0.068791  0  3.969148  0
C  C22  1  0.57377705  0.15779298  0.54223216  1  0.199084  0  0.014995  0.003825  0  3.992198  0
C  C23  1  0.57602438  0.24100333  0.53811617  1  0.662256  0  0.145961  0.230857  0  4.050056  0
C  C24  1  0.44207843  0.22853884  0.43481673  1  0.673964  0  0.142687  0.224955  0  4.072748  0
C  C25  1  0.49702989  0.50686517  0.26442194  1  0.107936  0  -0.01838  -0.106636  0  3.953887  0
C  C26  1  0.38353436  0.51263271  0.22797196  1  0.069991  0  0.005088  0.061991  0  4.052504  0
C  C27  1  0.37663319  0.50852383  0.14849514  1  0.077535  0  0.006466  0.04096  0  4.019015  0
C  C28  1  0.48280609  0.49924234  0.10336131  1  0.139635  0  -0.016821  0.023459  0  3.9843  0
C  C29  1  0.59693660  0.49419463  0.14113088  1  0.070487  0  0.008471  0.045365  0  4.004135  0
C  C30  1  0.60329164  0.49774254  0.22092509  1  0.066677  0  0.007266  0.065339  0  4.040325  0
C  C31  1  0.46643191  0.49071996  0.02020646  1  -0.02275  0  -0.100231  -0.110592  0  4.000316  0
C  C32  1  0.52989046  0.53070547  0.97163403  1  -0.044155  0  -0.100175  -0.110628  0  3.998673  0
C  C33  1  0.62234159  0.53127675  0.84483281  1  0.117708  0  0.006723  0.041453  0  4.008217  0
C  C34  1  0.51561971  0.52362052  0.88855581  1  0.066954  0  -0.015663  0.023461  0  3.977692  0
C  C35  1  0.40231261  0.51255569  0.84854600  1  0.117463  0  0.010147  0.047596  0  3.991215  0
C  C36  1  0.39719856  0.50870984  0.76875739  1  0.069895  0  0.007401  0.065952  0  4.043845  0
C  C37  1  0.50371668  0.51673677  0.72706356  1  0.132481  0  -0.018589  -0.106548  0  3.962303  0
C  C38  1  0.61643397  0.52765966  0.76533804  1  0.09111  0  0.005224  0.060138  0  4.052946  0
C  C39  1  0.13119650  0.48434862  0.49908634  1  0.006067  0  -0.017323  -0.080901  0  3.915509  0
C  C40  1  0.87284365  0.48406038  0.49454706  1  0.004071  0  -0.01538  -0.005253  0  3.965775  0
C  C41  1  0.06529260  0.55176333  0.53029950  1  0.051848  0  0.019107  0.140873  0  3.999595  0
C  C42  1  0.93687350  0.41604879  0.46461610  1  -0.146635  0  -0.089442  -0.105749  0  3.986322  0
C  C43  1  0.93738852  0.55154003  0.52734378  1  0.065661  0  -0.09367  -0.164642  0  3.955127  0
C  C44  1  0.06419858  0.41685676  0.46706188  1  0.023598  0  -0.084121  -0.080615  0  3.980838  0
N  N45  1  0.49939238  0.71874589  0.51639527  1  -1.186198  0  -0.29868  -0.280173  0  3.422318  0
N  N46  1  0.51002757  0.27527825  0.48613108  1  -1.209086  0  -0.297784  -0.280184  0  3.423245  0
Cl  Cl47  1  0.67945259  0.71243787  0.61515709  1  -0.098999  0  0.062072  0.00579  0  1.681017  0
Cl  Cl48  1  0.67472257  0.89795858  0.63855848  1  -0.15312  0  0.021336  -0.031797  0  1.569956  0
Cl  Cl49  1  0.32066241  0.70142718  0.41572702  1  -0.098247  0  0.058657  0.003739  0  1.717232  0
Cl  Cl50  1  0.29990564  0.88483442  0.43245512  1  -0.153815  0  0.018304  -0.037266  0  1.609933  0
Cl  Cl51  1  0.66457159  0.11967580  0.60888803  1  -0.153516  0  0.023459  -0.035149  0  1.614483  0
Cl  Cl52  1  0.66656685  0.30074438  0.59991431  1  -0.093218  0  0.059906  0.011243  0  1.63913  0
Cl  Cl53  1  0.34328115  0.08948576  0.36920181  1  -0.157421  0  0.023397  -0.03167  0  1.578426  0
Cl  Cl54  1  0.36538275  0.27340659  0.36703985  1  -0.103878  0  0.063263  0.010661  0  1.615458  0
Cl  Cl55  1  0.74169444  0.48907112  0.26717021  1  -0.171433  0  -0.000507  -0.041362  0  1.529196  0
Cl  Cl56  1  0.72994401  0.47937593  0.09014719  1  -0.185428  0  -0.005342  -0.065196  0  1.585351  0
Cl  Cl57  1  0.25296950  0.52411315  0.28203224  1  -0.17136  0  0.002456  -0.035415  0  1.565212  0
Cl  Cl58  1  0.23615706  0.51634809  0.10455199  1  -0.181916  0  -0.003256  -0.060833  0  1.573453  0
Cl  Cl59  1  0.26594821  0.50766894  0.89594799  1  -0.17682  0  0.001489  -0.05975  0  1.620026  0
Cl  Cl60  1  0.25955300  0.49515189  0.72012766  1  -0.17026  0  0.002797  -0.039785  0  1.567204  0
Cl  Cl61  1  0.76339928  0.54368352  0.88977869  1  -0.180892  0  -0.001442  -0.060497  0  1.569651  0
Cl  Cl62  1  0.74756205  0.53562031  0.71296823  1  -0.183975  0  0.003097  -0.037077  0  1.581206  0
Cl  Cl63  1  0.13569462  0.63646248  0.57696473  1  -0.209123  0  -0.029422  -0.090475  0  1.52329  0
O  O64  1  0.48705785  0.44180665  0.37497510  1  -1.156962  0  -0.313626  -0.557079  0  2.356955  0
O  O65  1  0.52222474  0.57638286  0.38738405  1  -1.154919  0  -0.318001  -0.544769  0  2.337407  0
O  O66  1  0.32623678  0.54527588  0.49066743  1  -1.171051  0  -0.318892  -0.572869  0  2.460619  0
O  O67  1  0.31600205  0.41148792  0.49620990  1  -1.146371  0  -0.324214  -0.552475  0  2.33659  0
O  O68  1  0.48419673  0.58279326  0.61742670  1  -1.142401  0  -0.316304  -0.544162  0  2.347822  0
O  O69  1  0.50851558  0.44769657  0.60331387  1  -1.168774  0  -0.312905  -0.556526  0  2.375372  0
O  O70  1  0.68197252  0.41715039  0.47619492  1  -1.157797  0  -0.32205  -0.555477  0  2.377605  0
O  O71  1  0.68364630  0.55155769  0.50980471  1  -1.171585  0  -0.320091  -0.565844  0  2.396308  0
