# generated using pymatgen
data_Zn2H27C43(N4Cl)2
_symmetry_space_group_name_H-M   'P 1'
_cell_length_a   14.72414068
_cell_length_b   14.95828438
_cell_length_c   15.06803328
_cell_angle_alpha   114.01126174
_cell_angle_beta   102.95627693
_cell_angle_gamma   111.17150216
_symmetry_Int_Tables_number   1
_chemical_formula_structural   Zn2H27C43(N4Cl)2
_chemical_formula_sum   'Zn4 H54 C86 N16 Cl4'
_cell_volume   2544.41494216
_cell_formula_units_Z   2
loop_
 _symmetry_equiv_pos_site_id
 _symmetry_equiv_pos_as_xyz
  1  'x, y, z'
loop_
 _atom_site_type_symbol
 _atom_site_label
 _atom_site_symmetry_multiplicity
 _atom_site_fract_x
 _atom_site_fract_y
 _atom_site_fract_z
 _atom_site_occupancy
 _atom_site_pbe_bader_charge
 _atom_site_pbe_bader_spin_density
 _atom_site_pbe_cm5_charge
 _atom_site_pbe_ddec_charge
 _atom_site_pbe_ddec_spin_density
 _atom_site_pbe_ddec_sum_bond_order
 _atom_site_pbe_magmom
Zn  Zn0  1  0.86107926  0.35374858  0.00321461  1  1.190273  0  0.740924  0.617783  0  2.405624  0
Zn  Zn1  1  0.13444228  0.62974427  0.01230770  1  1.185908  0  0.748403  0.598644  0  2.522583  0
Zn  Zn2  1  0.00575442  0.35702689  0.86919391  1  1.186274  0  0.744869  0.611555  0  2.456881  0
Zn  Zn3  1  0.99379852  0.63615855  0.14813109  1  1.190043  0  0.746873  0.611478  0  2.454704  0
H  H4  1  0.79604885  0.09570891  0.96923011  1  0.076915  0  0.109868  0.098634  0  1.031044  0
H  H5  1  0.52570394  0.85771091  0.92141948  1  0.050309  0  0.091061  0.084054  0  1.040229  0
H  H6  1  0.84170614  0.39941464  0.32406654  1  0.099721  0  0.10498  0.110416  0  0.986169  0
H  H7  1  0.40140679  0.67105962  0.75066831  1  0.06827  0  0.099955  0.105546  0  1.009538  0
H  H8  1  0.98387498  0.18867273  0.28871566  1  0.057715  0  0.086087  0.084631  0  1.071975  0
H  H9  1  0.17465512  0.78080350  0.68792673  1  0.057844  0  0.0975  0.100193  0  1.004661  0
H  H10  1  0.81029051  0.02095266  0.13808868  1  0.039892  0  0.091494  0.083744  0  1.041716  0
H  H11  1  0.29746140  0.96757578  0.86041966  1  0.07592  0  0.092415  0.09265  0  1.02928  0
H  H12  1  0.98912692  0.34128834  0.51022931  1  0.019182  0  0.092875  0.090881  0  1.054001  0
H  H13  1  0.23901783  0.66414556  0.50762728  1  0.066898  0  0.099492  0.105628  0  1.006371  0
H  H14  1  0.96281080  0.87336064  0.65062975  1  0.072569  0  0.097789  0.102978  0  1.01181  0
H  H15  1  0.00286819  0.64944792  0.82826306  1  0.117853  0  0.115378  0.103889  0  1.010012  0
H  H16  1  0.72601020  0.84730561  0.02886546  1  0.042554  0  0.097296  0.095129  0  1.035478  0
H  H17  1  0.43174920  0.43258415  0.26505205  1  0.063274  0  0.093657  0.082272  0  1.00148  0
H  H18  1  0.57083194  0.55444536  0.04316905  1  0.052416  0  0.085972  0.073412  0  1.03823  0
H  H19  1  0.34979122  0.88476369  0.17607181  1  0.066595  0  0.117663  0.106931  0  0.998061  0
H  H20  1  0.63986301  0.29429305  0.82161028  1  0.090535  0  0.114172  0.103348  0  1.000323  0
H  H21  1  0.03010785  0.12031401  0.41821183  1  0.061471  0  0.098772  0.108565  0  1.034647  0
H  H22  1  0.90915865  0.01221023  0.47347487  1  0.08293  0  0.099487  0.110164  0  1.014343  0
H  H23  1  0.26871010  0.09093680  0.30767213  1  0.105077  0  0.10711  0.122546  0  1.003365  0
H  H24  1  0.64359878  0.98382691  0.55818678  1  0.100765  0  0.110723  0.130946  0  0.977705  0
H  H25  1  0.33131928  0.19540390  0.63772454  1  0.077753  0  0.098522  0.099309  0  1.01386  0
H  H26  1  0.11806273  0.97804674  0.62347827  1  0.045857  0  0.099255  0.097865  0  1.003148  0
H  H27  1  0.75730552  0.20397991  0.44327293  1  0.056951  0  0.105169  0.112173  0  0.992409  0
H  H28  1  0.15420731  0.18693631  0.60325476  1  0.064811  0  0.100439  0.097406  0  1.003579  0
H  H29  1  0.89614550  0.15081602  0.42601410  1  0.061071  0  0.095754  0.08879  0  1.04753  0
H  H30  1  0.51594980  0.29000949  0.64480250  1  0.075816  0  0.093464  0.096969  0  1.038543  0
H  H31  1  0.49759095  0.96340170  0.35199789  1  0.064574  0  0.097979  0.1008  0  1.015061  0
H  H32  1  0.01611310  0.81151982  0.84603989  1  0.0568  0  0.098195  0.103453  0  1.014287  0
H  H33  1  0.72064837  0.88809977  0.86384664  1  0.050975  0  0.097862  0.103402  0  1.012644  0
H  H34  1  0.36558823  0.36365330  0.96444358  1  0.060796  0  0.086673  0.071874  0  1.024672  0
H  H35  1  0.63444212  0.62527369  0.34325683  1  0.063601  0  0.084277  0.069886  0  1.028155  0
H  H36  1  0.46944787  0.30188358  0.09576144  1  0.028586  0  0.086485  0.069259  0  1.014664  0
H  H37  1  0.55720785  0.74169453  0.03815283  1  0.0368  0  0.1034  0.100645  0  0.992725  0
H  H38  1  0.53309342  0.68653606  0.21435970  1  0.023211  0  0.087346  0.070742  0  1.012407  0
H  H39  1  0.17123324  0.30902546  0.99485785  1  0.129829  0  0.10613  0.096133  0  1.045202  0
H  H40  1  0.82211401  0.67680788  0.24689819  1  0.069131  0  0.114947  0.104258  0  0.999066  0
H  H41  1  0.14929496  0.67953722  0.36194251  1  0.091493  0  0.11278  0.098728  0  1.012247  0
H  H42  1  0.04456529  0.32145918  0.64818553  1  0.100136  0  0.109388  0.096262  0  1.029966  0
H  H43  1  0.34873045  0.67728989  0.18937086  1  0.083582  0  0.111291  0.097086  0  1.022207  0
H  H44  1  0.64113339  0.30943809  0.04920282  1  0.078044  0  0.111858  0.09747  0  1.016644  0
H  H45  1  0.98177224  0.31164031  0.16848887  1  0.117672  0  0.113443  0.104318  0  1.025876  0
H  H46  1  0.21687627  0.68906855  0.84677791  1  0.138934  0  0.112303  0.102914  0  1.036721  0
H  H47  1  0.17806708  0.89819239  0.37525400  1  0.062422  0  0.11631  0.107881  0  0.996548  0
H  H48  1  0.30293515  0.20531839  0.96882738  1  0.099536  0  0.101255  0.110205  0  1.050688  0
H  H49  1  0.84906672  0.32424957  0.66094178  1  0.106852  0  0.110951  0.099063  0  1.03268  0
H  H50  1  0.97044409  0.09867446  0.77318012  1  0.072373  0  0.107321  0.097097  0  1.038171  0
H  H51  1  0.82173252  0.68237363  0.01862114  1  0.091128  0  0.112455  0.102193  0  1.017912  0
H  H52  1  0.28941470  0.14541176  0.78389812  1  0.046112  0  0.100965  0.097433  0  0.999741  0
H  H53  1  0.41973126  0.54228960  0.88573574  1  0.092149  0  0.108106  0.110031  0  0.97882  0
H  H54  1  0.45539591  0.45021909  0.72842497  1  0.087219  0  0.101524  0.112153  0  1.00837  0
H  H55  1  0.64934489  0.04081292  0.08011038  1  0.036337  0  0.094064  0.090254  0  1.035354  0
H  H56  1  0.47359202  0.00655866  0.97921465  1  0.062257  0  0.093736  0.090205  0  1.015389  0
H  H57  1  0.66634985  0.23150229  0.17451455  1  0.061616  0  0.09619  0.089299  0  1.013982  0
C  C58  1  0.83881611  0.11243016  0.92256222  1  0.404058  0  0.004227  -0.052202  0  3.980916  0
C  C59  1  0.78730058  0.87255104  0.86172785  1  -0.027881  0  -0.093939  -0.177726  0  3.960026  0
C  C60  1  0.12478720  0.00540078  0.70486713  1  -0.036228  0  -0.100209  -0.098895  0  4.048096  0
C  C61  1  0.57145277  0.70067513  0.96853075  1  -0.009778  0  -0.096309  -0.095709  0  4.048679  0
C  C62  1  0.03776925  0.94657812  0.72005749  1  -0.011356  0  -0.090147  -0.123528  0  3.986124  0
C  C63  1  0.66604221  0.75985167  0.96343298  1  -0.029523  0  -0.091724  -0.129253  0  3.996505  0
C  C64  1  0.73577184  0.22143206  0.19897866  1  -0.029466  0  -0.098331  -0.088916  0  4.052996  0
C  C65  1  0.44876571  0.84169673  0.87081515  1  -0.028761  0  -0.100674  -0.090891  0  4.050495  0
C  C66  1  0.83408412  0.31596544  0.28372805  1  -0.124725  0  -0.088299  -0.130473  0  3.963817  0
C  C67  1  0.37912398  0.73640018  0.77406105  1  -0.065908  0  -0.090285  -0.129983  0  3.966218  0
C  C68  1  0.92413071  0.30471803  0.31747245  1  0.00667  0  -0.003961  0.083444  0  3.996198  0
C  C69  1  0.96654691  0.65144174  0.88382828  1  0.359008  0  0.008933  -0.041214  0  3.951978  0
C  C70  1  0.27970011  0.71352960  0.70758873  1  -0.013  0  -0.005827  0.078642  0  3.996336  0
C  C71  1  0.91372783  0.19751796  0.26433987  1  -0.083167  0  -0.099663  -0.146208  0  3.994102  0
C  C72  1  0.25222376  0.79861198  0.73940915  1  -0.06312  0  -0.094769  -0.142837  0  3.981069  0
C  C73  1  0.29288425  0.87029653  0.21079238  1  0.444398  0  0.003063  -0.067246  0  4.011911  0
C  C74  1  0.70592188  0.31034296  0.79829449  1  0.379976  0  0.006775  -0.048022  0  3.957674  0
C  C75  1  0.81575078  0.10319017  0.17886749  1  0.00523  0  -0.099063  -0.083073  0  4.04687  0
C  C76  1  0.32116353  0.90337700  0.83669485  1  -0.039088  0  -0.101033  -0.084194  0  4.040651  0
C  C77  1  0.72624724  0.11465220  0.14614006  1  -0.07877  0  -0.103742  -0.10791  0  4.049474  0
C  C78  1  0.41969494  0.92494282  0.90286065  1  -0.118708  0  -0.105372  -0.109076  0  4.054886  0
C  C79  1  0.04726814  0.41095545  0.50950270  1  -0.041817  0  -0.098967  -0.185213  0  3.993211  0
C  C80  1  0.30568504  0.93758705  0.31519068  1  -0.013601  0  -0.037717  -0.037589  0  4.103828  0
C  C81  1  0.18373951  0.59176370  0.50726746  1  -0.064485  0  -0.094143  -0.183475  0  3.976449  0
C  C82  1  0.13143064  0.50762041  0.60844872  1  0.014981  0  -0.012048  0.044515  0  4.026057  0
C  C83  1  0.09882050  0.49519391  0.40844986  1  0.011329  0  -0.006979  0.051019  0  4.024482  0
C  C84  1  0.19932476  0.60129144  0.60642077  1  -0.011832  0  -0.010558  0.021199  0  3.984713  0
C  C85  1  0.02730524  0.40415952  0.41159703  1  -0.013012  0  -0.011885  0.021855  0  3.982426  0
C  C86  1  0.04310991  0.98056934  0.82358333  1  0.033064  0  -0.006813  0.023822  0  3.981038  0
C  C87  1  0.68792862  0.71035801  0.87543249  1  -0.020804  0  -0.009447  0.018715  0  3.981272  0
C  C88  1  0.22861043  0.13346429  0.89825700  1  0.011678  0  -0.102662  -0.166776  0  4.032009  0
C  C89  1  0.51483200  0.53684865  0.79585143  1  -0.03479  0  -0.09927  -0.158759  0  4.012075  0
C  C90  1  0.14380118  0.10243783  0.35353638  1  -0.046475  0  0.008913  0.151835  0  4.075318  0
C  C91  1  0.70286978  0.28433426  0.69626041  1  0.011761  0  -0.039499  -0.042505  0  4.069299  0
C  C92  1  0.77693159  0.99082467  0.51841888  1  0.010846  0  0.010693  0.159873  0  4.074112  0
C  C93  1  0.24500177  0.11258752  0.37340480  1  0.036704  0  -0.091751  -0.195831  0  3.955941  0
C  C94  1  0.69946766  0.02153844  0.53018122  1  0.023701  0  -0.091064  -0.200433  0  3.933278  0
C  C95  1  0.31303030  0.14331477  0.47539621  1  -0.024731  0  -0.003258  0.09596  0  3.99113  0
C  C96  1  0.69225873  0.09923170  0.50376505  1  -0.020732  0  0.00187  0.103702  0  3.999122  0
C  C97  1  0.19960085  0.39934922  0.03489636  1  0.392813  0  0.002162  -0.048953  0  3.968356  0
C  C98  1  0.79265437  0.58674408  0.19548735  1  0.363106  0  -0.000996  -0.065884  0  4.023979  0
C  C99  1  0.27980636  0.17197985  0.55829275  1  -0.074128  0  -0.098633  -0.152431  0  3.988001  0
C  C100  1  0.76388331  0.14543654  0.46630507  1  -0.007416  0  -0.093195  -0.146912  0  3.971852  0
C  C101  1  0.17956094  0.16569534  0.53842170  1  -0.038079  0  -0.095542  -0.069787  0  4.049304  0
C  C102  1  0.30283915  0.49327809  0.11332233  1  -0.05009  0  -0.041398  -0.049134  0  4.068418  0
C  C103  1  0.84215395  0.11528589  0.45676014  1  -0.065492  0  -0.094689  -0.068994  0  4.046758  0
C  C104  1  0.10970256  0.12899869  0.43539166  1  0.032093  0  -0.10476  -0.171405  0  4.010682  0
C  C105  1  0.84965310  0.03781638  0.48274570  1  -0.025757  0  -0.107931  -0.17877  0  4.014021  0
C  C106  1  0.51101888  0.21693671  0.58028965  1  -0.076023  0  -0.094615  -0.18281  0  3.966218  0
C  C107  1  0.50179210  0.03711253  0.41486986  1  -0.027576  0  -0.094882  -0.182171  0  3.998078  0
C  C108  1  0.60579899  0.21046907  0.59253107  1  0.067339  0  -0.004723  0.052518  0  3.998138  0
C  C109  1  0.40606958  0.03921381  0.40592004  1  -0.045117  0  -0.01002  0.04607  0  4.018559  0
C  C110  1  0.60080166  0.12035462  0.50463225  1  -0.051269  0  -0.007927  0.023181  0  3.96799  0
C  C111  1  0.41194356  0.13472443  0.48842682  1  0.000224  0  -0.011099  0.019379  0  3.968752  0
C  C112  1  0.22038221  0.09912337  0.79435877  1  -0.067542  0  -0.094562  -0.07849  0  4.045485  0
C  C113  1  0.69250190  0.49269224  0.15934281  1  0.027607  0  -0.043121  -0.047318  0  4.111115  0
C  C114  1  0.49498300  0.58894762  0.88375632  1  -0.056943  0  -0.087959  -0.068387  0  4.025152  0
C  C115  1  0.78391180  0.78067461  0.86814099  1  -0.018663  0  -0.015896  0.021906  0  3.996135  0
C  C116  1  0.95049597  0.91508322  0.83824976  1  0.009282  0  -0.016457  0.0234  0  4.001618  0
C  C117  1  0.14041977  0.07485544  0.91223611  1  -0.046856  0  0.013977  0.100006  0  4.021604  0
C  C118  1  0.61066711  0.59677809  0.79228513  1  0.081503  0  0.016179  0.107091  0  4.010482  0
C  C119  1  0.87013618  0.75971631  0.86742488  1  0.000117  0  -0.009122  0.047582  0  4.027058  0
C  C120  1  0.87136379  0.94476511  0.85149678  1  0.01674  0  -0.011659  0.045108  0  4.0261  0
C  C121  1  0.10303848  0.58961756  0.29932304  1  0.395144  0  0.003147  -0.055062  0  3.973395  0
C  C122  1  0.08509353  0.41077259  0.71113414  1  0.375387  0  0.001364  -0.059766  0  4.000709  0
C  C123  1  0.48255037  0.38711241  0.12068695  1  -0.044765  0  -0.089549  -0.096621  0  3.675552  0
C  C124  1  0.07841330  0.49474791  0.30874415  1  -0.026342  0  -0.038577  -0.040727  0  4.078913  0
C  C125  1  0.51848314  0.60051606  0.18688634  1  -0.031585  0  -0.087317  -0.089165  0  3.668743  0
C  C126  1  0.42708285  0.42094556  0.04844417  1  -0.078403  0  -0.08946  -0.097039  0  3.671171  0
C  C127  1  0.57443408  0.56664412  0.25870099  1  -0.039524  0  -0.084154  -0.08425  0  3.647764  0
C  C128  1  0.40533518  0.49381095  0.14205337  1  0.038181  0  -0.001252  0.087807  0  3.684374  0
C  C129  1  0.59448023  0.49342287  0.16339620  1  0.031686  0  -0.004643  0.083341  0  3.719973  0
C  C130  1  0.46236557  0.45976934  0.21529412  1  -0.044104  0  -0.079938  -0.084134  0  3.631798  0
C  C131  1  0.53756120  0.52794177  0.09194531  1  -0.035897  0  -0.087584  -0.088831  0  3.663166  0
C  C132  1  0.28982096  0.58722875  0.13404999  1  0.412144  0  -0.000208  -0.059164  0  3.995881  0
C  C133  1  0.70047155  0.39962807  0.09463846  1  0.386428  0  -0.003255  -0.070926  0  4.029304  0
C  C134  1  0.01637925  0.40187768  0.20094329  1  0.39234  0  0.008169  -0.04127  0  3.947682  0
C  C135  1  0.13489937  0.50770214  0.70627637  1  0.018688  0  -0.039046  -0.039572  0  4.084397  0
C  C136  1  0.17359918  0.59812750  0.81217884  1  0.357646  0  0.003308  -0.057821  0  3.993238  0
C  C137  1  0.20500723  0.87743227  0.31203226  1  0.450353  0  0.006405  -0.052946  0  3.990573  0
C  C138  1  0.81202195  0.32381658  0.71547617  1  0.413311  0  0.006156  -0.044237  0  3.963034  0
C  C139  1  0.92957479  0.11460644  0.82433005  1  0.432418  0  0.001189  -0.054239  0  4.004303  0
C  C140  1  0.87318364  0.66701505  0.98008305  1  0.400029  0  0.007435  -0.044026  0  3.948405  0
C  C141  1  0.87808821  0.04899937  0.86233979  1  0.025495  0  -0.042212  -0.045767  0  4.089952  0
C  C142  1  0.89271552  0.68789025  0.90109446  1  0.052975  0  -0.039068  -0.041524  0  4.069169  0
C  C143  1  0.94849399  0.82537374  0.84716364  1  -0.053601  0  -0.094328  -0.176933  0  3.974883  0
N  N144  1  0.86511309  0.20742278  0.92057100  1  -0.771906  0  -0.267662  -0.17318  0  3.524111  0
N  N145  1  0.79769773  0.43554682  0.09225320  1  -0.77803  0  -0.270829  -0.175416  0  3.541221  0
N  N146  1  0.00274594  0.43945606  0.13429675  1  -0.787561  0  -0.282415  -0.182354  0  3.604391  0
N  N147  1  0.14746628  0.55765829  0.87337296  1  -0.818325  0  -0.279087  -0.174763  0  3.564916  0
N  N148  1  0.13822978  0.78226561  0.21350401  1  -0.804252  0  -0.267071  -0.172179  0  3.535574  0
N  N149  1  0.87337122  0.36676149  0.81945826  1  -0.792918  0  -0.282513  -0.180776  0  3.624413  0
N  N150  1  0.92135060  0.20829116  0.85900497  1  -0.808886  0  -0.275403  -0.174098  0  3.542121  0
N  N151  1  0.93355202  0.62504902  0.00873657  1  -0.791824  0  -0.282831  -0.18178  0  3.615137  0
N  N152  1  0.99073280  0.61545485  0.94941305  1  -0.772626  0  -0.281966  -0.180002  0  3.632733  0
N  N153  1  0.19290418  0.77820748  0.15055658  1  -0.787868  0  -0.277372  -0.16825  0  3.569394  0
N  N154  1  0.80827991  0.35819193  0.87056151  1  -0.783656  0  -0.278942  -0.178454  0  3.604894  0
N  N155  1  0.13225357  0.43599611  0.01024260  1  -0.803381  0  -0.285076  -0.181454  0  3.647616  0
N  N156  1  0.85472450  0.55202813  0.15504987  1  -0.796953  0  -0.274225  -0.175562  0  3.580001  0
N  N157  1  0.05609639  0.55498334  0.19485496  1  -0.75832  0  -0.284045  -0.182989  0  3.626535  0
N  N158  1  0.09255560  0.44100383  0.81076166  1  -0.768518  0  -0.272127  -0.177548  0  3.538714  0
N  N159  1  0.18736711  0.55126115  0.07103977  1  -0.770745  0  -0.287969  -0.183033  0  3.645493  0
Cl  Cl160  1  0.15275207  0.12061579  0.04235681  1  -0.214055  0  -0.010327  -0.087526  0  1.522477  0
Cl  Cl161  1  0.63007185  0.52936710  0.67989005  1  -0.218282  0  -0.007943  -0.084312  0  1.497273  0
Cl  Cl162  1  0.05739144  0.04910428  0.22234802  1  -0.226869  0  0.001147  -0.07274  0  1.512305  0
Cl  Cl163  1  0.77965922  0.88895582  0.54485107  1  -0.23017  0  -0.00278  -0.093725  0  1.497303  0
