# generated using pymatgen
data_TbH22C31N2O7F3
_symmetry_space_group_name_H-M   'P 1'
_cell_length_a   9.58638956
_cell_length_b   12.74247597
_cell_length_c   13.09561010
_cell_angle_alpha   113.79662256
_cell_angle_beta   104.62869749
_cell_angle_gamma   97.05529747
_symmetry_Int_Tables_number   1
_chemical_formula_structural   TbH22C31N2O7F3
_chemical_formula_sum   'Tb2 H44 C62 N4 O14 F6'
_cell_volume   1369.84996553
_cell_formula_units_Z   2
loop_
 _symmetry_equiv_pos_site_id
 _symmetry_equiv_pos_as_xyz
  1  'x, y, z'
loop_
 _atom_site_type_symbol
 _atom_site_label
 _atom_site_symmetry_multiplicity
 _atom_site_fract_x
 _atom_site_fract_y
 _atom_site_fract_z
 _atom_site_occupancy
 _atom_site_hle17_bader_spin_density
 _atom_site_hle17_ddec_charge
 _atom_site_hle17_ddec_spin_density
 _atom_site_hle17_ddec_sum_bond_order
 _atom_site_hle17_magmom
 _atom_site_hse06_10hf_bader_spin_density
 _atom_site_hse06_10hf_ddec_charge
 _atom_site_hse06_10hf_ddec_spin_density
 _atom_site_hse06_10hf_ddec_sum_bond_order
 _atom_site_hse06_10hf_magmom
 _atom_site_hse06_bader_spin_density
 _atom_site_hse06_ddec_charge
 _atom_site_hse06_ddec_spin_density
 _atom_site_hse06_ddec_sum_bond_order
 _atom_site_hse06_magmom
 _atom_site_pbe_bader_spin_density
 _atom_site_pbe_cm5_charge
 _atom_site_pbe_ddec_charge
 _atom_site_pbe_ddec_spin_density
 _atom_site_pbe_ddec_sum_bond_order
 _atom_site_pbe_magmom
Tb  Tb0  1  0.23858707  0.53690199  0.52434777  1  0  2.299713  0  1.666083  0  0  2.218499  0  2.01532  0  0  2.266398  0  1.97007  0  0  1.507493  2.115179  0  2.176922  0
Tb  Tb1  1  0.76142129  0.46309789  0.47565519  1  0  2.299673  0  1.666127  0  0  2.218455  0  2.015379  0  0  2.266357  0  1.97013  0  0  1.507471  2.11516  0  2.176952  0
H  H2  1  0.37260746  0.36867190  0.35840072  1  0  0.424855  0  0.855535  0  0  0.395619  0  0.929137  0  0  0.403948  0  0.917058  0  0  0.30974  0.38955  0  0.93764  0
H  H3  1  0.62739036  0.63132532  0.64160155  1  0  0.424821  0  0.855457  0  0  0.395606  0  0.929114  0  0  0.403934  0  0.917038  0  0  0.309751  0.389538  0  0.937582  0
H  H4  1  0.19634218  0.30557660  0.29488114  1  0  0.403793  0  0.907055  0  0  0.361044  0  0.990636  0  0  0.3727  0  0.974003  0  0  0.283978  0.352319  0  1.002965  0
H  H5  1  0.80365243  0.69442414  0.70512036  1  0  0.403803  0  0.90703  0  0  0.361053  0  0.990617  0  0  0.372707  0  0.973988  0  0  0.28399  0.352331  0  1.002942  0
H  H6  1  0.10296707  0.67770656  0.28892540  1  0  0.108871  0  0.954839  0  0  0.112711  0  1.021591  0  0  0.116547  0  1.018648  0  0  0.10632  0.109921  0  1.02378  0
H  H7  1  0.89703404  0.32229762  0.71106641  1  0  0.108862  0  0.9548  0  0  0.112712  0  1.021512  0  0  0.116542  0  1.018588  0  0  0.106313  0.109929  0  1.023689  0
H  H8  1  0.07428724  0.74853068  0.13388219  1  0  0.085087  0  0.953564  0  0  0.094775  0  1.016692  0  0  0.09773  0  1.016001  0  0  0.09492  0.092708  0  1.017145  0
H  H9  1  0.92570004  0.25146727  0.86610542  1  0  0.085148  0  0.953654  0  0  0.094903  0  1.016687  0  0  0.097858  0  1.015997  0  0  0.094972  0.092824  0  1.017154  0
H  H10  1  0.86422023  0.63447451  0.94073282  1  0  0.094483  0  0.94031  0  0  0.105545  0  0.997765  0  0  0.108801  0  0.995799  0  0  0.103643  0.103035  0  0.999554  0
H  H11  1  0.13577095  0.36550845  0.05925662  1  0  0.094504  0  0.940275  0  0  0.105551  0  0.997734  0  0  0.108799  0  0.995775  0  0  0.103612  0.103001  0  0.999567  0
H  H12  1  0.68547323  0.45467718  0.90823767  1  0  0.116131  0  0.974184  0  0  0.124245  0  1.037445  0  0  0.126309  0  1.038788  0  0  0.102073  0.122843  0  1.036431  0
H  H13  1  0.31452767  0.54530586  0.09175818  1  0  0.116048  0  0.974201  0  0  0.124186  0  1.037457  0  0  0.126254  0  1.038792  0  0  0.102003  0.122785  0  1.036444  0
H  H14  1  0.23449282  0.25207529  0.50008784  1  0  0.099124  0  0.984012  0  0  0.105092  0  1.051664  0  0  0.107953  0  1.049928  0  0  0.107597  0.103198  0  1.052426  0
H  H15  1  0.76551083  0.74793704  0.49992437  1  0  0.099068  0  0.984091  0  0  0.105006  0  1.05175  0  0  0.107859  0  1.050023  0  0  0.107577  0.103126  0  1.0525  0
H  H16  1  0.32410115  0.06978979  0.47652194  1  0  0.090315  0  0.962246  0  0  0.097603  0  1.027805  0  0  0.100535  0  1.026933  0  0  0.094113  0.095374  0  1.028776  0
H  H17  1  0.67590301  0.93022068  0.52348126  1  0  0.090365  0  0.962207  0  0  0.097652  0  1.027767  0  0  0.100571  0  1.02691  0  0  0.094111  0.095425  0  1.02874  0
H  H18  1  0.13828490  0.87364180  0.37670931  1  0  0.091875  0  0.973897  0  0  0.096951  0  1.042157  0  0  0.099886  0  1.039936  0  0  0.097754  0.094671  0  1.044005  0
H  H19  1  0.86172324  0.12636421  0.62328832  1  0  0.091826  0  0.973947  0  0  0.096907  0  1.042206  0  0  0.099844  0  1.039981  0  0  0.097743  0.094627  0  1.044057  0
H  H20  1  0.86648026  0.86181414  0.30352291  1  0  0.114512  0  0.96133  0  0  0.123179  0  1.025685  0  0  0.125618  0  1.026417  0  0  0.101703  0.121458  0  1.025241  0
H  H21  1  0.13352574  0.13819190  0.69647816  1  0  0.114553  0  0.961278  0  0  0.123257  0  1.02558  0  0  0.1257  0  1.026312  0  0  0.101718  0.121539  0  1.025133  0
H  H22  1  0.63977671  0.57837385  0.25361487  1  0  0.112279  0  0.963686  0  0  0.116378  0  1.032829  0  0  0.120047  0  1.030094  0  0  0.110423  0.113597  0  1.034989  0
H  H23  1  0.36023245  0.42162515  0.74638789  1  0  0.112356  0  0.963662  0  0  0.11647  0  1.032782  0  0  0.120128  0  1.030071  0  0  0.110457  0.113691  0  1.034931  0
H  H24  1  0.65630479  0.68205983  0.12979254  1  0  0.085735  0  0.975297  0  0  0.094112  0  1.041823  0  0  0.096332  0  1.042431  0  0  0.094946  0.092764  0  1.041052  0
H  H25  1  0.34370053  0.31793378  0.87020210  1  0  0.08579  0  0.975307  0  0  0.094152  0  1.041843  0  0  0.096374  0  1.042445  0  0  0.094938  0.092802  0  1.041076  0
H  H26  1  0.52813668  0.84541185  0.14739394  1  0  0.087352  0  0.947854  0  0  0.093916  0  1.01599  0  0  0.097499  0  1.012794  0  0  0.099761  0.091284  0  1.018422  0
H  H27  1  0.47185945  0.15457997  0.85259830  1  0  0.087384  0  0.947833  0  0  0.093909  0  1.016004  0  0  0.097489  0  1.012813  0  0  0.099767  0.091276  0  1.018435  0
H  H28  1  0.38308396  0.90028459  0.28833636  1  0  0.113321  0  0.952874  0  0  0.123524  0  1.014477  0  0  0.127066  0  1.012941  0  0  0.10446  0.120899  0  1.015908  0
H  H29  1  0.61691381  0.09970902  0.71165840  1  0  0.113417  0  0.952906  0  0  0.123596  0  1.014503  0  0  0.127137  0  1.012967  0  0  0.10449  0.120972  0  1.01594  0
H  H30  1  0.46742097  0.62049121  0.81587262  1  0  0.085412  0  0.948654  0  0  0.090373  0  1.017269  0  0  0.093152  0  1.01408  0  0  0.118343  0.088195  0  1.019893  0
H  H31  1  0.53257848  0.37950774  0.18412603  1  0  0.085378  0  0.948667  0  0  0.090324  0  1.017287  0  0  0.093103  0  1.014101  0  0  0.118335  0.088146  0  1.019916  0
H  H32  1  0.66148129  0.78290656  0.99612096  1  0  0.100098  0  0.959021  0  0  0.113761  0  1.017341  0  0  0.116197  0  1.01751  0  0  0.1053  0.111928  0  1.017671  0
H  H33  1  0.33851656  0.21709417  0.00387961  1  0  0.100122  0  0.95904  0  0  0.113789  0  1.017354  0  0  0.116225  0  1.01752  0  0  0.10531  0.111966  0  1.017677  0
H  H34  1  0.62522508  0.99872483  0.81200170  1  0  0.09125  0  0.977418  0  0  0.103032  0  1.040353  0  0  0.105326  0  1.040375  0  0  0.101274  0.101261  0  1.04075  0
H  H35  1  0.37476626  0.00127234  0.18799706  1  0  0.091263  0  0.977405  0  0  0.103113  0  1.040234  0  0  0.105402  0  1.040267  0  0  0.101318  0.10131  0  1.040663  0
H  H36  1  0.43146269  0.82674062  0.64029938  1  0  0.099427  0  0.941252  0  0  0.100979  0  1.01186  0  0  0.104746  0  1.007285  0  0  0.121119  0.098008  0  1.015584  0
H  H37  1  0.56853052  0.17325564  0.35969555  1  0  0.099469  0  0.941207  0  0  0.10101  0  1.011832  0  0  0.104786  0  1.007255  0  0  0.121126  0.098043  0  1.015562  0
H  H38  1  0.93981973  0.30038399  0.14457729  1  0  0.076628  0  0.953826  0  0  0.086575  0  1.016801  0  0  0.088321  0  1.015381  0  0  0.115718  0.085025  0  1.01838  0
H  H39  1  0.06016813  0.69961584  0.85542184  1  0  0.076669  0  0.95375  0  0  0.086596  0  1.016761  0  0  0.088343  0  1.015334  0  0  0.115725  0.085043  0  1.018347  0
H  H40  1  0.70964607  0.14933209  0.99624181  1  0  0.103921  0  0.963523  0  0  0.111258  0  1.030357  0  0  0.114216  0  1.029761  0  0  0.103836  0.109053  0  1.030974  0
H  H41  1  0.29034366  0.85066680  0.00375197  1  0  0.103961  0  0.963563  0  0  0.111246  0  1.030456  0  0  0.114208  0  1.029855  0  0  0.103817  0.109042  0  1.031068  0
H  H42  1  0.90212080  0.88744155  0.07096007  1  0  0.099918  0  0.95612  0  0  0.111173  0  1.019376  0  0  0.113523  0  1.019615  0  0  0.104672  0.109405  0  1.019459  0
H  H43  1  0.09787297  0.11255648  0.92903642  1  0  0.099885  0  0.956166  0  0  0.111174  0  1.01939  0  0  0.113502  0  1.01965  0  0  0.104683  0.109408  0  1.019471  0
H  H44  1  0.12150603  0.05135625  0.21952246  1  0  0.060669  0  0.966396  0  0  0.070131  0  1.032882  0  0  0.071264  0  1.033471  0  0  0.106253  0.069307  0  1.032409  0
H  H45  1  0.87848803  0.94864272  0.78047902  1  0  0.060625  0  0.966414  0  0  0.070106  0  1.032859  0  0  0.071237  0  1.033446  0  0  0.106239  0.069274  0  1.032412  0
C  C46  1  0.93225901  0.49899791  0.29000718  1  0  0.722797  0  3.878464  0  0  0.676691  0  4.178458  0  0  0.712477  0  4.165481  0  0  0.227498  0.65167  0  4.183012  0
C  C47  1  0.06775130  0.50100816  0.70999623  1  0  0.723089  0  3.877943  0  0  0.67687  0  4.178184  0  0  0.712658  0  4.165205  0  0  0.227507  0.651842  0  4.182742  0
C  C48  1  0.90917669  0.53321511  0.19009591  1  0  -0.171082  0  3.722929  0  0  -0.157658  0  3.961794  0  0  -0.167117  0  3.982086  0  0  -0.024126  -0.152253  0  3.950065  0
C  C49  1  0.09082520  0.46678473  0.80990277  1  0  -0.171159  0  3.722946  0  0  -0.157836  0  3.961974  0  0  -0.167295  0  3.982266  0  0  -0.02413  -0.152418  0  3.950238  0
C  C50  1  0.01016899  0.63263279  0.20582736  1  0  -0.044523  0  3.717753  0  0  -0.065507  0  3.967465  0  0  -0.06479  0  3.987868  0  0  -0.079807  -0.065852  0  3.95381  0
C  C51  1  0.98983261  0.36736612  0.79416709  1  0  -0.044291  0  3.717721  0  0  -0.065217  0  3.96742  0  0  -0.064502  0  3.987819  0  0  -0.07971  -0.065567  0  3.953758  0
C  C52  1  0.99394572  0.67079796  0.11864900  1  0  -0.097276  0  3.797587  0  0  -0.11753  0  4.063543  0  0  -0.121283  0  4.08545  0  0  -0.102957  -0.115023  0  4.048188  0
C  C53  1  0.00604965  0.32919829  0.88134480  1  0  -0.097569  0  3.79788  0  0  -0.117902  0  4.063852  0  0  -0.121654  0  4.085755  0  0  -0.103058  -0.115378  0  4.048478  0
C  C54  1  0.87677322  0.60772549  0.01116653  1  0  -0.04131  0  3.773644  0  0  -0.057532  0  4.031315  0  0  -0.056402  0  4.050155  0  0  -0.087799  -0.057956  0  4.018344  0
C  C55  1  0.12322343  0.39226458  0.98882743  1  0  -0.041387  0  3.77353  0  0  -0.057586  0  4.031214  0  0  -0.056448  0  4.050057  0  0  -0.087817  -0.057975  0  4.018239  0
C  C56  1  0.77589686  0.50727896  0.99186423  1  0  -0.191783  0  3.768492  0  0  -0.212773  0  4.02164  0  0  -0.218182  0  4.041549  0  0  -0.103143  -0.209004  0  4.007657  0
C  C57  1  0.22410679  0.49270935  0.00812958  1  0  -0.191562  0  3.768359  0  0  -0.212597  0  4.02143  0  0  -0.218009  0  4.041339  0  0  -0.103065  -0.208824  0  4.007436  0
C  C58  1  0.79349826  0.47288216  0.08151853  1  0  0.29417  0  3.75567  0  0  0.274336  0  4.032637  0  0  0.285949  0  4.04338  0  0  0.099838  0.266207  0  4.025987  0
C  C59  1  0.20650818  0.52711505  0.91848228  1  0  0.294114  0  3.755644  0  0  0.274351  0  4.032564  0  0  0.285961  0  4.043313  0  0  0.099834  0.266211  0  4.025923  0
C  C60  1  0.96211973  0.27582093  0.43764668  1  0  0.737104  0  3.859759  0  0  0.689658  0  4.156235  0  0  0.725885  0  4.143576  0  0  0.22877  0.664564  0  4.159249  0
C  C61  1  0.03787897  0.72418251  0.56235967  1  0  0.737061  0  3.859905  0  0  0.689763  0  4.156214  0  0  0.725989  0  4.143557  0  0  0.228799  0.664661  0  4.159237  0
C  C62  1  0.00461095  0.16173248  0.42039681  1  0  -0.174538  0  3.71231  0  0  -0.159675  0  3.946018  0  0  -0.170379  0  3.966093  0  0  -0.024624  -0.153527  0  3.934627  0
C  C63  1  0.99539317  0.83827447  0.57960731  1  0  -0.174357  0  3.712056  0  0  -0.15972  0  3.945928  0  0  -0.170422  0  3.966001  0  0  -0.024624  -0.153557  0  3.934534  0
C  C64  1  0.15663361  0.16543000  0.45882644  1  0  -0.041917  0  3.726712  0  0  -0.063609  0  3.974973  0  0  -0.061667  0  3.995172  0  0  -0.08041  -0.064669  0  3.961935  0
C  C65  1  0.84337136  0.83457966  0.54118424  1  0  -0.041859  0  3.726683  0  0  -0.063491  0  3.97506  0  0  -0.061545  0  3.995254  0  0  -0.080438  -0.06457  0  3.96203  0
C  C66  1  0.20554694  0.06356789  0.44359708  1  0  -0.103052  0  3.781776  0  0  -0.123414  0  4.0474  0  0  -0.127824  0  4.06852  0  0  -0.105574  -0.120497  0  4.033041  0
C  C67  1  0.79445419  0.93643638  0.55640393  1  0  -0.103219  0  3.78185  0  0  -0.123581  0  4.047458  0  0  -0.12798  0  4.068581  0  0  -0.105604  -0.120656  0  4.033105  0
C  C68  1  0.10138459  0.95360369  0.38732297  1  0  -0.041646  0  3.783525  0  0  -0.058719  0  4.043683  0  0  -0.057116  0  4.063361  0  0  -0.090728  -0.059466  0  4.03011  0
C  C69  1  0.89862112  0.04640144  0.61267617  1  0  -0.041374  0  3.783613  0  0  -0.058448  0  4.043743  0  0  -0.056845  0  4.063419  0  0  -0.090607  -0.059197  0  4.030176  0
C  C70  1  0.94976825  0.94630382  0.34686500  1  0  -0.199846  0  3.780198  0  0  -0.220744  0  4.033622  0  0  -0.227879  0  4.055302  0  0  -0.104475  -0.216011  0  4.019038  0
C  C71  1  0.05023212  0.05370494  0.65314370  1  0  -0.200135  0  3.780293  0  0  -0.221099  0  4.033736  0  0  -0.228242  0  4.05542  0  0  -0.104632  -0.216372  0  4.019155  0
C  C72  1  0.90394519  0.04988971  0.36472609  1  0  0.308829  0  3.751505  0  0  0.290223  0  4.024523  0  0  0.303575  0  4.033894  0  0  0.10494  0.280957  0  4.018931  0
C  C73  1  0.09605275  0.95011817  0.63528259  1  0  0.308786  0  3.751454  0  0  0.290313  0  4.0244  0  0  0.303666  0  4.033774  0  0  0.104983  0.281047  0  4.018805  0
C  C74  1  0.49439007  0.60893988  0.40712632  1  0  0.745576  0  3.852235  0  0  0.699027  0  4.143849  0  0  0.735515  0  4.130525  0  0  0.237971  0.673337  0  4.149296  0
C  C75  1  0.50561266  0.39106266  0.59287814  1  0  0.745754  0  3.852039  0  0  0.69917  0  4.143691  0  0  0.735657  0  4.130364  0  0  0.238022  0.673489  0  4.149129  0
C  C76  1  0.49898773  0.67556818  0.33534348  1  0  -0.183828  0  3.716703  0  0  -0.166538  0  3.948627  0  0  -0.178179  0  3.969997  0  0  -0.021561  -0.159371  0  3.935862  0
C  C77  1  0.50102279  0.32443168  0.66465758  1  0  -0.183929  0  3.716762  0  0  -0.166602  0  3.948669  0  0  -0.178241  0  3.970038  0  0  -0.021504  -0.159433  0  3.935894  0
C  C78  1  0.58171095  0.64759963  0.25741296  1  0  -0.045118  0  3.716151  0  0  -0.066224  0  3.963369  0  0  -0.064133  0  3.982596  0  0  -0.076356  -0.067575  0  3.950964  0
C  C79  1  0.41829577  0.35239843  0.74258518  1  0  -0.045244  0  3.716166  0  0  -0.066383  0  3.96342  0  0  -0.064295  0  3.982647  0  0  -0.076455  -0.067729  0  3.951009  0
C  C80  1  0.59193440  0.70690876  0.18970065  1  0  -0.095926  0  3.771465  0  0  -0.11367  0  4.032378  0  0  -0.117776  0  4.052063  0  0  -0.099605  -0.111145  0  4.018861  0
C  C81  1  0.40806772  0.29308839  0.81029475  1  0  -0.095893  0  3.77151  0  0  -0.113617  0  4.032392  0  0  -0.117724  0  4.052073  0  0  -0.099551  -0.111099  0  4.018877  0
C  C82  1  0.51949273  0.79745078  0.19899757  1  0  -0.008874  0  3.765501  0  0  -0.033836  0  4.03638  0  0  -0.02928  0  4.050978  0  0  -0.081021  -0.036701  0  4.026661  0
C  C83  1  0.48050916  0.20254906  0.80100188  1  0  -0.008994  0  3.765421  0  0  -0.033923  0  4.03628  0  0  -0.029362  0  4.050872  0  0  -0.081084  -0.036785  0  4.026556  0
C  C84  1  0.43824486  0.82843327  0.27634611  1  0  -0.204361  0  3.767342  0  0  -0.230886  0  4.03337  0  0  -0.237706  0  4.051735  0  0  -0.104308  -0.226479  0  4.020966  0
C  C85  1  0.56175726  0.17156392  0.72365313  1  0  -0.204442  0  3.767287  0  0  -0.230932  0  4.033281  0  0  -0.237753  0  4.051645  0  0  -0.10431  -0.226529  0  4.020882  0
C  C86  1  0.42990576  0.76787834  0.34324776  1  0  0.309321  0  3.746297  0  0  0.287229  0  4.024891  0  0  0.29975  0  4.03656  0  0  0.107843  0.278551  0  4.01718  0
C  C87  1  0.57009773  0.23211975  0.65675283  1  0  0.309384  0  3.746432  0  0  0.28728  0  4.025025  0  0  0.299802  0  4.036694  0  0  0.107828  0.278593  0  4.017319  0
C  C88  1  0.50588652  0.70608141  0.81911750  1  0  0.153173  0  3.702711  0  0  0.124398  0  3.961102  0  0  0.132315  0  3.976869  0  0  0.054779  0.119261  0  3.948883  0
C  C89  1  0.49411026  0.29391932  0.18088363  1  0  0.153144  0  3.70285  0  0  0.124396  0  3.961215  0  0  0.132316  0  3.976976  0  0  0.054743  0.119265  0  3.949003  0
C  C90  1  0.61385998  0.79754057  0.91960183  1  0  -0.169761  0  3.697701  0  0  -0.186234  0  3.942478  0  0  -0.194972  0  3.964481  0  0  -0.087263  -0.181167  0  3.92858  0
C  C91  1  0.38613895  0.20246015  0.08039817  1  0  -0.16979  0  3.6978  0  0  -0.186273  0  3.942579  0  0  -0.19501  0  3.964578  0  0  -0.087257  -0.181222  0  3.928684  0
C  C92  1  0.66131466  0.90635456  0.91994719  1  0  0.095276  0  3.775243  0  0  0.104183  0  4.008517  0  0  0.10865  0  4.03069  0  0  0.007594  0.101788  0  3.992369  0
C  C93  1  0.33868399  0.09364527  0.08005166  1  0  0.09525  0  3.775276  0  0  0.104154  0  4.008565  0  0  0.108622  0  4.030737  0  0  0.007594  0.101772  0  3.992401  0
C  C94  1  0.59193388  0.91708815  0.81788034  1  0  -0.169974  0  3.71186  0  0  -0.186268  0  3.957836  0  0  -0.19505  0  3.980206  0  0  -0.087881  -0.180596  0  3.942338  0
C  C95  1  0.40806014  0.08290726  0.18211747  1  0  -0.170051  0  3.712027  0  0  -0.186373  0  3.957944  0  0  -0.195159  0  3.98032  0  0  -0.087918  -0.180664  0  3.942451  0
C  C96  1  0.48531816  0.82121908  0.72110010  1  0  0.152601  0  3.695246  0  0  0.122814  0  3.954987  0  0  0.131009  0  3.969905  0  0  0.054234  0.117662  0  3.942291  0
C  C97  1  0.51467422  0.17877452  0.27889442  1  0  0.15261  0  3.695163  0  0  0.122811  0  3.954927  0  0  0.130993  0  3.969856  0  0  0.054254  0.117645  0  3.94224  0
C  C98  1  0.92763809  0.20759680  0.12538700  1  0  0.139533  0  3.695822  0  0  0.110982  0  3.94798  0  0  0.11755  0  3.965326  0  0  0.051622  0.106559  0  3.936803  0
C  C99  1  0.07235408  0.79240300  0.87460910  1  0  0.139371  0  3.695777  0  0  0.110824  0  3.947949  0  0  0.117389  0  3.965302  0  0  0.051547  0.106407  0  3.936771  0
C  C100  1  0.79877009  0.12211050  0.04161428  1  0  -0.159635  0  3.698182  0  0  -0.178821  0  3.946001  0  0  -0.185936  0  3.966856  0  0  -0.083864  -0.173762  0  3.931155  0
C  C101  1  0.20122344  0.87789020  0.95838318  1  0  -0.159676  0  3.698376  0  0  -0.178807  0  3.946169  0  0  -0.185924  0  3.967026  0  0  -0.083887  -0.173743  0  3.931317  0
C  C102  1  0.78622838  0.00292901  0.01782399  1  0  0.088427  0  3.773112  0  0  0.101322  0  4.003346  0  0  0.104976  0  4.024314  0  0  0.009618  0.099016  0  3.988001  0
C  C103  1  0.21376408  0.99707174  0.98217941  1  0  0.088428  0  3.773422  0  0  0.101321  0  4.003649  0  0  0.104976  0  4.024613  0  0  0.009612  0.099011  0  3.988306  0
C  C104  1  0.90395942  0.97799895  0.08522000  1  0  -0.16031  0  3.720587  0  0  -0.180518  0  3.969388  0  0  -0.187697  0  3.991529  0  0  -0.08432  -0.175952  0  3.954738  0
C  C105  1  0.09603736  0.02200177  0.91478037  1  0  -0.160199  0  3.720696  0  0  -0.180447  0  3.969511  0  0  -0.187607  0  3.991659  0  0  -0.084271  -0.175887  0  3.954867  0
C  C106  1  0.02835858  0.06944851  0.16718724  1  0  0.122067  0  3.762973  0  0  0.093767  0  4.018276  0  0  0.099208  0  4.038576  0  0  0.043447  0.09004  0  4.004662  0
C  C107  1  0.97163983  0.93055398  0.83281258  1  0  0.122188  0  3.762835  0  0  0.093894  0  4.018163  0  0  0.099339  0  4.038449  0  0  0.043509  0.090169  0  4.004542  0
N  N108  1  0.44336267  0.71609404  0.72037369  1  0  -0.375639  0  3.195124  0  0  -0.3234  0  3.453615  0  0  -0.33761  0  3.468941  0  0  -0.348029  -0.307144  0  3.441497  0
N  N109  1  0.55663594  0.28390225  0.27962378  1  0  -0.375603  0  3.194981  0  0  -0.323346  0  3.453453  0  0  -0.337552  0  3.468777  0  0  -0.348027  -0.307088  0  3.44134  0
N  N110  1  0.04280218  0.18268596  0.18663848  1  0  -0.30443  0  3.125423  0  0  -0.243  0  3.372077  0  0  -0.256862  0  3.388532  0  0  -0.299795  -0.233672  0  3.361515  0
N  N111  1  0.95718704  0.81731478  0.81336355  1  0  -0.304405  0  3.125247  0  0  -0.242984  0  3.371924  0  0  -0.25684  0  3.388374  0  0  -0.299776  -0.233658  0  3.361362  0
O  O112  1  0.06681922  0.52129586  0.35225079  1  0  -0.714238  0  2.067579  0  0  -0.674411  0  2.322483  0  0  -0.699221  0  2.310905  0  0  -0.385976  -0.647309  0  2.331158  0
O  O113  1  0.93319065  0.47871903  0.64775287  1  0  -0.714355  0  2.067568  0  0  -0.674471  0  2.322531  0  0  -0.699284  0  2.310953  0  0  -0.385889  -0.64738  0  2.33123  0
O  O114  1  0.81780268  0.45381046  0.30481020  1  0  -0.727277  0  2.046926  0  0  -0.700978  0  2.316457  0  0  -0.724764  0  2.303606  0  0  -0.382296  -0.674771  0  2.325926  0
O  O115  1  0.18220920  0.54619032  0.69519375  1  0  -0.727423  0  2.046603  0  0  -0.701073  0  2.316171  0  0  -0.724826  0  2.303253  0  0  -0.38238  -0.674864  0  2.325654  0
O  O116  1  0.06678935  0.36481410  0.46699887  1  0  -0.782591  0  2.155826  0  0  -0.740411  0  2.424798  0  0  -0.765653  0  2.411068  0  0  -0.410592  -0.709247  0  2.431303  0
O  O117  1  0.93320367  0.63518839  0.53300148  1  0  -0.782593  0  2.155757  0  0  -0.74046  0  2.424701  0  0  -0.765704  0  2.410982  0  0  -0.410652  -0.709304  0  2.431214  0
O  O118  1  0.82739705  0.27928699  0.42373222  1  0  -0.70467  0  2.050755  0  0  -0.675578  0  2.308955  0  0  -0.69933  0  2.297046  0  0  -0.380201  -0.650504  0  2.318174  0
O  O119  1  0.17259898  0.72071828  0.57628045  1  0  -0.704649  0  2.051027  0  0  -0.675589  0  2.309145  0  0  -0.699344  0  2.297241  0  0  -0.380124  -0.650506  0  2.318358  0
O  O120  1  0.41392482  0.62953772  0.47258408  1  0  -0.727222  0  2.081505  0  0  -0.694795  0  2.347886  0  0  -0.718399  0  2.333483  0  0  -0.39404  -0.668644  0  2.360208  0
O  O121  1  0.58608382  0.37046306  0.52742080  1  0  -0.727309  0  2.08134  0  0  -0.694869  0  2.347724  0  0  -0.718481  0  2.333339  0  0  -0.394094  -0.668726  0  2.360052  0
O  O122  1  0.57478805  0.53562511  0.39735918  1  0  -0.756196  0  2.117725  0  0  -0.715643  0  2.386015  0  0  -0.740218  0  2.371758  0  0  -0.401318  -0.688089  0  2.397559  0
O  O123  1  0.42521327  0.46437295  0.60263795  1  0  -0.756293  0  2.117953  0  0  -0.71572  0  2.386231  0  0  -0.740296  0  2.371972  0  0  -0.40134  -0.688164  0  2.397771  0
O  O124  1  0.27350679  0.38203065  0.35158215  1  0  -0.894528  0  1.932434  0  0  -0.849499  0  2.137988  0  0  -0.867467  0  2.107544  0  0  -0.631296  -0.828863  0  2.163821  0
O  O125  1  0.72649159  0.61796831  0.64841860  1  0  -0.894508  0  1.932377  0  0  -0.849483  0  2.138001  0  0  -0.86745  0  2.10756  0  0  -0.63133  -0.828853  0  2.163805  0
F  F126  1  0.69479282  0.37240123  0.05860687  1  0  -0.217739  0  1.235699  0  0  -0.152615  0  1.395148  0  0  -0.163336  0  1.38756  0  0  -0.092129  -0.14508  0  1.400498  0
F  F127  1  0.30521283  0.62759690  0.94139796  1  0  -0.217755  0  1.235696  0  0  -0.152594  0  1.395069  0  0  -0.16332  0  1.38748  0  0  -0.09211  -0.145058  0  1.40042  0
F  F128  1  0.75474167  0.03785282  0.32210196  1  0  -0.206279  0  1.231776  0  0  -0.144427  0  1.389368  0  0  -0.154946  0  1.381072  0  0  -0.092699  -0.136906  0  1.395005  0
F  F129  1  0.24525572  0.96215332  0.67790977  1  0  -0.206238  0  1.231798  0  0  -0.144412  0  1.389359  0  0  -0.154932  0  1.381063  0  0  -0.092681  -0.136891  0  1.394994  0
F  F130  1  0.35356945  0.80512071  0.42064464  1  0  -0.198011  0  1.236052  0  0  -0.130152  0  1.389277  0  0  -0.139753  0  1.378687  0  0  -0.075393  -0.123331  0  1.396558  0
F  F131  1  0.64643755  0.19487830  0.57935926  1  0  -0.197973  0  1.236075  0  0  -0.130122  0  1.389308  0  0  -0.139721  0  1.378719  0  0  -0.075376  -0.123299  0  1.39659  0
