# generated using pymatgen
data_CuH8C13N5ClO
_symmetry_space_group_name_H-M   'P 1'
_cell_length_a   3.76554630
_cell_length_b   11.62902842
_cell_length_c   13.72162111
_cell_angle_alpha   90.00016010
_cell_angle_beta   90.00032644
_cell_angle_gamma   93.53663861
_symmetry_Int_Tables_number   1
_chemical_formula_structural   CuH8C13N5ClO
_chemical_formula_sum   'Cu2 H16 C26 N10 Cl2 O2'
_cell_volume   599.72060323
_cell_formula_units_Z   2
loop_
 _symmetry_equiv_pos_site_id
 _symmetry_equiv_pos_as_xyz
  1  'x, y, z'
loop_
 _atom_site_type_symbol
 _atom_site_label
 _atom_site_symmetry_multiplicity
 _atom_site_fract_x
 _atom_site_fract_y
 _atom_site_fract_z
 _atom_site_occupancy
 _atom_site_hle17_ddec_charge
 _atom_site_hle17_ddec_spin_density
 _atom_site_hle17_ddec_sum_bond_order
 _atom_site_hle17_magmom
 _atom_site_hse06_10hf_ddec_charge
 _atom_site_hse06_10hf_ddec_spin_density
 _atom_site_hse06_10hf_ddec_sum_bond_order
 _atom_site_hse06_10hf_magmom
 _atom_site_hse06_ddec_charge
 _atom_site_hse06_ddec_spin_density
 _atom_site_hse06_ddec_sum_bond_order
 _atom_site_hse06_magmom
 _atom_site_pbe_cm5_charge
 _atom_site_pbe_ddec_charge
 _atom_site_pbe_ddec_spin_density
 _atom_site_pbe_ddec_sum_bond_order
 _atom_site_pbe_magmom
Cu  Cu0  1  0.60493262  0.67236098  0.74999794  1  0.71274  -0.691751  2.025775  -0.473  0.668204  -0.771279  2.456967  -0.577  0.7534  -0.849932  2.386936  -0.658  0.662064  0.620242  -0.716869  2.501983  -0.526
Cu  Cu1  1  0.39505646  0.32763448  0.25000177  1  0.712737  0.69174  2.025597  0.473  0.668222  0.771275  2.456809  0.577  0.753381  0.84993  2.386727  0.658  0.662051  0.620196  0.716859  2.501837  0.526
H  H2  1  0.79845484  0.55724859  0.55591155  1  0.078739  -0.001295  0.957494  -0.002  0.085523  -0.001196  1.02579  -0.002  0.086731  -0.000866  1.025122  -0.001  0.109007  0.084481  -0.00145  1.026378  -0.002
H  H3  1  0.20152001  0.44275046  0.05591246  1  0.078649  0.001293  0.957523  0.002  0.085437  0.001195  1.025832  0.002  0.086645  0.000865  1.025165  0.001  0.10895  0.084391  0.00145  1.02642  0.002
H  H4  1  0.20152893  0.44274686  0.44409545  1  0.078626  0.001292  0.957534  0.002  0.08537  0.001197  1.025891  0.002  0.086576  0.000865  1.025228  0.001  0.108947  0.084324  0.001451  1.02648  0.002
H  H5  1  0.79844797  0.55724583  0.94408725  1  0.078693  -0.001291  0.957509  -0.002  0.085476  -0.001196  1.02581  -0.002  0.086685  -0.000865  1.025138  -0.001  0.108986  0.084428  -0.001449  1.026399  -0.002
H  H6  1  0.71528161  0.60260621  0.37742826  1  0.112359  -9.1e-05  0.966961  -0.001  0.120815  -4.7e-05  1.028216  -0.001  0.123702  4e-06  1.027301  0.0  0.097581  0.118586  -9.2e-05  1.029173  -0.001
H  H7  1  0.28470030  0.39739314  0.87742837  1  0.112336  9.2e-05  0.967002  0.001  0.120864  4.7e-05  1.028214  0.001  0.123753  -4e-06  1.027297  0.0  0.097606  0.118636  9.2e-05  1.029174  0.001
H  H8  1  0.28471189  0.39738409  0.62257729  1  0.112481  9.2e-05  0.96694  0.001  0.120844  4.7e-05  1.028288  0.001  0.123733  -5e-06  1.02737  0.0  0.097543  0.118611  9.2e-05  1.029254  0.001
H  H9  1  0.71527344  0.60260574  0.12256843  1  0.112374  -9.1e-05  0.967039  -0.001  0.120753  -4.8e-05  1.028379  -0.001  0.123639  5e-06  1.027466  0.0  0.097562  0.118525  -9.2e-05  1.029333  -0.001
H  H10  1  0.42682256  0.78678023  0.33413746  1  0.118076  -0.00025  0.956664  0.0  0.12706  -8e-06  1.014106  0.0  0.130253  1.4e-05  1.0113  0.0  0.116005  0.124671  -3.8e-05  1.016323  0.0
H  H11  1  0.57318584  0.21322418  0.83413828  1  0.118053  0.000249  0.956711  0.0  0.127034  8e-06  1.014152  0.0  0.130232  -1.4e-05  1.01134  0.0  0.115998  0.12465  3.8e-05  1.016371  0.0
H  H12  1  0.57318187  0.21321181  0.66586371  1  0.11806  0.000248  0.956618  0.0  0.127045  8e-06  1.014081  0.0  0.130239  -1.4e-05  1.011276  0.0  0.116002  0.124657  3.8e-05  1.016312  0.0
H  H13  1  0.42680679  0.78677646  0.16585924  1  0.118062  -0.000249  0.956756  0.0  0.127031  -8e-06  1.014197  0.0  0.130229  1.4e-05  1.011378  0.0  0.116009  0.124645  -3.8e-05  1.016412  0.0
H  H14  1  0.23797656  0.91462473  0.46666701  1  0.130116  -0.000785  0.938284  -0.001  0.131009  -0.000666  1.012226  -0.001  0.135341  -0.000472  1.009204  -0.001  0.115074  0.127796  -0.000814  1.01458  -0.001
H  H15  1  0.76201635  0.08538099  0.96667290  1  0.129976  0.000786  0.93848  0.001  0.130857  0.000665  1.012464  0.001  0.135187  0.000472  1.009448  0.001  0.115052  0.1277  0.000815  1.014766  0.001
H  H16  1  0.76202374  0.08537420  0.53332760  1  0.130078  0.000785  0.938314  0.001  0.130961  0.000665  1.012304  0.001  0.135292  0.000472  1.009282  0.001  0.115082  0.127766  0.000814  1.014641  0.001
H  H17  1  0.23797923  0.91462138  0.03332681  1  0.129951  -0.000785  0.938455  -0.001  0.130813  -0.000666  1.012469  -0.001  0.135144  -0.000472  1.00945  -0.001  0.11504  0.127654  -0.000814  1.014775  -0.001
C  C18  1  0.67454334  0.63456330  0.53170814  1  0.119892  0.006524  3.716993  0.007  0.090261  0.000886  3.975763  0.002  0.09833  0.00209  3.998027  0.003  0.043145  0.085226  -2.4e-05  3.961187  0.001
C  C19  1  0.32543156  0.36543911  0.03170759  1  0.119941  -0.00652  3.716855  -0.007  0.090326  -0.000888  3.975642  -0.002  0.098393  -0.002089  3.997908  -0.003  0.043137  0.085298  2.4e-05  3.961051  -0.001
C  C20  1  0.32543171  0.36542783  0.46829376  1  0.120014  -0.006505  3.716968  -0.007  0.090374  -0.000888  3.975709  -0.002  0.09844  -0.002089  3.99798  -0.003  0.043184  0.085343  2.4e-05  3.961119  -0.001
C  C21  1  0.67455000  0.63455892  0.96829358  1  0.119953  0.006508  3.716965  0.007  0.090325  0.000887  3.975719  0.002  0.098397  0.002089  3.997979  0.003  0.043156  0.085294  -2.4e-05  3.961133  0.001
C  C22  1  0.62806671  0.66097385  0.43358052  1  -0.113203  -0.008939  3.702323  -0.009  -0.122885  -0.004036  3.948436  -0.005  -0.130521  -0.003716  3.969385  -0.004  -0.077242  -0.117873  -0.004235  3.934446  -0.005
C  C23  1  0.37192192  0.33902657  0.93358135  1  -0.113168  0.008936  3.702483  0.009  -0.122979  0.004037  3.948664  0.005  -0.130616  0.003711  3.969611  0.004  -0.077205  -0.117963  0.004235  3.934672  0.005
C  C24  1  0.37191957  0.33902075  0.56642356  1  -0.113368  0.00892  3.70225  0.009  -0.122937  0.004039  3.948316  0.005  -0.130571  0.003711  3.969262  0.004  -0.07717  -0.117922  0.004236  3.934328  0.005
C  C25  1  0.62804886  0.66097058  0.06641618  1  -0.113235  -0.008918  3.702722  -0.009  -0.122906  -0.004035  3.948885  -0.005  -0.130546  -0.003713  3.969837  -0.004  -0.0772  -0.117892  -0.004234  3.934891  -0.005
C  C26  1  0.47233474  0.76275182  0.40935963  1  0.030587  0.008173  3.646723  0.007  0.009522  0.002886  3.894899  0.003  0.015198  0.00316  3.908642  0.003  -0.049332  0.005731  0.002649  3.885761  0.002
C  C27  1  0.52765439  0.23725454  0.90935971  1  0.030542  -0.008173  3.646821  -0.007  0.009533  -0.002885  3.895008  -0.003  0.01521  -0.003158  3.908747  -0.003  -0.049409  0.005735  -0.002649  3.885902  -0.002
C  C28  1  0.52766748  0.23724280  0.59064008  1  0.030587  -0.008148  3.646747  -0.007  0.009525  -0.002885  3.894909  -0.003  0.015198  -0.003155  3.908651  -0.003  -0.049381  0.005731  -0.002649  3.885786  -0.002
C  C29  1  0.47233544  0.76274522  0.09064073  1  0.030541  0.008154  3.646685  0.007  0.009567  0.002887  3.894777  0.003  0.015247  0.003158  3.908518  0.003  -0.04941  0.005771  0.002649  3.885659  0.002
C  C30  1  0.36626422  0.83544753  0.48340920  1  -0.093882  -0.006182  3.63412  -0.006  -0.113257  -0.00278  3.881819  -0.003  -0.117344  -0.002631  3.898487  -0.003  -0.060847  -0.110435  -0.002863  3.870573  -0.003
C  C31  1  0.63374782  0.16455914  0.98341290  1  -0.093836  0.006183  3.634086  0.006  -0.113251  0.00278  3.881898  0.003  -0.117337  0.00263  3.898568  0.003  -0.060908  -0.110474  0.002863  3.870646  0.003
C  C32  1  0.63374406  0.16455141  0.51659197  1  -0.093833  0.006158  3.634148  0.006  -0.113257  0.00278  3.881923  0.003  -0.117343  0.002628  3.898593  0.003  -0.060899  -0.110452  0.002863  3.870672  0.003
C  C33  1  0.36626105  0.83544324  0.01658462  1  -0.093785  -0.006164  3.633959  -0.006  -0.113181  -0.002781  3.881746  -0.003  -0.117269  -0.002631  3.898416  -0.003  -0.060843  -0.110408  -0.002863  3.87049  -0.003
C  C34  1  0.41907686  0.80331453  0.57965949  1  0.13609  0.003033  3.718055  0.003  0.137626  -0.000695  3.957224  0.0  0.142379  0.000357  3.977833  0.001  0.117669  0.13452  -0.001486  3.943567  -0.001
C  C35  1  0.58092628  0.19669155  0.07966109  1  0.136234  -0.00303  3.717994  -0.003  0.137737  0.000698  3.957178  0.0  0.142489  -0.000356  3.977793  -0.001  0.117725  0.134623  0.001487  3.943556  0.001
C  C36  1  0.58093702  0.19668615  0.42034241  1  0.135947  -0.00301  3.718178  -0.003  0.137497  0.000699  3.95736  0.0  0.142251  -0.000355  3.977978  -0.001  0.117597  0.134386  0.001487  3.943708  0.001
C  C37  1  0.41907182  0.80330996  0.92033790  1  0.136258  0.003017  3.717842  0.003  0.13772  -0.000696  3.957071  0.0  0.142474  0.000355  3.977686  0.001  0.117692  0.134607  -0.001487  3.943431  -0.001
C  C38  1  0.31505090  0.87053385  0.66554439  1  0.394348  0.001848  3.835627  0.002  0.366009  -0.000911  4.107448  -0.001  0.389007  -0.000239  4.117994  0.0  0.247605  0.350864  -0.001349  4.100384  -0.001
C  C39  1  0.68495462  0.12947512  0.16554671  1  0.394367  -0.001852  3.835498  -0.002  0.36609  0.000907  4.107276  0.001  0.389083  0.000237  4.117831  0.0  0.247654  0.350933  0.001349  4.100232  0.001
C  C40  1  0.68496994  0.12947631  0.33445459  1  0.394525  -0.001852  3.83531  -0.002  0.366101  0.000906  4.107262  0.001  0.389086  0.000237  4.117829  0.0  0.247621  0.350954  0.001349  4.10019  0.001
C  C41  1  0.31505810  0.87053416  0.83445155  1  0.394331  0.001844  3.835612  0.002  0.366058  -0.000911  4.107349  -0.001  0.389048  -0.000241  4.117904  0.0  0.247607  0.35091  -0.001349  4.100293  -0.001
C  C42  1  0.08366531  0.02101771  0.74999893  1  0.697541  -0.000754  3.811311  -0.001  0.654931  -0.000629  4.106874  -0.001  0.687839  -0.000376  4.103224  -0.001  0.314182  0.632745  -0.000885  4.108558  -0.001
C  C43  1  0.91642060  0.97898482  0.25000005  1  0.697653  0.000754  3.811373  0.001  0.655066  0.00063  4.106822  0.001  0.687958  0.000379  4.103194  0.001  0.314225  0.632883  0.000885  4.108483  0.001
N  N44  1  0.57173930  0.70370723  0.60294609  1  -0.318759  -0.090528  3.323618  -0.11  -0.272033  -0.066351  3.610417  -0.086  -0.304366  -0.056018  3.637541  -0.076  -0.33756  -0.253109  -0.071692  3.594335  -0.089
N  N45  1  0.42824443  0.29629115  0.10294698  1  -0.318737  0.090535  3.323624  0.11  -0.271957  0.066356  3.610367  0.086  -0.304281  0.056025  3.637485  0.076  -0.33749  -0.253017  0.071697  3.594269  0.089
N  N46  1  0.42824668  0.29628565  0.39705873  1  -0.318667  0.090512  3.323708  0.11  -0.271844  0.066352  3.610374  0.086  -0.304161  0.05602  3.637478  0.076  -0.337446  -0.252899  0.071698  3.594258  0.089
N  N47  1  0.57173949  0.70370517  0.89705055  1  -0.31871  -0.090522  3.32331  -0.11  -0.271898  -0.066353  3.610042  -0.086  -0.304235  -0.056019  3.637175  -0.076  -0.337449  -0.252965  -0.071695  3.593941  -0.089
N  N48  1  0.39998974  0.81918324  0.74999870  1  -0.501187  -0.109691  3.388879  -0.134  -0.472149  -0.076924  3.719868  -0.099  -0.515356  -0.064703  3.736365  -0.087  -0.400279  -0.446956  -0.08301  3.711761  -0.104
N  N49  1  0.59999478  0.18081652  0.25000029  1  -0.50124  0.109697  3.388885  0.134  -0.472238  0.07692  3.71999  0.099  -0.515435  0.064706  3.736468  0.087  -0.400341  -0.447016  0.083009  3.711848  0.104
N  N50  1  0.15707840  0.96767233  0.66062661  1  -0.497563  -0.013406  2.868094  -0.015  -0.465101  -0.006982  3.13601  -0.008  -0.48816  -0.004144  3.144137  -0.005  -0.31484  -0.449065  -0.009727  3.12975  -0.011
N  N51  1  0.84296124  0.03233496  0.16062236  1  -0.497626  0.013411  2.867668  0.015  -0.465162  0.006989  3.135467  0.008  -0.48822  0.004144  3.143605  0.005  -0.314768  -0.449122  0.009729  3.129217  0.011
N  N52  1  0.84295187  0.03233095  0.33937675  1  -0.497666  0.013409  2.867624  0.015  -0.465156  0.006988  3.135499  0.008  -0.488211  0.004144  3.143637  0.005  -0.314772  -0.449114  0.009728  3.129224  0.011
N  N53  1  0.15707465  0.96767006  0.83937225  1  -0.497601  -0.013404  2.868075  -0.015  -0.465161  -0.006985  3.135973  -0.008  -0.488217  -0.004141  3.144101  -0.005  -0.31484  -0.449126  -0.009728  3.129725  -0.011
Cl  Cl54  1  0.97874327  0.53084139  0.74999877  1  -0.530489  -0.077393  1.034288  -0.087  -0.510981  -0.048911  1.335673  -0.057  -0.535093  -0.039013  1.304528  -0.047  -0.296331  -0.495683  -0.054559  1.357259  -0.062
Cl  Cl55  1  0.02124435  0.46916096  0.25000167  1  -0.530487  0.077382  1.034128  0.087  -0.510984  0.048903  1.335509  0.057  -0.535077  0.039005  1.304336  0.047  -0.296354  -0.49566  0.054552  1.357079  0.062
O  O56  1  0.95175892  0.11616497  0.75000189  1  -0.572226  0.002185  1.899478  0.003  -0.529137  0.001198  2.114635  0.002  -0.551918  0.001323  2.108704  0.002  -0.292182  -0.513175  0.00104  2.118278  0.001
O  O57  1  0.04829528  0.88385387  0.24999783  1  -0.57219  -0.002179  1.899879  -0.003  -0.529136  -0.001195  2.115026  -0.002  -0.551909  -0.00132  2.109097  -0.002  -0.292263  -0.513188  -0.001038  2.118663  -0.001
