# generated using pymatgen
data_Cu4H16C29(N2O)4
_symmetry_space_group_name_H-M   'P 1'
_cell_length_a   21.34287771
_cell_length_b   22.38638700
_cell_length_c   23.25843717
_cell_angle_alpha   90.89440567
_cell_angle_beta   89.97373789
_cell_angle_gamma   90.50309057
_symmetry_Int_Tables_number   1
_chemical_formula_structural   Cu4H16C29(N2O)4
_chemical_formula_sum   'Cu12 H48 C87 N24 O12'
_cell_volume   11110.86398591
_cell_formula_units_Z   3
loop_
 _symmetry_equiv_pos_site_id
 _symmetry_equiv_pos_as_xyz
  1  'x, y, z'
loop_
 _atom_site_type_symbol
 _atom_site_label
 _atom_site_symmetry_multiplicity
 _atom_site_fract_x
 _atom_site_fract_y
 _atom_site_fract_z
 _atom_site_occupancy
 _atom_site_pbe_bader_charge
 _atom_site_pbe_bader_spin_density
 _atom_site_pbe_cm5_charge
 _atom_site_pbe_ddec_charge
 _atom_site_pbe_ddec_spin_density
 _atom_site_pbe_ddec_sum_bond_order
 _atom_site_pbe_magmom
Cu  Cu0  1  0.80751593  0.78592549  0.13748102  1  0.547871  0  0.484288  0.207817  0  2.090345  0
Cu  Cu1  1  0.82587560  0.90831351  0.20007266  1  0.536163  0  0.49305  0.203282  0  2.177347  0
Cu  Cu2  1  0.90118310  0.80619418  0.25080999  1  0.546481  0  0.481635  0.205903  0  2.092736  0
Cu  Cu3  1  0.19379511  0.74301443  0.88497008  1  0.544744  0  0.484008  0.204407  0  2.108171  0
Cu  Cu4  1  0.20028879  0.86205272  0.80270023  1  0.548145  0  0.484339  0.210346  0  2.083247  0
Cu  Cu5  1  0.09083560  0.76981994  0.79733370  1  0.536359  0  0.488969  0.201079  0  2.166222  0
Cu  Cu6  1  0.71461331  0.23492561  0.85075473  1  0.542724  0  0.485565  0.207232  0  2.123549  0
Cu  Cu7  1  0.75452875  0.13706769  0.75481998  1  0.548913  0  0.483405  0.209821  0  2.075241  0
Cu  Cu8  1  0.84904877  0.23738655  0.80550999  1  0.540255  0  0.487028  0.204198  0  2.133903  0
Cu  Cu9  1  0.24894217  0.19816249  0.11823579  1  0.538359  0  0.486632  0.201674  0  2.148069  0
Cu  Cu10  1  0.27086111  0.14149463  0.23143797  1  0.536933  0  0.492282  0.205817  0  2.175232  0
Cu  Cu11  1  0.14374590  0.21375525  0.22192129  1  0.549541  0  0.476794  0.210612  0  2.043322  0
H  H12  1  0.69647483  0.82191821  0.04516271  1  0.093851  0  0.122247  0.115937  0  0.987516  0
H  H13  1  0.74992181  0.99218106  0.12254507  1  0.114325  0  0.121355  0.111911  0  0.989863  0
H  H14  1  0.97258519  0.68532676  0.24569390  1  0.088106  0  0.120607  0.111658  0  0.989547  0
H  H15  1  0.85288864  0.65963485  0.09690865  1  0.106256  0  0.123728  0.118199  0  0.986233  0
H  H16  1  0.84851069  0.01211027  0.28996428  1  0.058524  0  0.121915  0.112803  0  0.988942  0
H  H17  1  0.95714806  0.87214359  0.36794722  1  0.079157  0  0.12271  0.116181  0  0.988908  0
H  H18  1  0.33385299  0.74258092  0.92679345  1  0.089478  0  0.120993  0.113111  0  0.989712  0
H  H19  1  0.33058328  0.91386471  0.84286833  1  0.123088  0  0.123397  0.117367  0  0.984677  0
H  H20  1  0.98445169  0.67939910  0.83251274  1  0.092297  0  0.121333  0.112261  0  0.98934  0
H  H21  1  0.12431862  0.63936119  0.96110292  1  0.106594  0  0.124593  0.120001  0  0.983191  0
H  H22  1  0.16096076  0.94908542  0.69616878  1  0.109087  0  0.123509  0.117772  0  0.983544  0
H  H23  1  0.02587946  0.80388153  0.68249411  1  0.089034  0  0.120633  0.110756  0  0.991115  0
H  H24  1  0.57486670  0.20227740  0.86828522  1  0.096423  0  0.12045  0.112111  0  0.989276  0
H  H25  1  0.63598014  0.04845888  0.76880487  1  0.100295  0  0.125053  0.118197  0  0.980253  0
H  H26  1  0.91631741  0.32634238  0.89720824  1  0.098037  0  0.125301  0.120701  0  0.982623  0
H  H27  1  0.72684897  0.31860372  0.96415371  1  0.096377  0  0.121107  0.113146  0  0.988477  0
H  H28  1  0.84338362  0.07873206  0.65674648  1  0.095316  0  0.124767  0.119846  0  0.983206  0
H  H29  1  0.96133572  0.22301464  0.72186292  1  0.089621  0  0.121078  0.111775  0  0.989727  0
H  H30  1  0.34740234  0.12448683  0.03548846  1  0.102175  0  0.121752  0.115505  0  0.98942  0
H  H31  1  0.38132294  0.05174011  0.20421747  1  0.083903  0  0.121415  0.112481  0  0.988895  0
H  H32  1  0.06030458  0.31618196  0.16447268  1  0.08118  0  0.123364  0.11773  0  0.986121  0
H  H33  1  0.20493072  0.29317496  0.03549862  1  0.083153  0  0.120082  0.110227  0  0.990402  0
H  H34  1  0.26185998  0.09124933  0.35165693  1  0.076146  0  0.119868  0.110231  0  0.990892  0
H  H35  1  0.07408210  0.16168102  0.33830389  1  0.092849  0  0.12445  0.119569  0  0.982992  0
H  H36  1  0.71475856  0.04238630  0.02248899  1  0.051293  0  0.107622  0.134738  0  0.999511  0
H  H37  1  0.61041074  0.07135931  0.96169026  1  0.11817  0  0.109925  0.140799  0  1.001568  0
H  H38  1  0.48143507  0.76497468  0.91170512  1  0.089007  0  0.105756  0.134238  0  1.002764  0
H  H39  1  0.57242268  0.84401537  0.94925610  1  0.130873  0  0.107096  0.136958  0  1.009631  0
H  H40  1  0.43910713  0.12825831  0.84403667  1  0.074185  0  0.105934  0.134039  0  1.002231  0
H  H41  1  0.40292215  0.05123713  0.92871076  1  0.087774  0  0.109013  0.139211  0  0.999331  0
H  H42  1  0.42173654  0.94894934  0.14712078  1  0.10257  0  0.106978  0.133502  0  0.999976  0
H  H43  1  0.49144930  0.89350070  0.06312913  1  0.091805  0  0.109488  0.139799  0  0.996676  0
H  H44  1  0.02365008  0.57030382  0.22027483  1  0.098009  0  0.106327  0.134257  0  0.999802  0
H  H45  1  0.05154532  0.47685073  0.14770489  1  0.100959  0  0.10921  0.141072  0  1.005433  0
H  H46  1  0.16130791  0.38523152  0.97760912  1  0.101107  0  0.105898  0.133119  0  1.002177  0
H  H47  1  0.07964837  0.47373784  0.94998644  1  0.112608  0  0.11001  0.142205  0  1.002153  0
H  H48  1  0.90615523  0.59854095  0.87948958  1  0.055533  0  0.106311  0.133555  0  1.000646  0
H  H49  1  0.87116278  0.50831514  0.95087879  1  0.099585  0  0.110227  0.142345  0  0.998655  0
H  H50  1  0.77804339  0.38030786  0.06707394  1  0.094519  0  0.106101  0.134198  0  1.001495  0
H  H51  1  0.85985275  0.46126790  0.11643357  1  0.124382  0  0.110818  0.143546  0  0.992603  0
H  H52  1  0.84735866  0.06783829  0.40044274  1  0.075306  0  0.106149  0.133626  0  1.00129  0
H  H53  1  0.91189984  0.10753237  0.49568191  1  0.090376  0  0.110741  0.143257  0  0.99687  0
H  H54  1  0.04263332  0.20346394  0.63705900  1  0.044506  0  0.106035  0.133291  0  1.001044  0
H  H55  1  0.10091931  0.13903616  0.55183776  1  0.103436  0  0.109672  0.141583  0  0.998848  0
H  H56  1  0.23653371  0.04300104  0.44948780  1  0.033602  0  0.105692  0.132505  0  1.003367  0
H  H57  1  0.16143451  0.99199995  0.53100293  1  0.114332  0  0.110289  0.142284  0  0.994719  0
H  H58  1  0.01931424  0.82465427  0.56993245  1  0.089013  0  0.105582  0.13188  0  1.002134  0
H  H59  1  0.98207203  0.90339083  0.48828094  1  0.115079  0  0.106884  0.136619  0  1.020612  0
C  C60  1  0.71636235  0.85862048  0.07030097  1  0.455234  0  0.00682  -0.044123  0  3.945346  0
C  C61  1  0.70530207  0.92030444  0.06710238  1  0.033582  0  -0.038411  -0.064741  0  4.14408  0
C  C62  1  0.74447352  0.94569116  0.10949254  1  0.388535  0  0.00762  -0.044679  0  3.969506  0
C  C63  1  0.93808889  0.68801986  0.21159706  1  0.446169  0  0.00541  -0.04595  0  3.953388  0
C  C64  1  0.92551535  0.64791453  0.16592505  1  0.08913  0  -0.039585  -0.066413  0  4.146033  0
C  C65  1  0.87687086  0.67505395  0.13553984  1  0.362675  0  0.006698  -0.041543  0  3.944866  0
C  C66  1  0.87210145  0.97128898  0.30150819  1  0.441661  0  0.006044  -0.046107  0  3.965053  0
C  C67  1  0.90906235  0.95928706  0.34975178  1  0.074226  0  -0.038199  -0.064782  0  4.143541  0
C  C68  1  0.92803052  0.89976402  0.34115570  1  0.438162  0  0.007286  -0.043025  0  3.942668  0
C  C69  1  0.32293207  0.78218239  0.90252917  1  0.446405  0  0.005912  -0.047659  0  3.962206  0
C  C70  1  0.36019784  0.83267121  0.89159931  1  -0.003972  0  -0.03835  -0.064011  0  4.137353  0
C  C71  1  0.32076565  0.87009740  0.86027347  1  0.409272  0  0.008194  -0.039708  0  3.947044  0
C  C72  1  0.02541900  0.67674509  0.85988746  1  0.460408  0  0.006094  -0.045866  0  3.962744  0
C  C73  1  0.03618935  0.64058884  0.90761287  1  0.046261  0  -0.039212  -0.066901  0  4.151511  0
C  C74  1  0.09711976  0.65627440  0.92559507  1  0.385353  0  0.007653  -0.043769  0  3.938495  0
C  C75  1  0.13185472  0.90954981  0.70128260  1  0.386248  0  0.008209  -0.041838  0  3.935881  0
C  C76  1  0.08337103  0.88674250  0.66612197  1  0.058953  0  -0.038581  -0.064495  0  4.135048  0
C  C77  1  0.06329601  0.83485506  0.69415486  1  0.385927  0  0.007129  -0.04516  0  3.965441  0
C  C78  1  0.59882007  0.17050030  0.84042559  1  0.410612  0  0.006669  -0.044189  0  3.971079  0
C  C79  1  0.58004311  0.11259051  0.82369194  1  0.033557  0  -0.041829  -0.070835  0  4.124683  0
C  C80  1  0.63023603  0.09145539  0.79022609  1  0.425901  0  0.012901  -0.03249  0  3.942894  0
C  C81  1  0.86704015  0.31806481  0.90554967  1  0.403692  0  0.009046  -0.038938  0  3.939948  0
C  C82  1  0.82988210  0.33838252  0.95166412  1  0.027881  0  -0.039467  -0.068075  0  4.143538  0
C  C83  1  0.77019315  0.31405370  0.94014984  1  0.451959  0  0.005309  -0.046722  0  3.957064  0
C  C84  1  0.86438708  0.11656510  0.67943205  1  0.462747  0  0.006961  -0.043097  0  3.93807  0
C  C85  1  0.92299563  0.14422237  0.67106577  1  0.023541  0  -0.03849  -0.064898  0  4.142653  0
C  C86  1  0.92461562  0.19049200  0.71254191  1  0.401111  0  0.006257  -0.045799  0  3.961439  0
C  C87  1  0.34877873  0.11385110  0.08080071  1  0.406376  0  0.006492  -0.044786  0  3.945118  0
C  C88  1  0.38250362  0.06933794  0.10901397  1  0.05746  0  -0.038449  -0.062793  0  4.149056  0
C  C89  1  0.36590204  0.07643161  0.16712571  1  0.429281  0  0.00585  -0.046766  0  3.961946  0
C  C90  1  0.10015954  0.30291549  0.13844327  1  0.458862  0  0.006352  -0.043533  0  3.937269  0
C  C91  1  0.12071143  0.32515393  0.08537577  1  0.026311  0  -0.039836  -0.067924  0  4.148221  0
C  C92  1  0.17404294  0.29124350  0.07250577  1  0.387269  0  0.005283  -0.044975  0  3.964746  0
C  C93  1  0.21893559  0.11369806  0.34012150  1  0.473364  0  0.005033  -0.045752  0  3.969139  0
C  C94  1  0.16068012  0.11380676  0.36805615  1  0.032118  0  -0.038206  -0.064159  0  4.137525  0
C  C95  1  0.12280687  0.14935177  0.33299171  1  0.426416  0  0.008981  -0.039796  0  3.925113  0
C  C96  1  0.02601565  0.02975784  0.51725316  1  0.144713  0  0.015127  -0.079677  0  4.006568  0
C  C97  1  0.51428674  0.97093398  0.96230448  1  0.132266  0  0.018367  -0.072189  0  3.978742  0
C  C98  1  0.97308385  0.48170472  0.03750883  1  0.144626  0  0.01538  -0.077218  0  4.005776  0
C  C99  1  0.66653337  0.95608180  0.03071857  1  0.326671  0  0.064795  0.189502  0  4.043295  0
C  C100  1  0.67416419  0.01418354  0.01380356  1  0.089664  0  -0.129608  -0.239969  0  4.060416  0
C  C101  1  0.62002450  0.02905648  0.98160791  1  -0.017905  0  -0.125667  -0.21838  0  4.059536  0
C  C102  1  0.58231838  0.97919558  0.97994712  1  0.388765  0  0.065347  0.169204  0  3.889415  0
C  C103  1  0.42362954  0.84552180  0.90972628  1  0.3523  0  0.066775  0.196875  0  4.035051  0
C  C104  1  0.47679545  0.81277013  0.91863498  1  0.035073  0  -0.131965  -0.24529  0  4.047683  0
C  C105  1  0.52465139  0.85402173  0.93729189  1  0.053095  0  -0.128127  -0.228599  0  4.058923  0
C  C106  1  0.49800665  0.90938714  0.93849412  1  0.296245  0  0.063537  0.166604  0  3.923681  0
C  C107  1  0.52808792  0.08046916  0.84981830  1  0.358484  0  0.060052  0.179571  0  4.018956  0
C  C108  1  0.46683271  0.09314368  0.86279443  1  0.023207  0  -0.130485  -0.242071  0  4.059609  0
C  C109  1  0.44790084  0.05306756  0.90716047  1  0.028809  0  -0.126415  -0.223835  0  4.045201  0
C  C110  1  0.49863508  0.01825672  0.91883515  1  0.386511  0  0.068541  0.182802  0  3.89369  0
C  C111  1  0.42114155  0.02250828  0.08582486  1  0.317632  0  0.062497  0.183474  0  4.044295  0
C  C112  1  0.43619503  0.96711097  0.10616122  1  0.029  0  -0.128135  -0.234161  0  4.052565  0
C  C113  1  0.47162282  0.93788573  0.06232765  1  0.068496  0  -0.126491  -0.224162  0  4.050379  0
C  C114  1  0.47654586  0.97700482  0.01781578  1  0.355465  0  0.068753  0.176617  0  3.882591  0
C  C115  1  0.95717029  0.59302999  0.15205540  1  0.311895  0  0.065069  0.191679  0  4.038654  0
C  C116  1  0.00275716  0.56037594  0.17864880  1  0.003859  0  -0.131051  -0.240897  0  4.047872  0
C  C117  1  0.01747482  0.51160084  0.14083133  1  0.046991  0  -0.127179  -0.229317  0  4.059886  0
C  C118  1  0.98001815  0.51687652  0.09347121  1  0.351466  0  0.064924  0.17023  0  3.909367  0
C  C119  1  0.09696580  0.37225507  0.05024366  1  0.412313  0  0.065254  0.191094  0  4.041066  0
C  C120  1  0.11908236  0.39769998  0.00068027  1  -0.019135  0  -0.132342  -0.241791  0  4.05212  0
C  C121  1  0.07651372  0.44388617  0.98610809  1  0.026454  0  -0.12658  -0.227615  0  4.065899  0
C  C122  1  0.03090862  0.44431693  0.02740511  1  0.340792  0  0.064794  0.17101  0  3.912874  0
C  C123  1  0.99291318  0.59735580  0.93027915  1  0.338743  0  0.065779  0.189415  0  4.046476  0
C  C124  1  0.93339347  0.58001246  0.91421950  1  0.026585  0  -0.131403  -0.240045  0  4.048572  0
C  C125  1  0.91511321  0.53289573  0.95138950  1  0.059158  0  -0.124927  -0.225791  0  4.061631  0
C  C126  1  0.96417528  0.52401324  0.98800286  1  0.344435  0  0.065229  0.170411  0  3.912941  0
C  C127  1  0.84901949  0.37710201  0.99862063  1  0.306392  0  0.065424  0.189503  0  4.038781  0
C  C128  1  0.82268190  0.39526961  0.04991752  1  0.065259  0  -0.131395  -0.241732  0  4.045363  0
C  C129  1  0.86549224  0.43712925  0.07600701  1  -0.013481  0  -0.125125  -0.229322  0  4.057761  0
C  C130  1  0.91534056  0.44199859  0.03942807  1  0.354491  0  0.064365  0.168439  0  3.930074  0
C  C131  1  0.92088265  0.99992441  0.39721369  1  0.382007  0  0.065536  0.190437  0  4.041016  0
C  C132  1  0.88991251  0.04930372  0.41806006  1  -0.072203  0  -0.130514  -0.240516  0  4.047614  0
C  C133  1  0.92319755  0.06974656  0.46800710  1  0.09363  0  -0.125854  -0.227857  0  4.059366  0
C  C134  1  0.97234368  0.03180214  0.47492772  1  0.367301  0  0.065247  0.172796  0  3.9205  0
C  C135  1  0.97204913  0.13168223  0.63022603  1  0.382108  0  0.066014  0.190345  0  4.041142  0
C  C136  1  0.02650876  0.16191203  0.61729108  1  0.039709  0  -0.131238  -0.239511  0  4.052389  0
C  C137  1  0.05687166  0.12856128  0.57279383  1  -0.016488  0  -0.125199  -0.228541  0  4.067899  0
C  C138  1  0.01947611  0.08005193  0.56088035  1  0.366329  0  0.064328  0.170248  0  3.925826  0
C  C139  1  0.14789577  0.08111925  0.41970074  1  0.344896  0  0.065226  0.189249  0  4.040576  0
C  C140  1  0.18627688  0.04795040  0.45422692  1  0.028737  0  -0.131814  -0.242904  0  4.052233  0
C  C141  1  0.14729294  0.02103060  0.49653126  1  0.067731  0  -0.125706  -0.228187  0  4.059096  0
C  C142  1  0.08755986  0.03948817  0.48591674  1  0.305127  0  0.066939  0.171672  0  3.914827  0
C  C143  1  0.05763910  0.90535230  0.61202576  1  0.438523  0  0.064408  0.188189  0  4.038198  0
C  C144  1  0.02652464  0.87268867  0.57027932  1  9.9e-05  0  -0.13087  -0.238428  0  4.062624  0
C  C145  1  0.00706515  0.91358114  0.52773415  1  0.02141  0  -0.129835  -0.229849  0  4.071813  0
C  C146  1  0.02754529  0.96900403  0.54535126  1  0.325768  0  0.065456  0.172683  0  3.897961  0
N  N147  1  0.77650495  0.90253185  0.13571123  1  -0.791541  0  -0.346953  -0.141612  0  3.8037  0
N  N148  1  0.75936125  0.84845419  0.11168220  1  -0.763857  0  -0.333121  -0.140762  0  3.746279  0
N  N149  1  0.86179885  0.72747229  0.16125028  1  -0.75509  0  -0.334544  -0.140574  0  3.763228  0
N  N150  1  0.89989386  0.73559846  0.20842804  1  -0.771283  0  -0.334072  -0.140517  0  3.761355  0
N  N151  1  0.90358787  0.87808099  0.29139499  1  -0.757912  0  -0.332947  -0.140378  0  3.752014  0
N  N152  1  0.86914955  0.92251689  0.26704544  1  -0.779245  0  -0.344252  -0.139124  0  3.799698  0
N  N153  1  0.26433562  0.84357171  0.85274363  1  -0.769152  0  -0.334978  -0.141273  0  3.756299  0
N  N154  1  0.26558998  0.78904046  0.87916787  1  -0.783733  0  -0.336467  -0.140448  0  3.767206  0
N  N155  1  0.12063523  0.69873791  0.89079232  1  -0.773763  0  -0.334954  -0.138635  0  3.755565  0
N  N156  1  0.07611648  0.71129881  0.85029858  1  -0.77023  0  -0.342807  -0.140164  0  3.79488  0
N  N157  1  0.09734720  0.82721059  0.74201259  1  -0.760552  0  -0.34389  -0.139787  0  3.795238  0
N  N158  1  0.13993467  0.87335617  0.74671753  1  -0.781711  0  -0.333159  -0.142002  0  3.738072  0
N  N159  1  0.67550968  0.13378390  0.78747478  1  -0.774725  0  -0.332482  -0.137145  0  3.745545  0
N  N160  1  0.65604762  0.18290992  0.81886932  1  -0.766688  0  -0.342262  -0.149591  0  3.747099  0
N  N161  1  0.77190794  0.28176340  0.89072547  1  -0.772826  0  -0.338552  -0.144006  0  3.775856  0
N  N162  1  0.83186160  0.28411799  0.86944729  1  -0.765305  0  -0.338995  -0.139406  0  3.770421  0
N  N163  1  0.87110936  0.19037712  0.74317218  1  -0.782473  0  -0.338836  -0.138847  0  3.787952  0
N  N164  1  0.83357249  0.14461472  0.72278318  1  -0.757294  0  -0.332943  -0.141787  0  3.75325  0
N  N165  1  0.32497549  0.12153815  0.17290603  1  -0.776858  0  -0.345028  -0.143069  0  3.787442  0
N  N166  1  0.31419445  0.14471093  0.11959177  1  -0.787888  0  -0.33895  -0.140952  0  3.762103  0
N  N167  1  0.18448604  0.25200120  0.11460379  1  -0.756632  0  -0.339635  -0.140132  0  3.792081  0
N  N168  1  0.13877605  0.25898788  0.15572979  1  -0.774129  0  -0.328721  -0.140108  0  3.7383  0
N  N169  1  0.15648622  0.16857456  0.28736779  1  -0.751679  0  -0.329212  -0.141788  0  3.731089  0
N  N170  1  0.21602605  0.14635049  0.29217514  1  -0.780899  0  -0.3456  -0.145409  0  3.790572  0
O  O171  1  0.61017992  0.93391252  0.01002222  1  -1.057098  0  -0.1224  -0.151454  0  2.562967  0
O  O172  1  0.43649309  0.90487754  0.92139968  1  -1.05951  0  -0.125697  -0.157394  0  2.592496  0
O  O173  1  0.54694419  0.03302592  0.88274815  1  -1.050789  0  -0.122147  -0.154224  0  2.614732  0
O  O174  1  0.44624579  0.02919240  0.03148480  1  -1.05561  0  -0.121503  -0.147983  0  2.568065  0
O  O175  1  0.94259726  0.56633189  0.09980879  1  -1.054264  0  -0.122383  -0.148834  0  2.560291  0
O  O176  1  0.04250174  0.40038152  0.06692036  1  -1.056371  0  -0.123157  -0.148651  0  2.546982  0
O  O177  1  0.01213264  0.56350952  0.97598006  1  -1.051678  0  -0.122368  -0.146072  0  2.549896  0
O  O178  1  0.90629597  0.40522816  0.99218917  1  -1.055937  0  -0.122473  -0.150393  0  2.575998  0
O  O179  1  0.97192386  0.98909566  0.43165727  1  -1.058431  0  -0.120541  -0.146034  0  2.56863  0
O  O180  1  0.96719242  0.08110255  0.59573567  1  -1.048805  0  -0.123554  -0.147728  0  2.536514  0
O  O181  1  0.08709144  0.07660065  0.43922135  1  -1.045453  0  -0.121667  -0.145137  0  2.553907  0
O  O182  1  0.05906255  0.96482300  0.59696191  1  -1.047083  0  -0.125035  -0.150769  0  2.534623  0
