# generated using pymatgen
data_CdH10C16N8O
_symmetry_space_group_name_H-M   'P 1'
_cell_length_a   7.72189113
_cell_length_b   12.85841345
_cell_length_c   18.40500308
_cell_angle_alpha   89.99999212
_cell_angle_beta   90.00009893
_cell_angle_gamma   92.42138941
_symmetry_Int_Tables_number   1
_chemical_formula_structural   CdH10C16N8O
_chemical_formula_sum   'Cd4 H40 C64 N32 O4'
_cell_volume   1825.82442330
_cell_formula_units_Z   4
loop_
 _symmetry_equiv_pos_site_id
 _symmetry_equiv_pos_as_xyz
  1  'x, y, z'
loop_
 _atom_site_type_symbol
 _atom_site_label
 _atom_site_symmetry_multiplicity
 _atom_site_fract_x
 _atom_site_fract_y
 _atom_site_fract_z
 _atom_site_occupancy
 _atom_site_hle17_bader_spin_density
 _atom_site_hle17_ddec_charge
 _atom_site_hle17_ddec_spin_density
 _atom_site_hle17_ddec_sum_bond_order
 _atom_site_hle17_magmom
 _atom_site_hse06_10hf_bader_spin_density
 _atom_site_hse06_10hf_ddec_charge
 _atom_site_hse06_10hf_ddec_spin_density
 _atom_site_hse06_10hf_ddec_sum_bond_order
 _atom_site_hse06_10hf_magmom
 _atom_site_hse06_bader_spin_density
 _atom_site_hse06_ddec_charge
 _atom_site_hse06_ddec_spin_density
 _atom_site_hse06_ddec_sum_bond_order
 _atom_site_hse06_magmom
 _atom_site_pbe_bader_spin_density
 _atom_site_pbe_cm5_charge
 _atom_site_pbe_ddec_charge
 _atom_site_pbe_ddec_spin_density
 _atom_site_pbe_ddec_sum_bond_order
 _atom_site_pbe_magmom
Cd  Cd0  1  0.62690676  0.55606089  0.70973222  1  0  1.190206  0  1.843508  0  0  1.00725  0  2.331578  0  0  1.055654  0  2.281949  0  0  0.845723  0.973177  0  2.36546  0
Cd  Cd1  1  0.37309328  0.94394030  0.20973274  1  0  1.190209  0  1.843537  0  0  1.007252  0  2.331636  0  0  1.055654  0  2.282005  0  0  0.845736  0.973177  0  2.365534  0
Cd  Cd2  1  0.37309293  0.44394046  0.29026956  1  0  1.190242  0  1.843462  0  0  1.007275  0  2.331557  0  0  1.055676  0  2.28193  0  0  0.845737  0.9732  0  2.365448  0
Cd  Cd3  1  0.62690888  0.05605948  0.79026795  1  0  1.190256  0  1.84349  0  0  1.00731  0  2.331567  0  0  1.055713  0  2.281934  0  0  0.845749  0.973233  0  2.365472  0
H  H4  1  0.48726191  0.45278665  0.59760886  1  0  0.41219  0  0.870171  0  0  0.385432  0  0.937728  0  0  0.394665  0  0.924177  0  0  0.297457  0.378865  0  0.94737  0
H  H5  1  0.51274045  0.04721409  0.09760842  1  0  0.412187  0  0.87014  0  0  0.385461  0  0.937657  0  0  0.394688  0  0.924113  0  0  0.297525  0.3789  0  0.947292  0
H  H6  1  0.51273147  0.54721704  0.40239075  1  0  0.412258  0  0.870102  0  0  0.385505  0  0.937618  0  0  0.394734  0  0.924072  0  0  0.297508  0.378944  0  0.947255  0
H  H7  1  0.48726036  0.95278492  0.90239009  1  0  0.412198  0  0.870088  0  0  0.38546  0  0.937647  0  0  0.394689  0  0.924103  0  0  0.297525  0.378892  0  0.94729  0
H  H8  1  0.51555196  0.54920973  0.54713563  1  0  0.419248  0  0.834904  0  0  0.399693  0  0.89485  0  0  0.40844  0  0.884631  0  0  0.312348  0.393415  0  0.902221  0
H  H9  1  0.48444610  0.95079148  0.04713568  1  0  0.419258  0  0.83489  0  0  0.399698  0  0.89485  0  0  0.408443  0  0.884634  0  0  0.31237  0.39342  0  0.902222  0
H  H10  1  0.48443522  0.45079785  0.45286723  1  0  0.419291  0  0.834998  0  0  0.399735  0  0.894913  0  0  0.408479  0  0.884698  0  0  0.312385  0.393453  0  0.902292  0
H  H11  1  0.51555697  0.04920286  0.95286718  1  0  0.419293  0  0.83492  0  0  0.399751  0  0.89486  0  0  0.408497  0  0.884642  0  0  0.312424  0.393475  0  0.90223  0
H  H12  1  0.64061495  0.75377522  0.79730405  1  0  0.083219  0  0.945791  0  0  0.090665  0  1.014959  0  0  0.092463  0  1.012992  0  0  0.113929  0.089288  0  1.016475  0
H  H13  1  0.35937651  0.74622753  0.29730404  1  0  0.083195  0  0.945803  0  0  0.090647  0  1.014975  0  0  0.092443  0  1.013006  0  0  0.113893  0.089267  0  1.016498  0
H  H14  1  0.35938220  0.24622691  0.20269881  1  0  0.08318  0  0.945778  0  0  0.090619  0  1.014962  0  0  0.092418  0  1.012992  0  0  0.113903  0.089242  0  1.01648  0
H  H15  1  0.64062831  0.25377303  0.70269719  1  0  0.083204  0  0.945835  0  0  0.090655  0  1.015  0  0  0.092453  0  1.01303  0  0  0.113909  0.089284  0  1.016507  0
H  H16  1  0.73733922  0.82906566  0.91623153  1  0  0.115438  0  0.952502  0  0  0.128327  0  1.005645  0  0  0.131134  0  1.005263  0  0  0.108269  0.126321  0  1.006079  0
H  H17  1  0.26265116  0.67093318  0.41623037  1  0  0.1154  0  0.952548  0  0  0.1283  0  1.005667  0  0  0.13109  0  1.005314  0  0  0.10824  0.126297  0  1.006093  0
H  H18  1  0.26265884  0.17093102  0.08377133  1  0  0.115374  0  0.952565  0  0  0.128341  0  1.005614  0  0  0.131116  0  1.005283  0  0  0.108256  0.126335  0  1.006044  0
H  H19  1  0.73735236  0.32906738  0.58376978  1  0  0.115377  0  0.95253  0  0  0.12828  0  1.005648  0  0  0.13107  0  1.005295  0  0  0.108233  0.126281  0  1.006066  0
H  H20  1  0.79996442  0.70996972  0.01840177  1  0  0.094769  0  0.979651  0  0  0.102092  0  1.046085  0  0  0.105027  0  1.043832  0  0  0.10387  0.099953  0  1.047652  0
H  H21  1  0.20002688  0.79002917  0.51840093  1  0  0.094787  0  0.979615  0  0  0.10211  0  1.046029  0  0  0.105042  0  1.043781  0  0  0.103889  0.099974  0  1.047596  0
H  H22  1  0.20003251  0.29002929  0.98160055  1  0  0.094809  0  0.97965  0  0  0.102154  0  1.046052  0  0  0.10509  0  1.043798  0  0  0.103896  0.100019  0  1.04762  0
H  H23  1  0.79997523  0.20996984  0.48159976  1  0  0.094785  0  0.979643  0  0  0.102116  0  1.046047  0  0  0.105047  0  1.043801  0  0  0.103896  0.099984  0  1.047615  0
H  H24  1  0.86175745  0.60357737  0.09594647  1  0  0.094065  0  0.963234  0  0  0.10321  0  1.028287  0  0  0.105586  0  1.027302  0  0  0.104052  0.10146  0  1.029046  0
H  H25  1  0.13823666  0.89641994  0.59594666  1  0  0.094021  0  0.963198  0  0  0.103155  0  1.028281  0  0  0.105534  0  1.027299  0  0  0.104005  0.101406  0  1.029035  0
H  H26  1  0.13823301  0.39642164  0.90405693  1  0  0.094036  0  0.963265  0  0  0.103199  0  1.028294  0  0  0.105576  0  1.027315  0  0  0.10403  0.101448  0  1.02905  0
H  H27  1  0.86177052  0.10357751  0.40405402  1  0  0.094069  0  0.963219  0  0  0.103194  0  1.028303  0  0  0.105572  0  1.027321  0  0  0.10402  0.101444  0  1.029059  0
H  H28  1  0.91832744  0.46264297  0.18472345  1  0  0.089082  0  0.977495  0  0  0.099497  0  1.039067  0  0  0.101358  0  1.039901  0  0  0.098549  0.098116  0  1.038658  0
H  H29  1  0.08166735  0.03735543  0.68472526  1  0  0.089107  0  0.977469  0  0  0.099531  0  1.039028  0  0  0.101391  0  1.039863  0  0  0.098561  0.09815  0  1.038624  0
H  H30  1  0.08166437  0.53735682  0.81527941  1  0  0.089102  0  0.977603  0  0  0.099515  0  1.039156  0  0  0.101373  0  1.039995  0  0  0.098565  0.098138  0  1.038735  0
H  H31  1  0.91833978  0.96264124  0.31527760  1  0  0.089127  0  0.977509  0  0  0.099505  0  1.039103  0  0  0.101362  0  1.039942  0  0  0.098561  0.098127  0  1.038687  0
H  H32  1  0.84253172  0.27914049  0.15262618  1  0  0.05864  0  0.976139  0  0  0.065527  0  1.04307  0  0  0.067234  0  1.042289  0  0  0.101875  0.064233  0  1.043676  0
H  H33  1  0.15746805  0.22085713  0.65262911  1  0  0.058656  0  0.976086  0  0  0.065529  0  1.043033  0  0  0.067256  0  1.042232  0  0  0.101888  0.06424  0  1.043636  0
H  H34  1  0.15746650  0.72085852  0.84737560  1  0  0.058581  0  0.976158  0  0  0.065474  0  1.043077  0  0  0.067184  0  1.042294  0  0  0.10187  0.064179  0  1.04368  0
H  H35  1  0.84252877  0.77914033  0.34737266  1  0  0.058637  0  0.976067  0  0  0.065496  0  1.043019  0  0  0.067225  0  1.042219  0  0  0.101869  0.064203  0  1.043624  0
H  H36  1  0.63516118  0.27146518  0.92139642  1  0  0.108821  0  0.949248  0  0  0.118901  0  1.01126  0  0  0.121868  0  1.009422  0  0  0.104286  0.116768  0  1.012621  0
H  H37  1  0.36483871  0.22853630  0.42140021  1  0  0.108785  0  0.949208  0  0  0.118892  0  1.011197  0  0  0.121862  0  1.009356  0  0  0.104277  0.116756  0  1.01256  0
H  H38  1  0.36484763  0.72853694  0.07860264  1  0  0.108845  0  0.94914  0  0  0.118897  0  1.011188  0  0  0.121865  0  1.009347  0  0  0.1043  0.11676  0  1.012546  0
H  H39  1  0.63514145  0.77146350  0.57859939  1  0  0.108876  0  0.948988  0  0  0.11891  0  1.011059  0  0  0.121875  0  1.009213  0  0  0.104318  0.116782  0  1.012408  0
H  H40  1  0.58357610  0.39847452  0.82374306  1  0  0.10652  0  0.966722  0  0  0.116525  0  1.031544  0  0  0.118922  0  1.030861  0  0  0.102785  0.114786  0  1.032167  0
H  H41  1  0.41642585  0.10152542  0.32374527  1  0  0.106547  0  0.966724  0  0  0.116557  0  1.031538  0  0  0.118959  0  1.030844  0  0  0.102808  0.114812  0  1.03217  0
H  H42  1  0.41643254  0.60152527  0.17625763  1  0  0.106515  0  0.966727  0  0  0.116537  0  1.03153  0  0  0.118938  0  1.030838  0  0  0.102812  0.114787  0  1.032165  0
H  H43  1  0.58356725  0.89847437  0.67625651  1  0  0.106488  0  0.966761  0  0  0.116518  0  1.031558  0  0  0.118917  0  1.030869  0  0  0.102788  0.114773  0  1.032186  0
C  C44  1  0.97044590  0.40044833  0.72411811  1  0  0.523334  0  3.964187  0  0  0.482745  0  4.245395  0  0  0.509322  0  4.256062  0  0  0.320937  0.464546  0  4.237929  0
C  C45  1  0.02955721  0.09955551  0.22412167  1  0  0.523186  0  3.964082  0  0  0.482583  0  4.245303  0  0  0.509162  0  4.255974  0  0  0.320804  0.464389  0  4.237811  0
C  C46  1  0.02955537  0.59955691  0.27587878  1  0  0.523012  0  3.964249  0  0  0.482431  0  4.24548  0  0  0.50901  0  4.256154  0  0  0.320705  0.464241  0  4.23797  0
C  C47  1  0.97045757  0.90043960  0.77588119  1  0  0.523047  0  3.964374  0  0  0.482478  0  4.245623  0  0  0.509057  0  4.256295  0  0  0.32072  0.464286  0  4.238104  0
C  C48  1  0.26628947  0.39692676  0.71726266  1  0  0.535748  0  3.972616  0  0  0.492056  0  4.253861  0  0  0.519067  0  4.264816  0  0  0.322358  0.473601  0  4.246123  0
C  C49  1  0.73370956  0.10307475  0.21726618  1  0  0.535938  0  3.972486  0  0  0.492237  0  4.253718  0  0  0.519246  0  4.26467  0  0  0.322429  0.47378  0  4.245973  0
C  C50  1  0.73370391  0.60307693  0.28273423  1  0  0.536014  0  3.97244  0  0  0.492351  0  4.253655  0  0  0.519358  0  4.264605  0  0  0.322474  0.473901  0  4.245894  0
C  C51  1  0.26630415  0.89692348  0.78273342  1  0  0.535794  0  3.97261  0  0  0.492154  0  4.253829  0  0  0.519161  0  4.264774  0  0  0.322422  0.473713  0  4.246044  0
C  C52  1  0.98795080  0.68055940  0.65522868  1  0  0.529253  0  3.973152  0  0  0.486909  0  4.258645  0  0  0.513816  0  4.269452  0  0  0.314332  0.468445  0  4.251034  0
C  C53  1  0.01204546  0.81944647  0.15522950  1  0  0.529232  0  3.973309  0  0  0.486878  0  4.258799  0  0  0.513788  0  4.269612  0  0  0.314366  0.468413  0  4.251159  0
C  C54  1  0.01204393  0.31944506  0.34477255  1  0  0.529157  0  3.973573  0  0  0.486836  0  4.259076  0  0  0.513738  0  4.269888  0  0  0.314382  0.468375  0  4.25144  0
C  C55  1  0.98795822  0.18055643  0.84477119  1  0  0.529319  0  3.973479  0  0  0.487002  0  4.258966  0  0  0.513904  0  4.269776  0  0  0.314427  0.468538  0  4.251335  0
C  C56  1  0.28487514  0.68325685  0.65919311  1  0  0.514607  0  3.992098  0  0  0.473338  0  4.277362  0  0  0.499955  0  4.289107  0  0  0.309407  0.455094  0  4.269073  0
C  C57  1  0.71512075  0.81674358  0.15919661  1  0  0.514712  0  3.992146  0  0  0.473433  0  4.277421  0  0  0.500054  0  4.289175  0  0  0.309477  0.455199  0  4.269084  0
C  C58  1  0.71511785  0.31674139  0.34080540  1  0  0.514571  0  3.992401  0  0  0.473331  0  4.27768  0  0  0.499942  0  4.289429  0  0  0.309453  0.455092  0  4.26936  0
C  C59  1  0.28488935  0.18325854  0.84079974  1  0  0.514862  0  3.992456  0  0  0.473628  0  4.277708  0  0  0.500237  0  4.28945  0  0  0.309595  0.455388  0  4.269395  0
C  C60  1  0.66455091  0.70320014  0.84345945  1  0  0.152102  0  3.709868  0  0  0.116495  0  3.965911  0  0  0.125577  0  3.984256  0  0  0.051049  0.110659  0  3.953204  0
C  C61  1  0.33544197  0.79680182  0.34345996  1  0  0.152156  0  3.709857  0  0  0.116517  0  3.965952  0  0  0.125602  0  3.98429  0  0  0.051124  0.110684  0  3.95326  0
C  C62  1  0.33544866  0.29679965  0.15654124  1  0  0.152198  0  3.709837  0  0  0.116577  0  3.965927  0  0  0.125661  0  3.984262  0  0  0.051048  0.110743  0  3.953223  0
C  C63  1  0.66456031  0.20319953  0.65654019  1  0  0.152122  0  3.71002  0  0  0.116489  0  3.966113  0  0  0.125575  0  3.984449  0  0  0.051093  0.110661  0  3.953383  0
C  C64  1  0.71944059  0.74508363  0.91027065  1  0  -0.119586  0  3.724511  0  0  -0.13122  0  3.973933  0  0  -0.139369  0  3.995671  0  0  -0.085821  -0.125987  0  3.959288  0
C  C65  1  0.28055117  0.75491677  0.41026949  1  0  -0.119571  0  3.724562  0  0  -0.131191  0  3.973954  0  0  -0.13933  0  3.995706  0  0  -0.085796  -0.125957  0  3.959307  0
C  C66  1  0.28056017  0.25491460  0.08973221  1  0  -0.119568  0  3.724498  0  0  -0.131241  0  3.973892  0  0  -0.139371  0  3.995658  0  0  -0.085802  -0.126004  0  3.959237  0
C  C67  1  0.71945358  0.24508302  0.58973120  1  0  -0.119519  0  3.72462  0  0  -0.13113  0  3.974007  0  0  -0.13927  0  3.99576  0  0  -0.085759  -0.125891  0  3.959334  0
C  C68  1  0.75316029  0.67812789  0.96681725  1  0  -0.029413  0  3.685738  0  0  -0.055229  0  3.934544  0  0  -0.051693  0  3.95212  0  0  -0.062552  -0.057238  0  3.92247  0
C  C69  1  0.24683430  0.82187250  0.46681714  1  0  -0.029421  0  3.685775  0  0  -0.055241  0  3.934546  0  0  -0.051704  0  3.952119  0  0  -0.062583  -0.057251  0  3.922462  0
C  C70  1  0.24683788  0.32187034  0.03318399  1  0  -0.029428  0  3.685563  0  0  -0.055267  0  3.934392  0  0  -0.051729  0  3.95196  0  0  -0.062539  -0.057277  0  3.922317  0
C  C71  1  0.75316793  0.17812807  0.53318300  1  0  -0.029429  0  3.685685  0  0  -0.055253  0  3.934467  0  0  -0.051714  0  3.952037  0  0  -0.062579  -0.057265  0  3.922391  0
C  C72  1  0.72718124  0.56980131  0.95730407  1  0  -0.018309  0  3.740953  0  0  -0.004548  0  3.969306  0  0  -0.008672  0  3.99399  0  0  0.000521  -0.001996  0  3.952768  0
C  C73  1  0.27281573  0.93019675  0.45730560  1  0  -0.018366  0  3.740957  0  0  -0.004552  0  3.969221  0  0  -0.008677  0  3.993903  0  0  0.000477  -0.002001  0  3.952683  0
C  C74  1  0.27281963  0.43019848  0.04269771  1  0  -0.018291  0  3.740761  0  0  -0.00453  0  3.969162  0  0  -0.008654  0  3.993844  0  0  0.000494  -0.001976  0  3.952624  0
C  C75  1  0.72717980  0.06980071  0.54269454  1  0  -0.018401  0  3.740781  0  0  -0.0046  0  3.969108  0  0  -0.008724  0  3.993788  0  0  0.000451  -0.002044  0  3.952576  0
C  C76  1  0.66667067  0.53341833  0.88823261  1  0  0.211052  0  3.776862  0  0  0.204499  0  4.017996  0  0  0.211543  0  4.04062  0  0  0.11173  0.199795  0  4.002569  0
C  C77  1  0.33332882  0.96658285  0.38823310  1  0  0.210989  0  3.776805  0  0  0.204422  0  4.017931  0  0  0.211468  0  4.040553  0  0  0.111712  0.19972  0  4.00251  0
C  C78  1  0.33332879  0.46657990  0.11176753  1  0  0.211039  0  3.776884  0  0  0.204492  0  4.018015  0  0  0.211538  0  4.040637  0  0  0.111739  0.199792  0  4.002591  0
C  C79  1  0.66667081  0.03341772  0.61176650  1  0  0.211042  0  3.776815  0  0  0.204481  0  4.01796  0  0  0.211525  0  4.040587  0  0  0.111739  0.199778  0  4.002549  0
C  C80  1  0.76070629  0.49485984  0.01372641  1  0  -0.019577  0  3.743749  0  0  -0.005695  0  3.968816  0  0  -0.008996  0  3.994013  0  0  -0.003264  -0.003602  0  3.951907  0
C  C81  1  0.23929420  0.00513779  0.51372779  1  0  -0.019563  0  3.743847  0  0  -0.005716  0  3.968866  0  0  -0.009015  0  3.99406  0  0  -0.003189  -0.003626  0  3.951963  0
C  C82  1  0.23929971  0.50513917  0.98627428  1  0  -0.019578  0  3.743602  0  0  -0.005732  0  3.968771  0  0  -0.009031  0  3.993967  0  0  -0.003254  -0.003643  0  3.951871  0
C  C83  1  0.76069749  0.99486044  0.48627127  1  0  -0.019477  0  3.743654  0  0  -0.005661  0  3.968741  0  0  -0.00896  0  3.993934  0  0  -0.003156  -0.003572  0  3.95184  0
C  C84  1  0.83025285  0.52248651  0.08228496  1  0  -0.051223  0  3.708763  0  0  -0.077008  0  3.961078  0  0  -0.075743  0  3.981157  0  0  -0.071871  -0.077548  0  3.947314  0
C  C85  1  0.16974525  0.97751314  0.58228571  1  0  -0.051159  0  3.708751  0  0  -0.076951  0  3.96107  0  0  -0.075689  0  3.98115  0  0  -0.071853  -0.077488  0  3.947305  0
C  C86  1  0.16974679  0.47751406  0.91771572  1  0  -0.051101  0  3.708725  0  0  -0.076871  0  3.961023  0  0  -0.075609  0  3.981102  0  0  -0.07182  -0.077408  0  3.947255  0
C  C87  1  0.83025151  0.02248354  0.41771443  1  0  -0.051227  0  3.708794  0  0  -0.076997  0  3.961079  0  0  -0.075734  0  3.981155  0  0  -0.071867  -0.077531  0  3.947308  0
C  C88  1  0.86070771  0.44483861  0.13196984  1  0  -0.121127  0  3.752444  0  0  -0.13431  0  4.005401  0  0  -0.140916  0  4.028718  0  0  -0.092995  -0.129965  0  3.989569  0
C  C89  1  0.13929198  0.05515901  0.63197169  1  0  -0.121178  0  3.752616  0  0  -0.134353  0  4.005574  0  0  -0.140961  0  4.0289  0  0  -0.09302  -0.13001  0  3.98975  0
C  C90  1  0.13928782  0.55515884  0.86803085  1  0  -0.121248  0  3.75279  0  0  -0.134432  0  4.00575  0  0  -0.141035  0  4.029067  0  0  -0.09304  -0.130082  0  3.989894  0
C  C91  1  0.86071007  0.94483922  0.36802900  1  0  -0.121182  0  3.752608  0  0  -0.134331  0  4.005552  0  0  -0.140936  0  4.028877  0  0  -0.093  -0.129985  0  3.989703  0
C  C92  1  0.81945021  0.34058271  0.11337271  1  0  0.134172  0  3.760755  0  0  0.108573  0  4.023711  0  0  0.114641  0  4.041182  0  0  0.040802  0.104743  0  4.011675  0
C  C93  1  0.18054929  0.15941336  0.61337621  1  0  0.134153  0  3.760739  0  0  0.108542  0  4.023727  0  0  0.114594  0  4.041193  0  0  0.040782  0.104711  0  4.011691  0
C  C94  1  0.18055427  0.65941319  0.88662852  1  0  0.13421  0  3.760709  0  0  0.108611  0  4.023674  0  0  0.114676  0  4.041144  0  0  0.040796  0.104782  0  4.011631  0
C  C95  1  0.81944246  0.84058565  0.38662556  1  0  0.134175  0  3.760663  0  0  0.108603  0  4.02362  0  0  0.114652  0  4.041085  0  0  0.040812  0.104774  0  4.011573  0
C  C96  1  0.72612210  0.38676004  0.99974091  1  0  0.190934  0  3.795483  0  0  0.192599  0  4.038909  0  0  0.197452  0  4.060166  0  0  0.107971  0.189328  0  4.024483  0
C  C97  1  0.27387794  0.11323911  0.49974356  1  0  0.190967  0  3.795619  0  0  0.192719  0  4.038907  0  0  0.197571  0  4.060164  0  0  0.10799  0.189449  0  4.024476  0
C  C98  1  0.27388659  0.61324053  0.00026033  1  0  0.19078  0  3.795769  0  0  0.192378  0  4.039321  0  0  0.197228  0  4.060582  0  0  0.107843  0.189109  0  4.024891  0
C  C99  1  0.72610598  0.88675914  0.50025713  1  0  0.190736  0  3.795819  0  0  0.192499  0  4.039079  0  0  0.19735  0  4.060339  0  0  0.107873  0.189231  0  4.024644  0
C  C100  1  0.66009394  0.35445142  0.93035866  1  0  -0.099542  0  3.711588  0  0  -0.123334  0  3.964439  0  0  -0.125275  0  3.984443  0  0  -0.079243  -0.121849  0  3.950697  0
C  C101  1  0.33990446  0.14554695  0.43036244  1  0  -0.099547  0  3.711576  0  0  -0.123387  0  3.964395  0  0  -0.12533  0  3.984401  0  0  -0.07924  -0.121902  0  3.950655  0
C  C102  1  0.33991465  0.64554758  0.06963985  1  0  -0.099389  0  3.711563  0  0  -0.123126  0  3.964413  0  0  -0.125069  0  3.984423  0  0  -0.079164  -0.12164  0  3.950665  0
C  C103  1  0.66008470  0.85445207  0.56963770  1  0  -0.099375  0  3.711424  0  0  -0.123134  0  3.964223  0  0  -0.125065  0  3.984222  0  0  -0.079159  -0.121643  0  3.950454  0
C  C104  1  0.63260371  0.42465272  0.87643092  1  0  -0.138099  0  3.73608  0  0  -0.160044  0  3.992548  0  0  -0.164885  0  4.014798  0  0  -0.089357  -0.156659  0  3.977299  0
C  C105  1  0.36739599  0.07534877  0.37643310  1  0  -0.138064  0  3.736179  0  0  -0.160021  0  3.992656  0  0  -0.164861  0  4.01491  0  0  -0.089372  -0.15664  0  3.977421  0
C  C106  1  0.36740099  0.57534629  0.12356922  1  0  -0.138179  0  3.736077  0  0  -0.160137  0  3.992532  0  0  -0.164977  0  4.014786  0  0  -0.089414  -0.156756  0  3.977295  0
C  C107  1  0.63259723  0.92465258  0.62356705  1  0  -0.138153  0  3.736144  0  0  -0.160137  0  3.992617  0  0  -0.164979  0  4.014869  0  0  -0.0894  -0.156751  0  3.977367  0
N  N108  1  0.83076856  0.43123886  0.71503520  1  0  -0.603984  0  2.829112  0  0  -0.552276  0  3.113217  0  0  -0.575898  0  3.117455  0  0  -0.378743  -0.536054  0  3.110237  0
N  N109  1  0.16923828  0.06876343  0.21503887  1  0  -0.60395  0  2.828927  0  0  -0.552235  0  3.113039  0  0  -0.575859  0  3.117279  0  0  -0.378685  -0.535986  0  3.110029  0
N  N110  1  0.16923777  0.56876482  0.28496277  1  0  -0.603866  0  2.828991  0  0  -0.552152  0  3.113081  0  0  -0.575779  0  3.117324  0  0  -0.378613  -0.535899  0  3.11006  0
N  N111  1  0.83076906  0.93123636  0.78496236  1  0  -0.603944  0  2.828957  0  0  -0.552222  0  3.113044  0  0  -0.575851  0  3.117287  0  0  -0.378644  -0.53598  0  3.110034  0
N  N112  1  0.11695452  0.35886391  0.73728053  1  0  -0.454593  0  3.298874  0  0  -0.395399  0  3.556267  0  0  -0.420446  0  3.561291  0  0  -0.296193  -0.378002  0  3.552268  0
N  N113  1  0.88305247  0.14113915  0.23728307  1  0  -0.454617  0  3.29868  0  0  -0.395385  0  3.556051  0  0  -0.420434  0  3.561073  0  0  -0.296157  -0.377986  0  3.552049  0
N  N114  1  0.88305327  0.64114210  0.26271581  1  0  -0.454591  0  3.298568  0  0  -0.395408  0  3.555968  0  0  -0.420459  0  3.560996  0  0  -0.296178  -0.378006  0  3.551958  0
N  N115  1  0.11695324  0.85885597  0.76271653  1  0  -0.454495  0  3.298764  0  0  -0.395357  0  3.556189  0  0  -0.420402  0  3.561212  0  0  -0.296162  -0.377948  0  3.552154  0
N  N116  1  0.40945413  0.42331520  0.70080360  1  0  -0.650105  0  2.836492  0  0  -0.592004  0  3.110881  0  0  -0.615816  0  3.113622  0  0  -0.389872  -0.57563  0  3.108917  0
N  N117  1  0.59055643  0.07668552  0.20080702  1  0  -0.650155  0  2.836512  0  0  -0.592073  0  3.110916  0  0  -0.615881  0  3.113654  0  0  -0.389902  -0.575702  0  3.10896  0
N  N118  1  0.59055502  0.57669159  0.29919220  1  0  -0.650177  0  2.836654  0  0  -0.5921  0  3.111046  0  0  -0.615905  0  3.113781  0  0  -0.389881  -0.575721  0  3.109076  0
N  N119  1  0.40945317  0.92330959  0.79918661  1  0  -0.650005  0  2.836801  0  0  -0.591928  0  3.111184  0  0  -0.615732  0  3.113918  0  0  -0.389821  -0.575535  0  3.109186  0
N  N120  1  0.84409025  0.67241460  0.67648970  1  0  -0.611985  0  2.815588  0  0  -0.560732  0  3.09717  0  0  -0.584821  0  3.101859  0  0  -0.388919  -0.544186  0  3.093904  0
N  N121  1  0.15591139  0.82759282  0.17648953  1  0  -0.612012  0  2.815599  0  0  -0.56075  0  3.097186  0  0  -0.584841  0  3.101876  0  0  -0.38899  -0.544203  0  3.093914  0
N  N122  1  0.15590324  0.32759064  0.32350990  1  0  -0.611928  0  2.815839  0  0  -0.560672  0  3.097406  0  0  -0.584761  0  3.102103  0  0  -0.388966  -0.544121  0  3.09413  0
N  N123  1  0.84409083  0.17240774  0.82351116  1  0  -0.612062  0  2.815666  0  0  -0.560811  0  3.097239  0  0  -0.584907  0  3.101935  0  0  -0.388978  -0.544254  0  3.093962  0
N  N124  1  0.13949137  0.69336006  0.62588038  1  0  -0.458985  0  3.293874  0  0  -0.401668  0  3.550538  0  0  -0.425674  0  3.552772  0  0  -0.30294  -0.384851  0  3.548354  0
N  N125  1  0.86050320  0.80664193  0.12588506  1  0  -0.459008  0  3.294219  0  0  -0.401674  0  3.550877  0  0  -0.425688  0  3.553123  0  0  -0.302934  -0.38484  0  3.548655  0
N  N126  1  0.86050044  0.30663974  0.37411868  1  0  -0.45888  0  3.294137  0  0  -0.401621  0  3.550835  0  0  -0.425615  0  3.553069  0  0  -0.302926  -0.384792  0  3.548625  0
N  N127  1  0.13949677  0.19336331  0.87411345  1  0  -0.459083  0  3.29423  0  0  -0.401832  0  3.550947  0  0  -0.425822  0  3.553174  0  0  -0.303014  -0.385  0  3.548742  0
N  N128  1  0.42565409  0.67747735  0.68359305  1  0  -0.622012  0  2.807059  0  0  -0.571171  0  3.08837  0  0  -0.59483  0  3.092825  0  0  -0.392639  -0.554898  0  3.085249  0
N  N129  1  0.57433396  0.82252074  0.18359481  1  0  -0.622049  0  2.806935  0  0  -0.571219  0  3.088289  0  0  -0.594868  0  3.092716  0  0  -0.392635  -0.554919  0  3.085125  0
N  N130  1  0.57433743  0.32251855  0.31640655  1  0  -0.622031  0  2.807208  0  0  -0.57119  0  3.088516  0  0  -0.59485  0  3.092975  0  0  -0.392673  -0.554895  0  3.085366  0
N  N131  1  0.42566196  0.17748217  0.81640479  1  0  -0.622188  0  2.807447  0  0  -0.571355  0  3.088744  0  0  -0.595012  0  3.093197  0  0  -0.392769  -0.555068  0  3.085604  0
N  N132  1  0.64053138  0.60108506  0.83236029  1  0  -0.403408  0  3.246332  0  0  -0.325263  0  3.509936  0  0  -0.347233  0  3.529186  0  0  -0.331074  -0.31018  0  3.496345  0
N  N133  1  0.35946411  0.89891768  0.33236080  1  0  -0.403363  0  3.246198  0  0  -0.325226  0  3.509839  0  0  -0.347197  0  3.529089  0  0  -0.331085  -0.310154  0  3.496275  0
N  N134  1  0.35947214  0.39891550  0.16764040  1  0  -0.403457  0  3.246276  0  0  -0.3253  0  3.509864  0  0  -0.34727  0  3.529114  0  0  -0.331054  -0.310227  0  3.496294  0
N  N135  1  0.64053558  0.10108367  0.66763880  1  0  -0.403372  0  3.2463  0  0  -0.325242  0  3.50994  0  0  -0.347212  0  3.529188  0  0  -0.331088  -0.31017  0  3.496369  0
N  N136  1  0.75394751  0.31100529  0.04961774  1  0  -0.357041  0  3.024293  0  0  -0.329328  0  3.288138  0  0  -0.339565  0  3.301565  0  0  -0.33117  -0.322317  0  3.27888  0
N  N137  1  0.24605324  0.18899390  0.54962074  1  0  -0.357046  0  3.024201  0  0  -0.32935  0  3.288009  0  0  -0.339591  0  3.301451  0  0  -0.331181  -0.322338  0  3.27875  0
N  N138  1  0.24605978  0.68899372  0.95038349  1  0  -0.356979  0  3.024173  0  0  -0.329234  0  3.288026  0  0  -0.339473  0  3.301465  0  0  -0.331144  -0.322224  0  3.278769  0
N  N139  1  0.75393204  0.81100512  0.45037940  1  0  -0.357019  0  3.024253  0  0  -0.329329  0  3.288028  0  0  -0.339572  0  3.301477  0  0  -0.33118  -0.32231  0  3.278755  0
O  O140  1  0.57778678  0.49732032  0.57426034  1  0  -0.804417  0  1.806936  0  0  -0.75513  0  1.972634  0  0  -0.773915  0  1.946523  0  0  -0.575659  -0.74174  0  1.990958  0
O  O141  1  0.42221678  0.00268042  0.07426257  1  0  -0.804423  0  1.806973  0  0  -0.755149  0  1.97265  0  0  -0.773929  0  1.946555  0  0  -0.575742  -0.741768  0  1.990958  0
O  O142  1  0.42220497  0.50267869  0.42573111  1  0  -0.804524  0  1.807078  0  0  -0.755222  0  1.972724  0  0  -0.773999  0  1.946619  0  0  -0.575727  -0.741835  0  1.991044  0
O  O143  1  0.57778815  0.99732171  0.92573269  1  0  -0.804465  0  1.806975  0  0  -0.755194  0  1.972676  0  0  -0.773976  0  1.946563  0  0  -0.575779  -0.741805  0  1.991007  0
