# generated using pymatgen
data_NdH11C16N2(ClO)6
_symmetry_space_group_name_H-M   'P 1'
_cell_length_a   8.83413043
_cell_length_b   12.18208253
_cell_length_c   12.29199103
_cell_angle_alpha   109.26614342
_cell_angle_beta   104.97001411
_cell_angle_gamma   102.44747739
_symmetry_Int_Tables_number   1
_chemical_formula_structural   NdH11C16N2(ClO)6
_chemical_formula_sum   'Nd2 H22 C32 N4 Cl12 O12'
_cell_volume   1138.87343344
_cell_formula_units_Z   2
loop_
 _symmetry_equiv_pos_site_id
 _symmetry_equiv_pos_as_xyz
  1  'x, y, z'
loop_
 _atom_site_type_symbol
 _atom_site_label
 _atom_site_symmetry_multiplicity
 _atom_site_fract_x
 _atom_site_fract_y
 _atom_site_fract_z
 _atom_site_occupancy
 _atom_site_hle17_bader_spin_density
 _atom_site_hle17_ddec_charge
 _atom_site_hle17_ddec_spin_density
 _atom_site_hle17_ddec_sum_bond_order
 _atom_site_hle17_magmom
 _atom_site_hse06_10hf_bader_spin_density
 _atom_site_hse06_10hf_ddec_charge
 _atom_site_hse06_10hf_ddec_spin_density
 _atom_site_hse06_10hf_ddec_sum_bond_order
 _atom_site_hse06_10hf_magmom
 _atom_site_hse06_bader_spin_density
 _atom_site_hse06_ddec_charge
 _atom_site_hse06_ddec_spin_density
 _atom_site_hse06_ddec_sum_bond_order
 _atom_site_hse06_magmom
 _atom_site_pbe_bader_spin_density
 _atom_site_pbe_cm5_charge
 _atom_site_pbe_ddec_charge
 _atom_site_pbe_ddec_spin_density
 _atom_site_pbe_ddec_sum_bond_order
 _atom_site_pbe_magmom
Nd  Nd0  1  0.34831376  0.11720132  0.00861922  1  0  2.270171  0  1.66316  0  0  2.088204  0  2.145808  0  0  2.192767  0  1.989897  0  0  1.505071  2.052857  0  2.180575  0
Nd  Nd1  1  0.65168496  0.88279652  0.99137797  1  0  2.270176  0  1.663141  0  0  2.088176  0  2.14585  0  0  2.192777  0  1.989877  0  0  1.505079  2.052837  0  2.180601  0
H  H2  1  0.91581470  0.15460221  0.95885591  1  0  0.126271  0  0.924876  0  0  0.124893  0  0.990882  0  0  0.128706  0  0.98823  0  0  0.12234  0.122091  0  0.993153  0
H  H3  1  0.08418637  0.84539564  0.04114170  1  0  0.126271  0  0.924866  0  0  0.124888  0  0.99088  0  0  0.128702  0  0.988227  0  0  0.122346  0.122085  0  0.993152  0
H  H4  1  0.05417857  0.87027883  0.69282825  1  0  0.108307  0  0.946875  0  0  0.107905  0  1.013811  0  0  0.110809  0  1.011632  0  0  0.109357  0.105821  0  1.015485  0
H  H5  1  0.94581940  0.12971993  0.30716991  1  0  0.108302  0  0.946854  0  0  0.10788  0  1.013834  0  0  0.110785  0  1.011657  0  0  0.109341  0.105795  0  1.015508  0
H  H6  1  0.50272728  0.11222778  0.39517577  1  0  0.101029  0  0.94385  0  0  0.097286  0  1.019119  0  0  0.100343  0  1.016639  0  0  0.100397  0.095024  0  1.021019  0
H  H7  1  0.49727653  0.88777100  0.60482101  1  0  0.101077  0  0.943923  0  0  0.097326  0  1.019179  0  0  0.100383  0  1.016701  0  0  0.100409  0.095065  0  1.021078  0
H  H8  1  0.49472932  0.33034370  0.30214116  1  0  0.07876  0  0.969591  0  0  0.081048  0  1.045179  0  0  0.084565  0  1.041541  0  0  0.111701  0.078333  0  1.048239  0
H  H9  1  0.50526439  0.66965599  0.69786140  1  0  0.078737  0  0.96962  0  0  0.081028  0  1.045192  0  0  0.084546  0  1.041554  0  0  0.111696  0.078314  0  1.048251  0
H  H10  1  0.54804844  0.54983179  0.43966640  1  0  0.096099  0  0.969842  0  0  0.103149  0  1.03553  0  0  0.105954  0  1.035263  0  0  0.097395  0.101158  0  1.035754  0
H  H11  1  0.45194608  0.45016974  0.56033529  1  0  0.096129  0  0.96986  0  0  0.103154  0  1.035559  0  0  0.105959  0  1.035291  0  0  0.097387  0.101166  0  1.035779  0
H  H12  1  0.47087452  0.69107583  0.34031229  1  0  0.086278  0  0.949177  0  0  0.095107  0  1.013392  0  0  0.097733  0  1.011223  0  0  0.095549  0.093147  0  1.014979  0
H  H13  1  0.52912502  0.30892386  0.65968646  1  0  0.086288  0  0.949161  0  0  0.095117  0  1.013375  0  0  0.097743  0  1.011206  0  0  0.09555  0.093159  0  1.014965  0
H  H14  1  0.35694045  0.61043848  0.11277685  1  0  0.112838  0  0.984017  0  0  0.118061  0  1.053505  0  0  0.122141  0  1.050975  0  0  0.100313  0.114887  0  1.055767  0
H  H15  1  0.64305638  0.38956305  0.88722120  1  0  0.112865  0  0.984037  0  0  0.118088  0  1.053518  0  0  0.122166  0  1.050989  0  0  0.100339  0.114918  0  1.055779  0
H  H16  1  0.29427431  0.54287117  0.93016274  1  0  0.116644  0  0.990644  0  0  0.122905  0  1.056757  0  0  0.126919  0  1.054327  0  0  0.10255  0.120069  0  1.058395  0
H  H17  1  0.70572091  0.45712667  0.06983624  1  0  0.116616  0  0.990752  0  0  0.122912  0  1.056798  0  0  0.126924  0  1.054374  0  0  0.102559  0.120077  0  1.058436  0
H  H18  1  0.14244805  0.43959823  0.70406162  1  0  0.094753  0  0.920889  0  0  0.108293  0  0.973005  0  0  0.110824  0  0.97147  0  0  0.105596  0.106361  0  0.974271  0
H  H19  1  0.85754641  0.56040053  0.29593672  1  0  0.094767  0  0.92087  0  0  0.108315  0  0.972979  0  0  0.110843  0  0.971446  0  0  0.105605  0.106381  0  0.974244  0
H  H20  1  0.05705677  0.20806263  0.59915905  1  0  0.087318  0  0.993167  0  0  0.089548  0  1.068672  0  0  0.092541  0  1.067673  0  0  0.088204  0.087364  0  1.069499  0
H  H21  1  0.94294237  0.79193614  0.40084014  1  0  0.087297  0  0.993171  0  0  0.089546  0  1.06866  0  0  0.09254  0  1.06766  0  0  0.088205  0.08736  0  1.069486  0
H  H22  1  0.13876512  0.09363626  0.72678479  1  0  0.074349  0  0.962247  0  0  0.078994  0  1.034262  0  0  0.081668  0  1.031697  0  0  0.111435  0.076763  0  1.036774  0
H  H23  1  0.86123636  0.90636251  0.27321401  1  0  0.074352  0  0.962263  0  0  0.079005  0  1.034266  0  0  0.081678  0  1.031704  0  0  0.111443  0.076771  0  1.036777  0
C  C24  1  0.68437789  0.17989832  0.97780724  1  0  0.679247  0  3.906749  0  0  0.629035  0  4.207017  0  0  0.662068  0  4.204235  0  0  0.210138  0.606453  0  4.212417  0
C  C25  1  0.31562172  0.82010414  0.02219487  1  0  0.679322  0  3.90663  0  0  0.62911  0  4.206897  0  0  0.662145  0  4.204112  0  0  0.210179  0.606529  0  4.2123  0
C  C26  1  0.83386971  0.20658586  0.93781043  1  0  0.008891  0  3.541753  0  0  -0.002079  0  3.81584  0  0  0.0004  0  3.817991  0  0  -0.012635  -0.004045  0  3.814348  0
C  C27  1  0.16612709  0.79341290  0.06218832  1  0  0.008861  0  3.541628  0  0  -0.002108  0  3.815706  0  0  0.000374  0  3.81785  0  0  -0.01267  -0.004073  0  3.814216  0
C  C28  1  0.92795883  0.91416270  0.82491287  1  0  0.71306  0  3.873546  0  0  0.662336  0  4.177055  0  0  0.696589  0  4.169776  0  0  0.225161  0.639217  0  4.183199  0
C  C29  1  0.07204154  0.08583883  0.17508744  1  0  0.713001  0  3.873632  0  0  0.662306  0  4.177107  0  0  0.696558  0  4.169832  0  0  0.225105  0.639186  0  4.183251  0
C  C30  1  0.93978354  0.82928943  0.70423642  1  0  0.009907  0  3.545069  0  0  -0.00143  0  3.818495  0  0  0.001457  0  3.820739  0  0  -0.015158  -0.003624  0  3.816607  0
C  C31  1  0.06021873  0.17070843  0.29576548  1  0  0.009931  0  3.545036  0  0  -0.001471  0  3.81858  0  0  0.001414  0  3.820828  0  0  -0.015178  -0.00366  0  3.816692  0
C  C32  1  0.61283366  0.08927044  0.25424180  1  0  0.700669  0  3.864099  0  0  0.649167  0  4.168003  0  0  0.682862  0  4.163124  0  0  0.224149  0.626323  0  4.17302  0
C  C33  1  0.38717382  0.91073662  0.74575919  1  0  0.700657  0  3.864008  0  0  0.649166  0  4.167881  0  0  0.682861  0  4.163001  0  0  0.224218  0.626322  0  4.172904  0
C  C34  1  0.62712010  0.12233381  0.39078887  1  0  0.008361  0  3.547727  0  0  -0.002386  0  3.822268  0  0  -7.5e-05  0  3.825631  0  0  -0.020233  -0.004029  0  3.819447  0
C  C35  1  0.37288571  0.87766681  0.60921132  1  0  0.00821  0  3.547985  0  0  -0.002497  0  3.822464  0  0  -0.000189  0  3.825831  0  0  -0.020237  -0.004141  0  3.819647  0
C  C36  1  0.46531733  0.39551471  0.26403881  1  0  0.148871  0  3.717522  0  0  0.119379  0  3.975237  0  0  0.125788  0  3.995052  0  0  0.049629  0.115017  0  3.96398  0
C  C37  1  0.53467913  0.60448590  0.73596293  1  0  0.148875  0  3.717622  0  0  0.119411  0  3.975282  0  0  0.125819  0  3.995098  0  0  0.049647  0.115049  0  3.964025  0
C  C38  1  0.49392223  0.51734278  0.33985227  1  0  -0.132817  0  3.754656  0  0  -0.146032  0  4.00732  0  0  -0.153947  0  4.030541  0  0  -0.090352  -0.140892  0  3.99137  0
C  C39  1  0.50607968  0.48265692  0.66014935  1  0  -0.132823  0  3.754703  0  0  -0.146018  0  4.007348  0  0  -0.153932  0  4.030569  0  0  -0.09032  -0.14088  0  3.991402  0
C  C40  1  0.45257913  0.59539783  0.28481972  1  0  0.0026  0  3.744705  0  0  -0.016936  0  3.996149  0  0  -0.013869  0  4.01613  0  0  -0.072468  -0.018485  0  3.982117  0
C  C41  1  0.54742043  0.40460186  0.71518066  1  0  0.002538  0  3.744764  0  0  -0.016997  0  3.996201  0  0  -0.01393  0  4.016178  0  0  -0.072503  -0.018547  0  3.982177  0
C  C42  1  0.38745755  0.55000330  0.15688086  1  0  -0.135416  0  3.675749  0  0  -0.154312  0  3.922174  0  0  -0.16129  0  3.942585  0  0  -0.082532  -0.149637  0  3.908256  0
C  C43  1  0.61254006  0.44999731  0.84311866  1  0  -0.135426  0  3.675705  0  0  -0.154289  0  3.922132  0  0  -0.161274  0  3.942564  0  0  -0.082542  -0.149617  0  3.908218  0
C  C44  1  0.36272832  0.42639211  0.08625820  1  0  0.188103  0  3.763968  0  0  0.185906  0  4.007279  0  0  0.19265  0  4.028301  0  0  0.123381  0.181389  0  3.994439  0
C  C45  1  0.63726656  0.57360757  0.91374213  1  0  0.188098  0  3.763877  0  0  0.185821  0  4.007291  0  0  0.192569  0  4.028299  0  0  0.123381  0.181308  0  3.99445  0
C  C46  1  0.28824286  0.37166526  0.94979277  1  0  0.183817  0  3.765106  0  0  0.18211  0  4.008506  0  0  0.188342  0  4.02973  0  0  0.120671  0.177757  0  3.995714  0
C  C47  1  0.71175277  0.62833351  0.05020659  1  0  0.183795  0  3.765071  0  0  0.182106  0  4.008485  0  0  0.188335  0  4.029712  0  0  0.120636  0.177749  0  3.995694  0
C  C48  1  0.25556781  0.44317164  0.88345577  1  0  -0.143013  0  3.696246  0  0  -0.163689  0  3.946869  0  0  -0.170334  0  3.967047  0  0  -0.085144  -0.159183  0  3.932801  0
C  C49  1  0.74443056  0.55682804  0.11654276  1  0  -0.14306  0  3.696335  0  0  -0.16375  0  3.946956  0  0  -0.170393  0  3.967134  0  0  -0.085165  -0.159246  0  3.932889  0
C  C50  1  0.17113185  0.38521917  0.75650212  1  0  0.006008  0  3.719984  0  0  -0.012467  0  3.970362  0  0  -0.009379  0  3.989392  0  0  -0.069633  -0.014121  0  3.956963  0
C  C51  1  0.82886571  0.61477868  0.24349566  1  0  0.006071  0  3.719877  0  0  -0.012422  0  3.970286  0  0  -0.009326  0  3.989299  0  0  -0.069616  -0.014078  0  3.956884  0
C  C52  1  0.12477260  0.25760039  0.69791334  1  0  -0.125907  0  3.760198  0  0  -0.140464  0  4.017087  0  0  -0.14824  0  4.040729  0  0  -0.091986  -0.135202  0  4.000735  0
C  C53  1  0.87522495  0.74239746  0.30208363  1  0  -0.125895  0  3.760176  0  0  -0.140477  0  4.017065  0  0  -0.148252  0  4.040705  0  0  -0.091987  -0.135214  0  4.000705  0
C  C54  1  0.16781508  0.19308711  0.76899511  1  0  0.149831  0  3.722904  0  0  0.120542  0  3.979979  0  0  0.126833  0  4.000558  0  0  0.048069  0.116215  0  3.968226  0
C  C55  1  0.83218563  0.80691258  0.23100304  1  0  0.149767  0  3.723017  0  0  0.12048  0  3.980075  0  0  0.126771  0  4.000656  0  0  0.048053  0.116153  0  3.968317  0
N  N56  1  0.40051027  0.35032562  0.14024431  1  0  -0.444279  0  3.217007  0  0  -0.390566  0  3.481126  0  0  -0.411374  0  3.499693  0  0  -0.383663  -0.380672  0  3.470093  0
N  N57  1  0.59948577  0.64967406  0.85975624  1  0  -0.444241  0  3.21708  0  0  -0.39051  0  3.481223  0  0  -0.411322  0  3.499787  0  0  -0.383661  -0.380618  0  3.470188  0
N  N58  1  0.24685128  0.24782528  0.89187469  1  0  -0.445023  0  3.22379  0  0  -0.38983  0  3.485845  0  0  -0.4106  0  3.50462  0  0  -0.38965  -0.380014  0  3.474712  0
N  N59  1  0.75314904  0.75217349  0.10812471  1  0  -0.444963  0  3.223837  0  0  -0.38977  0  3.485895  0  0  -0.410547  0  3.504673  0  0  -0.389644  -0.379956  0  3.474759  0
Cl  Cl60  1  0.95111083  0.36516030  0.01135759  1  0  -0.065802  0  1.402551  0  0  -0.052826  0  1.653639  0  0  -0.05619  0  1.648071  0  0  0.008117  -0.050043  0  1.65759  0
Cl  Cl61  1  0.04888869  0.63483939  0.98863872  1  0  -0.065781  0  1.40252  0  0  -0.052798  0  1.653596  0  0  -0.056161  0  1.648027  0  0  0.008127  -0.050018  0  1.657548  0
Cl  Cl62  1  0.75570435  0.15385730  0.77346630  1  0  -0.07972  0  1.263331  0  0  -0.067427  0  1.50109  0  0  -0.070866  0  1.494047  0  0  -0.006879  -0.06443  0  1.505879  0
Cl  Cl63  1  0.24429322  0.84614055  0.22653311  1  0  -0.079744  0  1.263259  0  0  -0.067448  0  1.501012  0  0  -0.070888  0  1.493968  0  0  -0.006897  -0.064455  0  1.505795  0
Cl  Cl64  1  0.77173395  0.81152112  0.57479295  1  0  -0.088855  0  1.295197  0  0  -0.067987  0  1.536568  0  0  -0.071181  0  1.526745  0  0  -0.005805  -0.065389  0  1.543275  0
Cl  Cl65  1  0.22826210  0.18847857  0.42520760  1  0  -0.088827  0  1.295238  0  0  -0.06794  0  1.536639  0  0  -0.071132  0  1.526815  0  0  -0.005789  -0.06534  0  1.543343  0
Cl  Cl66  1  0.94168167  0.68473401  0.70729675  1  0  -0.088234  0  1.239518  0  0  -0.07747  0  1.450882  0  0  -0.079085  0  1.442748  0  0  -0.021735  -0.076144  0  1.456546  0
Cl  Cl67  1  0.05831867  0.31526477  0.29270591  1  0  -0.088254  0  1.239503  0  0  -0.077464  0  1.450889  0  0  -0.079078  0  1.442755  0  0  -0.021732  -0.07614  0  1.456555  0
Cl  Cl68  1  0.70652877  0.02632598  0.45465480  1  0  -0.100451  0  1.33136  0  0  -0.090591  0  1.575207  0  0  -0.092678  0  1.565792  0  0  -0.029847  -0.089005  0  1.581683  0
Cl  Cl69  1  0.29348133  0.97367648  0.54534108  1  0  -0.100429  0  1.331354  0  0  -0.090586  0  1.575192  0  0  -0.092674  0  1.565779  0  0  -0.029876  -0.089  0  1.581668  0
Cl  Cl70  1  0.74901653  0.28098724  0.48285579  1  0  -0.095888  0  1.224444  0  0  -0.079853  0  1.437159  0  0  -0.081227  0  1.428187  0  0  -0.023326  -0.078784  0  1.443345  0
Cl  Cl71  1  0.25098696  0.71901338  0.51714723  1  0  -0.095835  0  1.224501  0  0  -0.079808  0  1.437203  0  0  -0.081182  0  1.428232  0  0  -0.02331  -0.078743  0  1.443388  0
O  O72  1  0.65208809  0.08259449  0.99701861  1  0  -0.776399  0  2.170315  0  0  -0.717613  0  2.433983  0  0  -0.754974  0  2.423122  0  0  -0.409144  -0.699549  0  2.440216  0
O  O73  1  0.34791070  0.91740612  0.00298192  1  0  -0.776436  0  2.170364  0  0  -0.717641  0  2.434007  0  0  -0.755012  0  2.423177  0  0  -0.409152  -0.699574  0  2.440232  0
O  O74  1  0.59766756  0.24968605  0.98619674  1  0  -0.645948  0  2.009155  0  0  -0.600723  0  2.247799  0  0  -0.629678  0  2.24032  0  0  -0.344225  -0.584373  0  2.252314  0
O  O75  1  0.40233598  0.75031733  0.01380720  1  0  -0.645997  0  2.009099  0  0  -0.600748  0  2.24773  0  0  -0.62971  0  2.240252  0  0  -0.344233  -0.584399  0  2.252244  0
O  O76  1  0.05157348  0.01157404  0.88944146  1  0  -0.706703  0  2.047725  0  0  -0.657249  0  2.312791  0  0  -0.689814  0  2.300042  0  0  -0.380837  -0.639292  0  2.319463  0
O  O77  1  0.94843308  0.98842566  0.11055694  1  0  -0.706723  0  2.047845  0  0  -0.657231  0  2.312836  0  0  -0.6898  0  2.300088  0  0  -0.380805  -0.639276  0  2.319507  0
O  O78  1  0.79840914  0.88074986  0.84662827  1  0  -0.7018  0  2.072672  0  0  -0.656606  0  2.338291  0  0  -0.688436  0  2.32626  0  0  -0.381966  -0.639334  0  2.344288  0
O  O79  1  0.20159789  0.11925077  0.15337703  1  0  -0.701741  0  2.072623  0  0  -0.656556  0  2.33822  0  0  -0.68838  0  2.32619  0  0  -0.38193  -0.639284  0  2.344219  0
O  O80  1  0.54563693  0.15264542  0.20763848  1  0  -0.683765  0  2.066076  0  0  -0.633621  0  2.32124  0  0  -0.665713  0  2.310756  0  0  -0.3772  -0.615709  0  2.326839  0
O  O81  1  0.45436619  0.84735703  0.79236264  1  0  -0.68369  0  2.06586  0  0  -0.633578  0  2.321044  0  0  -0.665674  0  2.31056  0  0  -0.377221  -0.615667  0  2.326645  0
O  O82  1  0.66398724  0.00399930  0.20368770  1  0  -0.69213  0  2.070319  0  0  -0.641703  0  2.326555  0  0  -0.673009  0  2.316328  0  0  -0.364781  -0.624276  0  2.332025  0
O  O83  1  0.33601585  0.99600316  0.79631016  1  0  -0.692173  0  2.070385  0  0  -0.641736  0  2.326575  0  0  -0.673035  0  2.316349  0  0  -0.364861  -0.624308  0  2.332048  0
