# generated using pymatgen
data_Zr3H19C44Br5(NO10)2
_symmetry_space_group_name_H-M   'P 1'
_cell_length_a   19.15028680
_cell_length_b   19.09589957
_cell_length_c   19.18154045
_cell_angle_alpha   59.65694894
_cell_angle_beta   59.75765074
_cell_angle_gamma   60.20038968
_symmetry_Int_Tables_number   1
_chemical_formula_structural   Zr3H19C44Br5(NO10)2
_chemical_formula_sum   'Zr6 H38 C88 Br10 N4 O40'
_cell_volume   4945.32782337
_cell_formula_units_Z   2
loop_
 _symmetry_equiv_pos_site_id
 _symmetry_equiv_pos_as_xyz
  1  'x, y, z'
loop_
 _atom_site_type_symbol
 _atom_site_label
 _atom_site_symmetry_multiplicity
 _atom_site_fract_x
 _atom_site_fract_y
 _atom_site_fract_z
 _atom_site_occupancy
 _atom_site_pbe_bader_charge
 _atom_site_pbe_bader_spin_density
 _atom_site_pbe_cm5_charge
 _atom_site_pbe_ddec_charge
 _atom_site_pbe_ddec_spin_density
 _atom_site_pbe_ddec_sum_bond_order
 _atom_site_pbe_magmom
Zr  Zr0  1  0.90406511  0.41021227  0.58807322  1  2.63144  0  1.627105  2.379165  0  2.762561  0
Zr  Zr1  1  0.09771992  0.58746004  0.41071483  1  2.635006  0  1.627098  2.379885  0  2.761209  0
Zr  Zr2  1  0.08905370  0.40234601  0.59588699  1  2.638115  0  1.623866  2.376615  0  2.74495  0
Zr  Zr3  1  0.91272854  0.59532558  0.40292559  1  2.63705  0  1.623854  2.376598  0  2.745748  0
Zr  Zr4  1  0.90881389  0.59094663  0.59149522  1  2.634888  0  1.625099  2.380132  0  2.752298  0
Zr  Zr5  1  0.09288824  0.40677406  0.40741147  1  2.638114  0  1.626157  2.381882  0  2.753394  0
H  H6  1  0.92104299  0.42640242  0.71815105  1  0.612567  0  0.330359  0.422061  0  0.859414  0
H  H7  1  0.93448535  0.71757066  0.42689673  1  0.598184  0  0.330414  0.422162  0  0.859003  0
H  H8  1  0.21874813  0.42034545  0.43299002  1  0.593402  0  0.332356  0.425599  0  0.852696  0
H  H9  1  0.92789610  0.43243371  0.42096000  1  0.610917  0  0.332298  0.425439  0  0.852997  0
H  H10  1  0.48585078  0.57783650  0.06880243  1  0.080041  0  0.104777  0.114842  0  1.01136  0
H  H11  1  0.55998491  0.37170098  0.97050322  1  0.075037  0  0.104891  0.117183  0  1.009275  0
H  H12  1  0.66246923  0.62229266  0.79581302  1  0.13203  0  0.104296  0.107564  0  1.024179  0
H  H13  1  0.53303114  0.62772274  0.92601522  1  0.094832  0  0.10821  0.113223  0  0.991186  0
H  H14  1  0.29552175  0.41954593  0.16270504  1  0.114271  0  0.100095  0.103069  0  1.040555  0
H  H15  1  0.41995883  0.41868178  0.02814960  1  0.03874  0  0.106951  0.111175  0  0.995438  0
H  H16  1  0.09721524  0.97046523  0.37198003  1  0.103837  0  0.105067  0.117247  0  1.010075  0
H  H17  1  0.86710964  0.06836853  0.57891322  1  0.109478  0  0.104806  0.115128  0  1.011556  0
H  H18  1  0.12162427  0.16266647  0.41955628  1  0.090397  0  0.100453  0.103629  0  1.038953  0
H  H19  1  0.13238258  0.02837980  0.41841504  1  0.048057  0  0.107179  0.111426  0  0.995329  0
H  H20  1  0.91900678  0.79554597  0.62248570  1  0.081469  0  0.104533  0.107962  0  1.023842  0
H  H21  1  0.91244185  0.92589961  0.62791106  1  0.049527  0  0.108077  0.113333  0  0.9916  0
H  H22  1  0.44728685  0.03775099  0.39351175  1  0.099368  0  0.102891  0.111524  0  1.028721  0
H  H23  1  0.54698334  0.95202105  0.61315363  1  0.067329  0  0.102424  0.111292  0  1.028991  0
H  H24  1  0.68187568  0.81601321  0.39485758  1  0.110621  0  0.108319  0.115591  0  1.009166  0
H  H25  1  0.55213296  0.94120600  0.39072031  1  0.061647  0  0.107683  0.112576  0  1.002145  0
H  H26  1  0.31445544  0.17656267  0.60898874  1  0.110561  0  0.108231  0.114253  0  1.007028  0
H  H27  1  0.44489213  0.05191308  0.61269673  1  0.05834  0  0.107246  0.112061  0  1.002586  0
H  H28  1  0.88804856  0.61256832  0.95249499  1  0.101209  0  0.102384  0.11128  0  1.029588  0
H  H29  1  0.12175692  0.39293555  0.03821152  1  0.060763  0  0.102903  0.111452  0  1.028214  0
H  H30  1  0.90034401  0.60867113  0.17679086  1  0.071037  0  0.108253  0.114121  0  1.006114  0
H  H31  1  0.89117050  0.61260447  0.05185423  1  0.059953  0  0.107313  0.112039  0  1.003057  0
H  H32  1  0.10794303  0.39484225  0.81592675  1  0.111717  0  0.108059  0.115265  0  1.01036  0
H  H33  1  0.11689061  0.39091383  0.94087013  1  0.095041  0  0.10774  0.112292  0  1.001445  0
H  H34  1  0.12200066  0.82193606  0.17130024  1  0.155409  0  0.11297  0.124702  0  1.023077  0
H  H35  1  0.89524983  0.81576766  0.18589179  1  0.184327  0  0.119116  0.131311  0  1.004138  0
H  H36  1  0.88498176  0.17053211  0.82232606  1  0.12873  0  0.112982  0.123874  0  1.023242  0
H  H37  1  0.10300105  0.18538949  0.81647865  1  0.113206  0  0.11913  0.13139  0  1.004401  0
H  H38  1  0.45499586  0.38515720  0.61848738  1  0.088546  0  0.101954  0.110595  0  1.029013  0
H  H39  1  0.54132997  0.61785118  0.38576104  1  0.092106  0  0.102026  0.110493  0  1.029521  0
H  H40  1  0.67887748  0.40784896  0.60501346  1  0.134412  0  0.1046  0.112271  0  1.020714  0
H  H41  1  0.55067821  0.39668666  0.61742669  1  0.058765  0  0.106098  0.110053  0  1.004073  0
H  H42  1  0.30836956  0.60447476  0.40832975  1  0.107486  0  0.104569  0.112504  0  1.019607  0
H  H43  1  0.43534343  0.61682528  0.39723041  1  0.071048  0  0.106097  0.110538  0  1.003784  0
C  C44  1  0.75986693  0.50085628  0.72821640  1  1.571591  0  0.233071  0.649084  0  4.098623  0
C  C45  1  0.01109084  0.72774153  0.50121645  1  1.57375  0  0.233551  0.649513  0  4.097895  0
C  C46  1  0.23867170  0.49976164  0.26735808  1  1.567386  0  0.233501  0.649298  0  4.096689  0
C  C47  1  0.99397914  0.26689013  0.50045689  1  1.575804  0  0.234122  0.649983  0  4.0972  0
C  C48  1  0.99457772  0.26055475  0.73332628  1  1.566338  0  0.238572  0.638332  0  4.103775  0
C  C49  1  0.76313241  0.51429356  0.49070096  1  1.5891  0  0.234676  0.650282  0  4.091827  0
C  C50  1  0.01157326  0.73274502  0.26111904  1  1.593559  0  0.239249  0.639409  0  4.103436  0
C  C51  1  0.23195906  0.49017847  0.51471595  1  1.589415  0  0.235152  0.651345  0  4.091437  0
C  C52  1  0.99645088  0.49972774  0.73570755  1  1.585493  0  0.233523  0.648831  0  4.098674  0
C  C53  1  0.22740825  0.25643077  0.50447496  1  1.557575  0  0.233392  0.647613  0  4.100692  0
C  C54  1  0.01168912  0.50382807  0.25705064  1  1.578077  0  0.233033  0.647804  0  4.101672  0
C  C55  1  0.76823474  0.73527207  0.50023475  1  1.555914  0  0.234056  0.649708  0  4.098911  0
C  C56  1  0.31767710  0.50090538  0.19016680  1  0.009776  0  -0.020413  -0.091978  0  3.927509  0
C  C57  1  0.68281094  0.49669341  0.80731790  1  0.014697  0  -0.02204  -0.095818  0  3.931375  0
C  C58  1  0.37249983  0.54587376  0.16209826  1  -0.136769  0  -0.003874  0.113274  0  3.925398  0
C  C59  1  0.44347801  0.54442572  0.08742183  1  0.058812  0  -0.095171  -0.190391  0  3.965121  0
C  C60  1  0.65156977  0.42657599  0.85723443  1  -0.098046  0  -0.004718  0.112386  0  3.922591  0
C  C61  1  0.58048202  0.42813134  0.93179532  1  -0.0006  0  -0.095975  -0.193629  0  3.970263  0
C  C62  1  0.63851242  0.56800123  0.83493909  1  -0.060175  0  -0.0768  -0.064369  0  3.973241  0
C  C63  1  0.56682612  0.57034652  0.90817855  1  -0.041779  0  -0.088024  -0.134392  0  3.969998  0
C  C64  1  0.33799299  0.45430769  0.14068706  1  -0.011025  0  -0.077478  -0.063652  0  3.973385  0
C  C65  1  0.40797785  0.45350657  0.06592459  1  -0.030963  0  -0.089508  -0.136128  0  3.97406  0
C  C66  1  0.46193128  0.49918908  0.03778093  1  0.002644  0  0.002175  0.095844  0  3.990995  0
C  C67  1  0.53689710  0.49962571  0.95845052  1  0.017821  0  0.002779  0.097397  0  3.990721  0
C  C68  1  0.01293541  0.80702873  0.49695651  1  0.006198  0  -0.021965  -0.09682  0  3.932558  0
C  C69  1  0.99089655  0.18979941  0.50155324  1  0.028901  0  -0.020825  -0.092742  0  3.930024  0
C  C70  1  0.06425723  0.85707008  0.42684198  1  -0.130765  0  -0.004693  0.112539  0  3.922527  0
C  C71  1  0.05897334  0.93175587  0.42838208  1  0.028633  0  -0.095977  -0.193808  0  3.969984  0
C  C72  1  0.91922540  0.16162259  0.54680246  1  -0.135833  0  -0.003844  0.113389  0  3.926778  0
C  C73  1  0.92424171  0.08707969  0.54518858  1  -0.036273  0  -0.095283  -0.190798  0  3.965143  0
C  C74  1  0.06645110  0.14055470  0.45454578  1  0.017728  0  -0.078278  -0.064988  0  3.973522  0
C  C75  1  0.07189609  0.06592632  0.45359702  1  -0.054077  0  -0.089028  -0.135202  0  3.972286  0
C  C76  1  0.95810045  0.83471547  0.56821361  1  0.003758  0  -0.0766  -0.063565  0  3.972177  0
C  C77  1  0.95396343  0.90807636  0.57053632  1  0.015702  0  -0.088237  -0.135628  0  3.969613  0
C  C78  1  0.00429442  0.95841652  0.49985822  1  -0.023045  0  0.002626  0.097915  0  3.988858  0
C  C79  1  0.00046408  0.03765427  0.49953340  1  0.074063  0  0.002422  0.095982  0  3.989645  0
C  C80  1  0.30545166  0.17868472  0.50124629  1  0.020025  0  -0.020834  -0.094455  0  3.93081  0
C  C81  1  0.68926530  0.81190061  0.50457016  1  -0.030172  0  -0.019767  -0.093524  0  3.927751  0
C  C82  1  0.34519519  0.13739791  0.44063828  1  -0.066077  0  -0.003611  0.114085  0  3.915659  0
C  C83  1  0.41956253  0.06667672  0.44196715  1  -0.014024  0  -0.094882  -0.189973  0  3.964873  0
C  C84  1  0.64903319  0.85243247  0.56591826  1  -0.08647  0  -0.003134  0.115444  0  3.91523  0
C  C85  1  0.57502877  0.92354273  0.56426869  1  0.070955  0  -0.095866  -0.191516  0  3.966068  0
C  C86  1  0.65125914  0.84698365  0.44243289  1  0.005963  0  -0.07549  -0.065229  0  3.970619  0
C  C87  1  0.57770632  0.91768434  0.44079442  1  -0.011246  0  -0.086814  -0.130738  0  3.963612  0
C  C88  1  0.34445059  0.14465980  0.56231594  1  -0.055494  0  -0.07733  -0.06871  0  3.979877  0
C  C89  1  0.41835911  0.07433462  0.56369140  1  -0.052025  0  -0.087919  -0.132774  0  3.967837  0
C  C90  1  0.45815739  0.03329215  0.50295962  1  0.031594  0  0.003914  0.096777  0  3.971552  0
C  C91  1  0.53730502  0.95790279  0.50231079  1  -0.044581  0  0.003431  0.096206  0  3.970647  0
C  C92  1  0.99462536  0.50418845  0.81218765  1  0.011325  0  -0.019658  -0.09292  0  3.927151  0
C  C93  1  0.01476469  0.50068426  0.17918199  1  -0.062644  0  -0.020881  -0.09506  0  3.929895  0
C  C94  1  0.93285279  0.56538760  0.85287902  1  -0.088367  0  -0.003661  0.11481  0  3.914098  0
C  C95  1  0.93748681  0.56381907  0.92389311  1  -0.000184  0  -0.095366  -0.190987  0  3.967467  0
C  C96  1  0.07694322  0.44006388  0.13790758  1  -0.047783  0  -0.002945  0.115093  0  3.916417  0
C  C97  1  0.07212375  0.44144903  0.06707411  1  0.06131  0  -0.094538  -0.189554  0  3.964358  0
C  C98  1  0.94889085  0.56192322  0.14496402  1  0.056174  0  -0.078034  -0.068938  0  3.979274  0
C  C99  1  0.94412899  0.56342379  0.07447466  1  -0.018924  0  -0.087922  -0.133263  0  3.968335  0
C  C100  1  0.05994707  0.44231887  0.84699154  1  -0.062075  0  -0.075336  -0.065697  0  3.971578  0
C  C101  1  0.06455840  0.44077983  0.91757874  1  0.021088  0  -0.086618  -0.129114  0  3.961608  0
C  C102  1  0.00301484  0.50208071  0.95803108  1  -0.044381  0  0.003163  0.094856  0  3.971824  0
C  C103  1  0.00608147  0.50261229  0.03350198  1  -0.063402  0  0.003925  0.097552  0  3.969692  0
C  C104  1  0.07151289  0.85145256  0.14442774  1  -0.007589  0  -0.064701  -0.113002  0  3.888698  0
C  C105  1  0.06846958  0.92625661  0.07190372  1  0.001293  0  0.005518  0.040431  0  3.994513  0
C  C106  1  0.12895878  0.97068855  0.03025624  1  0.238285  0  0.094453  -0.001347  0  3.900416  0
C  C107  1  0.94274485  0.84789090  0.15225809  1  -0.052168  0  -0.065432  -0.11116  0  3.893152  0
C  C108  1  0.93726028  0.92272422  0.08047525  1  0.038362  0  0.003574  0.038889  0  4.014459  0
C  C109  1  0.87064058  0.96075289  0.04538429  1  0.259465  0  0.093169  -0.005611  0  3.898645  0
C  C110  1  0.93271373  0.14376291  0.85194928  1  -0.04376  0  -0.065136  -0.11178  0  3.888809  0
C  C111  1  0.93345139  0.07125127  0.92676841  1  0.034253  0  0.005284  0.040553  0  3.993014  0
C  C112  1  0.87021383  0.02957933  0.97114846  1  0.228772  0  0.094382  -0.002273  0  3.899625  0
C  C113  1  0.05703993  0.15174104  0.84857072  1  0.030119  0  -0.064822  -0.110333  0  3.891556  0
C  C114  1  0.05945143  0.07996435  0.92340465  1  0.043102  0  0.003166  0.039242  0  4.015658  0
C  C115  1  0.12310939  0.04492027  0.96143409  1  0.240205  0  0.092126  -0.008077  0  3.901118  0
C  C116  1  0.00935815  0.81268641  0.18340219  1  0.023766  0  -0.004274  -0.009555  0  3.953722  0
C  C117  1  0.00120317  0.96282961  0.03804719  1  0.035993  0  0.016364  0.022606  0  3.90304  0
C  C118  1  0.99456156  0.18282058  0.81328515  1  0.08211  0  -0.004009  -0.010448  0  3.954004  0
C  C119  1  0.99791049  0.03744487  0.96344030  1  -0.00638  0  0.01673  0.022436  0  3.90289  0
C  C120  1  0.30852972  0.48987150  0.51779190  1  -0.044607  0  -0.021461  -0.09414  0  3.927835  0
C  C121  1  0.68379910  0.51731898  0.49042339  1  -0.069336  0  -0.02105  -0.093895  0  3.926885  0
C  C122  1  0.35154974  0.42864720  0.57716905  1  -0.111418  0  -0.003655  0.115038  0  3.921223  0
C  C123  1  0.42412474  0.43467680  0.57130964  1  0.015055  0  -0.094576  -0.189359  0  3.958744  0
C  C124  1  0.64261345  0.57662176  0.42919221  1  -0.043812  0  -0.003594  0.114739  0  3.920836  0
C  C125  1  0.56987800  0.57070998  0.43526386  1  -0.002589  0  -0.095272  -0.189411  0  3.958412  0
C  C126  1  0.64739567  0.45351598  0.55742666  1  -0.035818  0  -0.078278  -0.067432  0  3.984165  0
C  C127  1  0.57510569  0.44773431  0.56373058  1  -0.043536  0  -0.089179  -0.132813  0  3.973559  0
C  C128  1  0.34176550  0.55686396  0.45400132  1  -0.00382  0  -0.078044  -0.06764  0  3.983838  0
C  C129  1  0.41351841  0.56315322  0.44826817  1  0.019007  0  -0.088718  -0.132675  0  3.974535  0
C  C130  1  0.45704109  0.50157077  0.50706208  1  -0.017963  0  0.003167  0.096721  0  3.970634  0
C  C131  1  0.53433886  0.50646703  0.50216737  1  0.02405  0  0.0042  0.097929  0  3.968515  0
Br  Br132  1  0.36016988  0.60824618  0.22218481  1  -0.039378  0  0.030559  -0.055283  0  1.447995  0
Br  Br133  1  0.70079073  0.32297792  0.83308047  1  -0.041137  0  0.030245  -0.053703  0  1.471437  0
Br  Br134  1  0.14304529  0.83287745  0.32331011  1  -0.043056  0  0.030339  -0.053458  0  1.47013  0
Br  Br135  1  0.80935364  0.22126742  0.60991281  1  -0.041443  0  0.03104  -0.054616  0  1.449273  0
Br  Br136  1  0.30514677  0.17021606  0.35171285  1  -0.043787  0  0.032735  -0.054217  0  1.445641  0
Br  Br137  1  0.68821768  0.81851218  0.65589809  1  -0.044821  0  0.026692  -0.059352  0  1.436322  0
Br  Br138  1  0.83715436  0.65484924  0.81948342  1  -0.046266  0  0.026645  -0.059234  0  1.435112  0
Br  Br139  1  0.17308553  0.35113759  0.17076826  1  -0.045866  0  0.032599  -0.054621  0  1.446878  0
Br  Br140  1  0.31795441  0.33304398  0.66997204  1  -0.041484  0  0.028306  -0.05868  0  1.405546  0
Br  Br141  1  0.67906198  0.66931633  0.33348332  1  -0.046168  0  0.028106  -0.058748  0  1.405751  0
N  N142  1  0.18465123  0.09060715  0.92302271  1  0.403938  0  0.061875  0.519563  0  4.234022  0
N  N143  1  0.19741637  0.93617713  0.06543794  1  0.409922  0  0.058894  0.514293  0  4.236093  0
N  N144  1  0.80106597  0.06491585  0.93660689  1  0.414984  0  0.059866  0.515323  0  4.236713  0
N  N145  1  0.80165928  0.92255332  0.09108741  1  0.416894  0  0.060572  0.517295  0  4.234326  0
O  O146  1  0.79073639  0.44436539  0.69414371  1  -1.185956  0  -0.367873  -0.625715  0  2.38823  0
O  O147  1  0.07084456  0.69364572  0.44477029  1  -1.186783  0  -0.368196  -0.62612  0  2.38686  0
O  O148  1  0.20669370  0.55820898  0.29932896  1  -1.182873  0  -0.366446  -0.625798  0  2.374023  0
O  O149  1  0.93559356  0.29888798  0.55889968  1  -1.186743  0  -0.366413  -0.62616  0  2.375345  0
O  O150  1  0.05455456  0.29035870  0.70386557  1  -1.179142  0  -0.358434  -0.615708  0  2.307363  0
O  O151  1  0.79815740  0.57119787  0.43150499  1  -1.1826  0  -0.362527  -0.624432  0  2.360708  0
O  O152  1  0.95128376  0.70324249  0.29091653  1  -1.177925  0  -0.358997  -0.616777  0  2.308031  0
O  O153  1  0.19919840  0.43101339  0.57163097  1  -1.18603  0  -0.362542  -0.624869  0  2.362083  0
O  O154  1  0.93973111  0.55864824  0.70173190  1  -1.189819  0  -0.366733  -0.625793  0  2.391937  0
O  O155  1  0.19641933  0.29104513  0.44487243  1  -1.173885  0  -0.365003  -0.623225  0  2.388323  0
O  O156  1  0.06754240  0.44411346  0.29177152  1  -1.181066  0  -0.364988  -0.623546  0  2.390538  0
O  O157  1  0.79997765  0.70124352  0.55918779  1  -1.180879  0  -0.366571  -0.625954  0  2.394441  0
O  O158  1  0.19794639  0.28429498  0.56543292  1  -1.177694  0  -0.348285  -0.615362  0  2.260351  0
O  O159  1  0.95238930  0.56483131  0.28485655  1  -1.187681  0  -0.347695  -0.614619  0  2.2597  0
O  O160  1  0.79925526  0.70907592  0.43774487  1  -1.178011  0  -0.347413  -0.613571  0  2.259993  0
O  O161  1  0.05403351  0.43716993  0.70957490  1  -1.18277  0  -0.347235  -0.613513  0  2.261279  0
O  O162  1  0.93599789  0.29057897  0.70299623  1  -1.162032  0  -0.332155  -0.593125  0  2.268626  0
O  O163  1  0.20491418  0.55019465  0.45327906  1  -1.177361  0  -0.351933  -0.615728  0  2.308899  0
O  O164  1  0.07045245  0.70242585  0.29113698  1  -1.16733  0  -0.332249  -0.593231  0  2.268137  0
O  O165  1  0.79156608  0.45288018  0.55074861  1  -1.184548  0  -0.351587  -0.615026  0  2.309655  0
O  O166  1  0.05530465  0.29530813  0.44138514  1  -1.183829  0  -0.348128  -0.611619  0  2.282079  0
O  O167  1  0.79047789  0.55978194  0.70045235  1  -1.176871  0  -0.34636  -0.611814  0  2.276892  0
O  O168  1  0.94940020  0.69987650  0.56022541  1  -1.181582  0  -0.34663  -0.611712  0  2.276481  0
O  O169  1  0.20796176  0.44070395  0.29582979  1  -1.171927  0  -0.347731  -0.611801  0  2.281336  0
O  O170  1  0.94860518  0.45166004  0.44293585  1  -1.235488  0  -0.694761  -1.065801  0  2.363683  0
O  O171  1  0.15683831  0.44232867  0.45218751  1  -1.22005  0  -0.694755  -1.066048  0  2.362748  0
O  O172  1  0.95427008  0.65544209  0.44619736  1  -1.227641  0  -0.693056  -1.066855  0  2.359463  0
O  O173  1  0.94409643  0.44566299  0.65602337  1  -1.241784  0  -0.693073  -1.066415  0  2.358819  0
O  O174  1  0.03920058  0.53350329  0.54096723  1  -1.198193  0  -0.792771  -1.146267  0  2.13533  0
O  O175  1  0.88636516  0.54042428  0.53408549  1  -1.197828  0  -0.792835  -1.146057  0  2.135905  0
O  O176  1  0.04245510  0.53779486  0.38448433  1  -1.200288  0  -0.791432  -1.150419  0  2.127441  0
O  O177  1  0.03525094  0.38392307  0.53840629  1  -1.196207  0  -0.79153  -1.149802  0  2.126282  0
O  O178  1  0.15403366  0.16566732  0.92072808  1  -0.417378  0  -0.112072  -0.302251  0  1.870265  0
O  O179  1  0.26122468  0.05070831  0.89519344  1  -0.419055  0  -0.120552  -0.306165  0  1.854128  0
O  O180  1  0.24736323  0.86317539  0.06629698  1  -0.418029  0  -0.110904  -0.299626  0  1.881171  0
O  O181  1  0.19799889  0.98259542  0.09225359  1  -0.415065  0  -0.118292  -0.309214  0  1.880009  0
O  O182  1  0.82321251  0.06539586  0.86377836  1  -0.417715  0  -0.111361  -0.300269  0  1.882183  0
O  O183  1  0.72731726  0.09228574  0.98279357  1  -0.41348  0  -0.118526  -0.309235  0  1.880275  0
O  O184  1  0.75983298  0.91991120  0.16628489  1  -0.421312  0  -0.111559  -0.301614  0  1.871392  0
O  O185  1  0.79227643  0.89531485  0.05105430  1  -0.421521  0  -0.120734  -0.306128  0  1.853399  0
