# generated using pymatgen
data_Cr2CuH6C8N4O7
_symmetry_space_group_name_H-M   'P 1'
_cell_length_a   8.13490474
_cell_length_b   8.60166952
_cell_length_c   9.99362600
_cell_angle_alpha   114.64558263
_cell_angle_beta   92.36325779
_cell_angle_gamma   90.76746778
_symmetry_Int_Tables_number   1
_chemical_formula_structural   Cr2CuH6C8N4O7
_chemical_formula_sum   'Cr4 Cu2 H12 C16 N8 O14'
_cell_volume   634.68843574
_cell_formula_units_Z   2
loop_
 _symmetry_equiv_pos_site_id
 _symmetry_equiv_pos_as_xyz
  1  'x, y, z'
loop_
 _atom_site_type_symbol
 _atom_site_label
 _atom_site_symmetry_multiplicity
 _atom_site_fract_x
 _atom_site_fract_y
 _atom_site_fract_z
 _atom_site_occupancy
 _atom_site_hle17_bader_spin_density
 _atom_site_hle17_ddec_charge
 _atom_site_hle17_ddec_spin_density
 _atom_site_hle17_ddec_sum_bond_order
 _atom_site_hle17_magmom
 _atom_site_hse06_10hf_bader_spin_density
 _atom_site_hse06_10hf_ddec_charge
 _atom_site_hse06_10hf_ddec_spin_density
 _atom_site_hse06_10hf_ddec_sum_bond_order
 _atom_site_hse06_10hf_magmom
 _atom_site_hse06_bader_spin_density
 _atom_site_hse06_ddec_charge
 _atom_site_hse06_ddec_spin_density
 _atom_site_hse06_ddec_sum_bond_order
 _atom_site_hse06_magmom
 _atom_site_pbe_bader_spin_density
 _atom_site_pbe_cm5_charge
 _atom_site_pbe_ddec_charge
 _atom_site_pbe_ddec_spin_density
 _atom_site_pbe_ddec_sum_bond_order
 _atom_site_pbe_magmom
Cr  Cr0  1  0.61736330  0.73295989  0.49865630  1  0  1.735784  0  3.567897  0  0  1.807977  0  4.035765  0  0  1.892998  0  4.009662  0  0  1.272685  1.751364  0  4.05399  0
Cr  Cr1  1  0.38265922  0.26702210  0.50131596  1  0  1.735865  0  3.567763  0  0  1.808132  0  4.035556  0  0  1.89305  0  4.009581  0  0  1.272703  1.751503  0  4.053761  0
Cr  Cr2  1  0.22604308  0.26152101  0.20415273  1  0  1.735707  0  3.599489  0  0  1.807727  0  4.071017  0  0  1.891588  0  4.044346  0  0  1.251081  1.752691  0  4.087805  0
Cr  Cr3  1  0.77397607  0.73847383  0.79584401  1  0  1.735729  0  3.59969  0  0  1.807796  0  4.07118  0  0  1.891547  0  4.044636  0  0  1.25121  1.752776  0  4.087948  0
Cu  Cu4  1  0.05262121  0.35059312  0.70563531  1  0  0.814028  0  1.948925  0  0  0.757894  0  2.354839  0  0  0.786522  0  2.309394  0  0  0.768405  0.745245  0  2.383315  0
Cu  Cu5  1  0.94740159  0.64940045  0.29436411  1  0  0.813887  0  1.949818  0  0  0.758005  0  2.35567  0  0  0.786367  0  2.310346  0  0  0.76844  0.745079  0  2.384315  0
H  H6  1  0.69591048  0.17288605  0.71188457  1  0  0.12522  0  0.946771  0  0  0.135011  0  1.000378  0  0  0.138517  0  0.996073  0  0  0.133483  0.132445  0  1.003571  0
H  H7  1  0.30411373  0.82715752  0.28817079  1  0  0.125206  0  0.946674  0  0  0.134994  0  1.000285  0  0  0.1385  0  0.995986  0  0  0.133531  0.132431  0  1.003477  0
H  H8  1  0.50460013  0.23433695  0.92328578  1  0  0.138944  0  0.948437  0  0  0.150625  0  0.999841  0  0  0.15471  0  0.998612  0  0  0.12313  0.147713  0  1.000892  0
H  H9  1  0.49539646  0.76568735  0.07674970  1  0  0.139089  0  0.948108  0  0  0.150693  0  0.999597  0  0  0.154782  0  0.998357  0  0  0.123087  0.147723  0  1.000723  0
H  H10  1  0.60328818  0.44910959  0.17620859  1  0  0.115564  0  0.925369  0  0  0.121085  0  0.989605  0  0  0.12431  0  0.986197  0  0  0.137069  0.118942  0  0.991967  0
H  H11  1  0.39668847  0.55090701  0.82382943  1  0  0.115609  0  0.925398  0  0  0.121145  0  0.989629  0  0  0.124366  0  0.986226  0  0  0.137154  0.119002  0  0.99199  0
H  H12  1  0.83041498  0.41064222  0.48518163  1  0  0.115041  0  0.943497  0  0  0.124153  0  0.999569  0  0  0.12666  0  0.996331  0  0  0.130913  0.122602  0  1.00156  0
H  H13  1  0.16957587  0.58935257  0.51481708  1  0  0.115086  0  0.943453  0  0  0.124218  0  0.999511  0  0  0.126725  0  0.996268  0  0  0.130909  0.122669  0  1.00151  0
H  H14  1  0.70984162  0.22195616  0.23073622  1  0  0.124463  0  0.938291  0  0  0.135931  0  0.990925  0  0  0.138664  0  0.991232  0  0  0.120209  0.134044  0  0.990907  0
H  H15  1  0.29013594  0.77804367  0.76923780  1  0  0.124387  0  0.938276  0  0  0.135876  0  0.990912  0  0  0.138608  0  0.991221  0  0  0.120207  0.133997  0  0.990887  0
H  H16  1  0.76751560  0.90387095  0.12878979  1  0  0.094428  0  0.971317  0  0  0.101559  0  1.035757  0  0  0.104469  0  1.032397  0  0  0.120485  0.09965  0  1.038101  0
H  H17  1  0.23245997  0.09610456  0.87117847  1  0  0.094386  0  0.971335  0  0  0.101528  0  1.035807  0  0  0.104441  0  1.032432  0  0  0.120524  0.099607  0  1.038155  0
C  C18  1  0.72920258  0.26522345  0.82404730  1  0  0.241837  0  3.532397  0  0  0.210368  0  3.779069  0  0  0.225008  0  3.78691  0  0  0.102188  0.200988  0  3.773958  0
C  C19  1  0.27082473  0.73479963  0.17598984  1  0  0.24186  0  3.531905  0  0  0.210425  0  3.778527  0  0  0.225071  0  3.786363  0  0  0.102242  0.20106  0  3.77341  0
C  C20  1  0.62524358  0.29757588  0.93995656  1  0  -0.122127  0  3.582471  0  0  -0.134045  0  3.823739  0  0  -0.145606  0  3.841704  0  0  -0.049379  -0.126944  0  3.81183  0
C  C21  1  0.37475989  0.70243048  0.06005574  1  0  -0.122133  0  3.582203  0  0  -0.133912  0  3.823401  0  0  -0.145475  0  3.841363  0  0  -0.04924  -0.126771  0  3.811527  0
C  C22  1  0.67844693  0.41518801  0.08054285  1  0  0.203229  0  3.572396  0  0  0.168356  0  3.824766  0  0  0.180719  0  3.836964  0  0  0.091022  0.16024  0  3.81688  0
C  C23  1  0.32152834  0.58482215  0.91947681  1  0  0.203245  0  3.572555  0  0  0.168232  0  3.825063  0  0  0.180602  0  3.837264  0  0  0.090901  0.160107  0  3.817149  0
C  C24  1  0.91924185  0.45709670  0.98676354  1  0  0.318791  0  3.781692  0  0  0.291414  0  4.039523  0  0  0.305385  0  4.051908  0  0  0.265841  0.282037  0  4.032097  0
C  C25  1  0.08076523  0.54290842  0.01326446  1  0  0.318889  0  3.781491  0  0  0.291191  0  4.03965  0  0  0.305175  0  4.052029  0  0  0.265713  0.281811  0  4.032229  0
C  C26  1  0.84547092  0.27291847  0.43532411  1  0  0.23534  0  3.567973  0  0  0.204049  0  3.813175  0  0  0.217877  0  3.822965  0  0  0.091422  0.195192  0  3.806047  0
C  C27  1  0.15451499  0.72707633  0.56467843  1  0  0.235452  0  3.567831  0  0  0.204116  0  3.813015  0  0  0.217971  0  3.822804  0  0  0.091526  0.195257  0  3.805925  0
C  C28  1  0.78083788  0.16807950  0.29447300  1  0  -0.111259  0  3.608208  0  0  -0.125059  0  3.85362  0  0  -0.135987  0  3.873209  0  0  -0.05301  -0.118001  0  3.840228  0
C  C29  1  0.21914976  0.83192933  0.70551661  1  0  -0.111292  0  3.608186  0  0  -0.125082  0  3.853645  0  0  -0.136018  0  3.873234  0  0  -0.053004  -0.118022  0  3.840263  0
C  C30  1  0.81056421  0.99446582  0.23967929  1  0  0.2084  0  3.604078  0  0  0.178591  0  3.860544  0  0  0.189391  0  3.873697  0  0  0.084338  0.171616  0  3.85112  0
C  C31  1  0.18942178  0.00552892  0.76029922  1  0  0.208654  0  3.604246  0  0  0.178781  0  3.860783  0  0  0.18959  0  3.873932  0  0  0.084291  0.171817  0  3.851364  0
C  C32  1  0.95295798  0.03617848  0.45536505  1  0  0.323964  0  3.751821  0  0  0.304047  0  4.00735  0  0  0.318214  0  4.019375  0  0  0.261378  0.294487  0  3.999381  0
C  C33  1  0.04702522  0.96380734  0.54462617  1  0  0.324225  0  3.751596  0  0  0.303927  0  4.007464  0  0  0.318133  0  4.019493  0  0  0.261425  0.294386  0  3.9995  0
N  N34  1  0.87536020  0.34905376  0.84882516  1  0  -0.314682  0  3.239309  0  0  -0.266085  0  3.520877  0  0  -0.282429  0  3.530144  0  0  -0.303563  -0.256953  0  3.515913  0
N  N35  1  0.12466425  0.65095652  0.15120830  1  0  -0.314781  0  3.238982  0  0  -0.266193  0  3.520737  0  0  -0.282539  0  3.529986  0  0  -0.303633  -0.257081  0  3.515803  0
N  N36  1  0.82838097  0.49217986  0.10313498  1  0  -0.303612  0  3.257317  0  0  -0.244773  0  3.528651  0  0  -0.25976  0  3.53549  0  0  -0.316111  -0.236276  0  3.525281  0
N  N37  1  0.17160046  0.50783031  0.89688290  1  0  -0.303713  0  3.257465  0  0  -0.244697  0  3.528853  0  0  -0.259705  0  3.535716  0  0  -0.316143  -0.236187  0  3.525468  0
N  N38  1  0.93196304  0.20625867  0.51482265  1  0  -0.331959  0  3.257391  0  0  -0.279365  0  3.536449  0  0  -0.299045  0  3.546569  0  0  -0.328412  -0.267045  0  3.529651  0
N  N39  1  0.06800777  0.79372588  0.48518269  1  0  -0.332049  0  3.257614  0  0  -0.279305  0  3.536754  0  0  -0.299053  0  3.546915  0  0  -0.328432  -0.267004  0  3.529995  0
N  N40  1  0.89484987  0.92912771  0.32158752  1  0  -0.359731  0  3.168314  0  0  -0.330009  0  3.45584  0  0  -0.348243  0  3.467341  0  0  -0.306809  -0.316652  0  3.447068  0
N  N41  1  0.10515112  0.07087473  0.67839528  1  0  -0.359949  0  3.168326  0  0  -0.330096  0  3.455968  0  0  -0.348368  0  3.467484  0  0  -0.306825  -0.316749  0  3.44718  0
O  O42  1  0.76519205  0.61106621  0.39817072  1  0  -0.7621  0  1.640327  0  0  -0.781823  0  1.975536  0  0  -0.814411  0  1.962051  0  0  -0.535521  -0.762022  0  1.985182  0
O  O43  1  0.23483439  0.38892086  0.60178148  1  0  -0.762009  0  1.63999  0  0  -0.781823  0  1.975257  0  0  -0.814352  0  1.961793  0  0  -0.535537  -0.762015  0  1.984868  0
O  O44  1  0.44327740  0.67597493  0.40628611  1  0  -0.638091  0  1.328499  0  0  -0.651889  0  1.584265  0  0  -0.675223  0  1.576957  0  0  -0.481182  -0.636773  0  1.589098  0
O  O45  1  0.55673989  0.32399943  0.59370425  1  0  -0.638184  0  1.328324  0  0  -0.652011  0  1.584071  0  0  -0.675327  0  1.576779  0  0  -0.481202  -0.6369  0  1.588907  0
O  O46  1  0.66163761  0.93113255  0.53910247  1  0  -0.635959  0  1.368777  0  0  -0.657784  0  1.629258  0  0  -0.683213  0  1.624788  0  0  -0.477528  -0.642331  0  1.633289  0
O  O47  1  0.33835199  0.06886094  0.46088673  1  0  -0.63612  0  1.368899  0  0  -0.657938  0  1.629343  0  0  -0.683321  0  1.624875  0  0  -0.477596  -0.642479  0  1.633374  0
O  O48  1  0.60553481  0.70585409  0.66362829  1  0  -0.850765  0  1.638254  0  0  -0.877224  0  1.944015  0  0  -0.92131  0  1.940609  0  0  -0.569597  -0.847448  0  1.945571  0
O  O49  1  0.39447800  0.29413172  0.33633998  1  0  -0.850821  0  1.638453  0  0  -0.877259  0  1.94421  0  0  -0.921358  0  1.940818  0  0  -0.569667  -0.847479  0  1.945765  0
O  O50  1  0.29383388  0.30106909  0.06992686  1  0  -0.713837  0  1.361251  0  0  -0.726162  0  1.617091  0  0  -0.753338  0  1.610882  0  0  -0.517458  -0.707765  0  1.620977  0
O  O51  1  0.70617367  0.69894746  0.93006922  1  0  -0.713962  0  1.361395  0  0  -0.726308  0  1.617211  0  0  -0.753444  0  1.611003  0  0  -0.517636  -0.70791  0  1.621092  0
O  O52  1  0.07962826  0.39147699  0.28359385  1  0  -0.727497  0  1.430197  0  0  -0.75084  0  1.724789  0  0  -0.778593  0  1.716362  0  0  -0.512344  -0.732919  0  1.730391  0
O  O53  1  0.92036975  0.60851013  0.71639837  1  0  -0.727477  0  1.430426  0  0  -0.750808  0  1.724992  0  0  -0.778538  0  1.71661  0  0  -0.512307  -0.732903  0  1.730592  0
O  O54  1  0.15855954  0.06555869  0.14270141  1  0  -0.659135  0  1.260128  0  0  -0.673726  0  1.492195  0  0  -0.697714  0  1.486672  0  0  -0.502695  -0.657967  0  1.495915  0
O  O55  1  0.84144841  0.93442968  0.85727261  1  0  -0.659065  0  1.260246  0  0  -0.673629  0  1.492255  0  0  -0.697588  0  1.48675  0  0  -0.502682  -0.657885  0  1.495981  0
