# generated using pymatgen
data_ZnH18C18S2(NO3)4
_symmetry_space_group_name_H-M   'P 1'
_cell_length_a   7.02704759
_cell_length_b   10.37271176
_cell_length_c   15.95400000
_cell_angle_alpha   100.33105444
_cell_angle_beta   90.00000000
_cell_angle_gamma   90.00000000
_symmetry_Int_Tables_number   1
_chemical_formula_structural   ZnH18C18S2(NO3)4
_chemical_formula_sum   'Zn2 H36 C36 S4 N8 O24'
_cell_volume   1144.02708050
_cell_formula_units_Z   2
loop_
 _symmetry_equiv_pos_site_id
 _symmetry_equiv_pos_as_xyz
  1  'x, y, z'
loop_
 _atom_site_type_symbol
 _atom_site_label
 _atom_site_symmetry_multiplicity
 _atom_site_fract_x
 _atom_site_fract_y
 _atom_site_fract_z
 _atom_site_occupancy
 _atom_site_hle17_bader_spin_density
 _atom_site_hle17_ddec_charge
 _atom_site_hle17_ddec_spin_density
 _atom_site_hle17_ddec_sum_bond_order
 _atom_site_hle17_magmom
 _atom_site_hse06_10hf_bader_spin_density
 _atom_site_hse06_10hf_ddec_charge
 _atom_site_hse06_10hf_ddec_spin_density
 _atom_site_hse06_10hf_ddec_sum_bond_order
 _atom_site_hse06_10hf_magmom
 _atom_site_hse06_bader_spin_density
 _atom_site_hse06_ddec_charge
 _atom_site_hse06_ddec_spin_density
 _atom_site_hse06_ddec_sum_bond_order
 _atom_site_hse06_magmom
 _atom_site_pbe_bader_charge
 _atom_site_pbe_bader_spin_density
 _atom_site_pbe_cm5_charge
 _atom_site_pbe_ddec_charge
 _atom_site_pbe_ddec_spin_density
 _atom_site_pbe_ddec_sum_bond_order
 _atom_site_pbe_magmom
Zn  Zn0  1  0.99999180  0.99999518  0.00000038  1  0  1.082927  0  1.783105  0  0  0.89519  0  2.239913  0  0  0.944781  0  2.184185  0  1.356166  0  0.699525  0.860583  0  2.278485  0
Zn  Zn1  1  0.50000515  0.00000294  0.49999658  1  0  1.082944  0  1.78311  0  0  0.895182  0  2.239927  0  0  0.944781  0  2.184201  0  1.356211  0  0.699521  0.860571  0  2.278498  0
H  H2  1  0.13894456  0.75920943  0.07610615  1  0  0.088963  0  0.979223  0  0  0.093377  0  1.046906  0  0  0.096072  0  1.043542  0  0.177998  0  0.119287  0.091271  0  1.049491  0
H  H3  1  0.63894971  0.24079261  0.42389690  1  0  0.088899  0  0.979181  0  0  0.093293  0  1.046901  0  0  0.095987  0  1.043535  0  0.178035  0  0.119253  0.091185  0  1.049484  0
H  H4  1  0.86104867  0.24078379  0.92389588  1  0  0.088961  0  0.979112  0  0  0.093361  0  1.046816  0  0  0.096056  0  1.04345  0  0.17803  0  0.119276  0.091258  0  1.049398  0
H  H5  1  0.36104779  0.75921335  0.57610473  1  0  0.088909  0  0.979168  0  0  0.093308  0  1.046871  0  0  0.096  0  1.043507  0  0.178028  0  0.119276  0.091205  0  1.049455  0
H  H6  1  0.29045627  0.54122136  0.02514525  1  0  0.120614  0  0.930699  0  0  0.131094  0  0.984368  0  0  0.134569  0  0.983809  0  0.101278  0  0.116743  0.128711  0  0.98484  0
H  H7  1  0.79048561  0.45877186  0.47485490  1  0  0.120633  0  0.930675  0  0  0.131072  0  0.984396  0  0  0.134549  0  0.983833  0  0.101351  0  0.116724  0.128683  0  0.984875  0
H  H8  1  0.70953554  0.45876990  0.97485279  1  0  0.120602  0  0.930736  0  0  0.131073  0  0.984412  0  0  0.134548  0  0.983853  0  0.101329  0  0.11676  0.12869  0  0.984882  0
H  H9  1  0.20952754  0.54123214  0.52514588  1  0  0.12057  0  0.930811  0  0  0.131066  0  0.984461  0  0  0.134543  0  0.9839  0  0.101351  0  0.116733  0.128679  0  0.984938  0
H  H10  1  0.40359055  0.48653301  0.87381323  1  0  0.114638  0  0.92699  0  0  0.123654  0  0.989015  0  0  0.127074  0  0.985504  0  0.150491  0  0.118363  0.120711  0  0.992373  0
H  H11  1  0.90360993  0.51345825  0.62619045  1  0  0.114687  0  0.927055  0  0  0.123678  0  0.989092  0  0  0.127097  0  0.985583  0  0.150881  0  0.118378  0.120736  0  0.992449  0
H  H12  1  0.59639841  0.51346021  0.12618629  1  0  0.114654  0  0.927021  0  0  0.123687  0  0.989001  0  0  0.127107  0  0.985491  0  0.150426  0  0.11838  0.120743  0  0.99236  0
H  H13  1  0.09640464  0.48654183  0.37381112  1  0  0.114554  0  0.927109  0  0  0.123654  0  0.989043  0  0  0.127073  0  0.985533  0  0.1506  0  0.118377  0.120712  0  0.992399  0
H  H14  1  0.18441315  0.86457715  0.83975317  1  0  0.095266  0  0.975798  0  0  0.098729  0  1.04728  0  0  0.10194  0  1.044286  0  0.150253  0  0.121697  0.09598  0  1.050048  0
H  H15  1  0.68440407  0.13542000  0.66024932  1  0  0.095287  0  0.975834  0  0  0.098828  0  1.047186  0  0  0.102064  0  1.044158  0  0.150462  0  0.121722  0.096056  0  1.04998  0
H  H16  1  0.81557723  0.13541804  0.16024846  1  0  0.09535  0  0.975652  0  0  0.098805  0  1.047166  0  0  0.102019  0  1.044166  0  0.150097  0  0.121699  0.096094  0  1.049891  0
H  H17  1  0.31559627  0.86458205  0.33974873  1  0  0.095282  0  0.975818  0  0  0.098911  0  1.047085  0  0  0.102131  0  1.044073  0  0.150478  0  0.121729  0.096138  0  1.049882  0
H  H18  1  0.52844384  0.88810979  0.77497476  1  0  0.07904  0  0.925124  0  0  0.088594  0  0.985354  0  0  0.090474  0  0.984641  0  0.084943  0  0.120206  0.087205  0  0.986018  0
H  H19  1  0.02845434  0.11189127  0.72502755  1  0  0.078983  0  0.925136  0  0  0.088588  0  0.985369  0  0  0.090419  0  0.98473  0  0.084976  0  0.120188  0.087198  0  0.986033  0
H  H20  1  0.47154939  0.11189323  0.22502653  1  0  0.079017  0  0.925081  0  0  0.088584  0  0.985332  0  0  0.090406  0  0.984693  0  0.085  0  0.120187  0.087191  0  0.986004  0
H  H21  1  0.97155170  0.88811273  0.27497260  1  0  0.079014  0  0.925083  0  0  0.088602  0  0.985298  0  0  0.090456  0  0.984627  0  0.084963  0  0.120208  0.08721  0  0.985965  0
H  H22  1  0.82897404  0.96735386  0.73352180  1  0  0.1173  0  0.940034  0  0  0.129436  0  1.002225  0  0  0.132357  0  1.000089  0  0.090216  0  0.101976  0.127277  0  1.003965  0
H  H23  1  0.32898169  0.03265308  0.76648183  1  0  0.117281  0  0.940268  0  0  0.129414  0  1.002405  0  0  0.132329  0  1.00028  0  0.09026  0  0.101967  0.127255  0  1.004143  0
H  H24  1  0.17102062  0.03265112  0.26647784  1  0  0.117281  0  0.940178  0  0  0.129424  0  1.002344  0  0  0.132347  0  1.000207  0  0.090264  0  0.101968  0.127263  0  1.004085  0
H  H25  1  0.67102434  0.96734602  0.23351525  1  0  0.117317  0  0.940245  0  0  0.129426  0  1.002416  0  0  0.132347  0  1.00028  0  0.090365  0  0.10197  0.127268  0  1.004155  0
H  H26  1  0.93331088  0.80710768  0.71448901  1  0  0.126089  0  0.94003  0  0  0.137328  0  1.000328  0  0  0.140523  0  0.998426  0  0.087793  0  0.101497  0.13503  0  1.001788  0
H  H27  1  0.43331854  0.19289534  0.78551040  1  0  0.126072  0  0.940078  0  0  0.137298  0  1.000368  0  0  0.140486  0  0.998473  0  0.087664  0  0.10145  0.134999  0  1.001829  0
H  H28  1  0.06668234  0.19289534  0.28550789  1  0  0.126061  0  0.94007  0  0  0.137302  0  1.000366  0  0  0.140491  0  0.99847  0  0.087692  0  0.101462  0.135003  0  1.001826  0
H  H29  1  0.56668323  0.80710180  0.21449146  1  0  0.12609  0  0.94009  0  0  0.13734  0  1.000353  0  0  0.140522  0  0.998465  0  0.087704  0  0.101463  0.135039  0  1.001817  0
H  H30  1  0.64811003  0.65568404  0.67793846  1  0  0.311659  0  0.917733  0  0  0.295439  0  0.982952  0  0  0.304053  0  0.976006  0  0.5081  0  0.299909  0.289255  0  0.98809  0
H  H31  1  0.14811341  0.34432290  0.82206078  1  0  0.311587  0  0.917793  0  0  0.295364  0  0.982992  0  0  0.303978  0  0.976049  0  0.508092  0  0.299875  0.28918  0  0.988132  0
H  H32  1  0.35188605  0.34431996  0.32205919  1  0  0.311607  0  0.917744  0  0  0.295424  0  0.982895  0  0  0.304038  0  0.975951  0  0.508115  0  0.299907  0.289237  0  0.988037  0
H  H33  1  0.85189547  0.65567718  0.17793766  1  0  0.311601  0  0.917785  0  0  0.295421  0  0.982926  0  0  0.304036  0  0.97598  0  0.508085  0  0.299894  0.289239  0  0.988067  0
H  H34  1  0.75509237  0.65018649  0.84632654  1  0  0.411872  0  0.851208  0  0  0.379152  0  0.935308  0  0  0.389813  0  0.923348  0  0.656737  0  0.317113  0.371611  0  0.943691  0
H  H35  1  0.25510145  0.34981555  0.65367401  1  0  0.411897  0  0.851151  0  0  0.379147  0  0.935325  0  0  0.38981  0  0.923362  0  0.656762  0  0.317082  0.371608  0  0.943707  0
H  H36  1  0.24490228  0.34981359  0.15367253  1  0  0.411836  0  0.851245  0  0  0.379097  0  0.935388  0  0  0.389759  0  0.923428  0  0.656804  0  0.317098  0.371558  0  0.943768  0
H  H37  1  0.74490601  0.65019041  0.34632825  1  0  0.411841  0  0.851258  0  0  0.379103  0  0.935391  0  0  0.389763  0  0.923432  0  0.656824  0  0.317125  0.371561  0  0.943777  0
C  C38  1  0.18587892  0.73166584  0.01070836  1  0  0.184219  0  3.608806  0  0  0.144884  0  3.860736  0  0  0.15685  0  3.873131  0  0.548306  0  0.071013  0.137101  0  3.852655  0
C  C39  1  0.68589545  0.26833131  0.48929100  1  0  0.184577  0  3.608203  0  0  0.14522  0  3.860112  0  0  0.157195  0  3.8725  0  0.54816  0  0.071164  0.137435  0  3.852027  0
C  C40  1  0.81410435  0.26832543  0.98928968  1  0  0.184334  0  3.608502  0  0  0.145005  0  3.860428  0  0  0.156976  0  3.872818  0  0.548093  0  0.071022  0.137217  0  3.852353  0
C  C41  1  0.31411343  0.73167270  0.51071041  1  0  0.184463  0  3.608348  0  0  0.145132  0  3.860278  0  0  0.157107  0  3.872672  0  0.548174  0  0.071083  0.137343  0  3.852202  0
C  C42  1  0.27409662  0.61101670  0.98221200  1  0  -0.084462  0  3.641265  0  0  -0.09406  0  3.889974  0  0  -0.102767  0  3.909136  0  0.031845  0  -0.062409  -0.089013  0  3.877653  0
C  C43  1  0.77411600  0.38898240  0.51779448  1  0  -0.084598  0  3.641534  0  0  -0.094151  0  3.890206  0  0  -0.102859  0  3.909369  0  0.032377  0  -0.062462  -0.089102  0  3.877883  0
C  C44  1  0.72589518  0.38898044  0.01779237  1  0  -0.08444  0  3.641341  0  0  -0.094061  0  3.890059  0  0  -0.102766  0  3.909219  0  0.032438  0  -0.06242  -0.089016  0  3.877738  0
C  C45  1  0.22589288  0.61101572  0.48220499  1  0  -0.084406  0  3.64125  0  0  -0.094042  0  3.889994  0  0  -0.102748  0  3.909156  0  0.032439  0  -0.062395  -0.088993  0  3.877672  0
C  C46  1  0.33561890  0.58021672  0.89820962  1  0  0.020415  0  3.671384  0  0  -0.014476  0  3.924493  0  0  -0.006944  0  3.940008  0  -0.070664  0  -0.050946  -0.018998  0  3.91444  0
C  C47  1  0.83563829  0.41977749  0.60179002  1  0  0.020255  0  3.671774  0  0  -0.014596  0  3.92486  0  0  -0.007069  0  3.940372  0  -0.070601  0  -0.051055  -0.019119  0  3.914808  0
C  C48  1  0.66437290  0.41977455  0.10178905  1  0  0.020284  0  3.671527  0  0  -0.014563  0  3.924588  0  0  -0.007034  0  3.940106  0  -0.069592  0  -0.051014  -0.019084  0  3.914536  0
C  C49  1  0.16437913  0.58023141  0.39820757  1  0  0.020338  0  3.671678  0  0  -0.014617  0  3.924772  0  0  -0.007091  0  3.940291  0  -0.070185  0  -0.051048  -0.019136  0  3.914714  0
C  C50  1  0.30270038  0.67308608  0.84632765  1  0  -0.193138  0  3.761015  0  0  -0.163231  0  4.016672  0  0  -0.176898  0  4.041359  0  -0.228838  0  -0.022613  -0.154495  0  4.000213  0
C  C51  1  0.80270269  0.32691008  0.65367597  1  0  -0.19285  0  3.760674  0  0  -0.163  0  4.016374  0  0  -0.176645  0  4.041026  0  -0.229239  0  -0.022537  -0.154262  0  3.999908  0
C  C52  1  0.69729427  0.32690910  0.15367398  1  0  -0.193047  0  3.761007  0  0  -0.163178  0  4.016695  0  0  -0.176841  0  4.041369  0  -0.229788  0  -0.022613  -0.154441  0  4.00024  0
C  C53  1  0.19730477  0.67309098  0.34632321  1  0  -0.193062  0  3.76074  0  0  -0.163139  0  4.016366  0  0  -0.176786  0  4.04102  0  -0.229219  0  -0.022605  -0.154405  0  3.999901  0
C  C54  1  0.21226553  0.79086982  0.87880858  1  0  0.12727  0  3.700109  0  0  0.082445  0  3.948446  0  0  0.091377  0  3.96652  0  0.550062  0  0.051635  0.077007  0  3.936535  0
C  C55  1  0.71226499  0.20913222  0.62119448  1  0  0.127087  0  3.70055  0  0  0.082249  0  3.948805  0  0  0.091165  0  3.966871  0  0.550155  0  0.051636  0.076825  0  3.936898  0
C  C56  1  0.78773196  0.20912732  0.12119265  1  0  0.127168  0  3.700276  0  0  0.082338  0  3.948626  0  0  0.091272  0  3.966699  0  0.550577  0  0.05162  0.076875  0  3.936692  0
C  C57  1  0.28775243  0.79087570  0.37880739  1  0  0.127135  0  3.700297  0  0  0.082222  0  3.948491  0  0  0.091156  0  3.966563  0  0.550099  0  0.051597  0.076801  0  3.93659  0
C  C58  1  0.65047090  0.82082411  0.77188059  1  0  0.049212  0  3.65149  0  0  0.028947  0  3.896297  0  0  0.029046  0  3.907893  0  0.298191  0  0.010507  0.028713  0  3.888658  0
C  C59  1  0.15047856  0.17917989  0.72812019  1  0  0.049419  0  3.651304  0  0  0.028949  0  3.896267  0  0  0.029033  0  3.907957  0  0.298077  0  0.010586  0.02872  0  3.888619  0
C  C60  1  0.34952659  0.17917891  0.22811820  1  0  0.049283  0  3.65146  0  0  0.028939  0  3.896315  0  0  0.029043  0  3.90798  0  0.298274  0  0.010528  0.028705  0  3.888666  0
C  C61  1  0.84952890  0.82082117  0.27187962  1  0  0.049307  0  3.651395  0  0  0.028976  0  3.896217  0  0  0.029059  0  3.907872  0  0.298058  0  0.010542  0.028746  0  3.88858  0
C  C62  1  0.73679592  0.83704923  0.86072175  1  0  0.65241  0  3.731219  0  0  0.600783  0  4.037662  0  0  0.632323  0  4.030848  0  1.56333  0  0.241972  0.579295  0  4.041919  0
C  C63  1  0.23680642  0.16294791  0.63927572  1  0  0.65238  0  3.731399  0  0  0.600821  0  4.037816  0  0  0.632373  0  4.030979  0  1.562771  0  0.241983  0.579336  0  4.04207  0
C  C64  1  0.26318592  0.16294203  0.13927629  1  0  0.652278  0  3.73161  0  0  0.60069  0  4.038025  0  0  0.632238  0  4.03119  0  1.562635  0  0.241946  0.579205  0  4.042276  0
C  C65  1  0.76320246  0.83704825  0.36072038  1  0  0.652438  0  3.731228  0  0  0.600809  0  4.037684  0  0  0.632358  0  4.030857  0  1.563316  0  0.241995  0.579319  0  4.041944  0
C  C66  1  0.80132658  0.86291122  0.71165495  1  0  -0.302604  0  3.601604  0  0  -0.344122  0  3.846243  0  0  -0.349562  0  3.850985  0  -0.078719  0  -0.163621  -0.340245  0  3.842832  0
C  C67  1  0.30133423  0.13709278  0.78834583  1  0  -0.302652  0  3.601774  0  0  -0.344085  0  3.846377  0  0  -0.349506  0  3.851111  0  -0.078438  0  -0.163525  -0.340206  0  3.842961  0
C  C68  1  0.19866807  0.13709180  0.28834383  1  0  -0.302524  0  3.601646  0  0  -0.344024  0  3.846287  0  0  -0.349451  0  3.851015  0  -0.078764  0  -0.16349  -0.340144  0  3.84287  0
C  C69  1  0.69866896  0.86290828  0.21165461  1  0  -0.30272  0  3.601747  0  0  -0.344144  0  3.846296  0  0  -0.349558  0  3.851038  0  -0.07867  0  -0.163528  -0.340268  0  3.842886  0
C  C70  1  0.72170850  0.83405742  0.62085680  1  0  0.714354  0  3.850006  0  0  0.670393  0  4.148811  0  0  0.703846  0  4.141268  0  1.602471  0  0.204788  0.647666  0  4.152758  0
C  C71  1  0.22171901  0.16595736  0.87914461  1  0  0.714564  0  3.849847  0  0  0.67057  0  4.148665  0  0  0.704028  0  4.141103  0  1.603298  0  0.204785  0.647842  0  4.152614  0
C  C72  1  0.27828330  0.16595442  0.37913988  1  0  0.714659  0  3.849649  0  0  0.670646  0  4.14853  0  0  0.704102  0  4.140976  0  1.603267  0  0.204851  0.64792  0  4.152474  0
C  C73  1  0.77827707  0.83404175  0.12085623  1  0  0.714768  0  3.849578  0  0  0.670753  0  4.148455  0  0  0.704188  0  4.140925  0  1.603188  0  0.204821  0.648024  0  4.15241  0
S  S74  1  0.36606839  0.64854800  0.73781721  1  0  1.237249  0  5.384682  0  0  1.140324  0  5.90071  0  0  1.184432  0  5.885195  0  2.917311  0  0.565529  1.10996  0  5.910555  0
S  S75  1  0.86606643  0.35143346  0.76218408  1  0  1.236964  0  5.384879  0  0  1.140012  0  5.900925  0  0  1.184129  0  5.885394  0  2.917573  0  0.565483  1.109654  0  5.910756  0
S  S76  1  0.63393480  0.35143444  0.26218106  1  0  1.237046  0  5.38477  0  0  1.140097  0  5.900801  0  0  1.184222  0  5.885268  0  2.917827  0  0.565526  1.109733  0  5.91064  0
S  S77  1  0.13394245  0.64855780  0.23781522  1  0  1.23698  0  5.384576  0  0  1.140112  0  5.900543  0  0  1.184229  0  5.885008  0  2.917802  0  0.565504  1.109752  0  5.910396  0
N  N78  1  0.15561728  0.81999409  0.96008894  1  0  -0.296487  0  3.241031  0  0  -0.214718  0  3.503222  0  0  -0.234129  0  3.516893  0  -1.225861  0  -0.30663  -0.202111  0  3.494165  0
N  N79  1  0.65561958  0.18000795  0.53991726  1  0  -0.296628  0  3.241185  0  0  -0.214822  0  3.503314  0  0  -0.234253  0  3.517017  0  -1.226682  0  -0.306653  -0.202205  0  3.49424  0
N  N80  1  0.84437168  0.18000403  0.03991366  1  0  -0.296564  0  3.241139  0  0  -0.214786  0  3.503309  0  0  -0.234205  0  3.516992  0  -1.226712  0  -0.306586  -0.202186  0  3.494268  0
N  N81  1  0.34438361  0.81999213  0.46008683  1  0  -0.296537  0  3.241249  0  0  -0.21477  0  3.50341  0  0  -0.234205  0  3.517117  0  -1.226814  0  -0.306621  -0.202164  0  3.494349  0
N  N82  1  0.59473199  0.68424287  0.74028677  1  0  -0.599039  0  3.146541  0  0  -0.550726  0  3.415379  0  0  -0.568186  0  3.415684  0  -1.275114  0  -0.462796  -0.538559  0  3.415034  0
N  N83  1  0.09473538  0.31576113  0.75971213  1  0  -0.599125  0  3.146655  0  0  -0.550604  0  3.415282  0  0  -0.568057  0  3.415588  0  -1.274947  0  -0.462831  -0.538458  0  3.414976  0
N  N84  1  0.40526551  0.31575917  0.25971065  1  0  -0.599081  0  3.146594  0  0  -0.550668  0  3.415252  0  0  -0.568125  0  3.415548  0  -1.274872  0  -0.462859  -0.538517  0  3.414949  0
N  N85  1  0.90527493  0.68424091  0.24028842  1  0  -0.598991  0  3.146443  0  0  -0.550694  0  3.415311  0  0  -0.568145  0  3.41561  0  -1.275283  0  -0.462799  -0.538499  0  3.41489  0
O  O86  1  0.77992356  0.72947956  0.89025537  1  0  -0.496125  0  2.131122  0  0  -0.447245  0  2.348395  0  0  -0.468029  0  2.337165  0  -1.145019  0  -0.304707  -0.432758  0  2.355668  0
O  O87  1  0.27993122  0.27052151  0.60974506  1  0  -0.496161  0  2.130974  0  0  -0.447305  0  2.348248  0  0  -0.468086  0  2.337009  0  -1.144876  0  -0.304693  -0.432817  0  2.355522  0
O  O88  1  0.22006539  0.27051661  0.10974575  1  0  -0.496063  0  2.131023  0  0  -0.447201  0  2.348292  0  0  -0.467981  0  2.337055  0  -1.144888  0  -0.3047  -0.432714  0  2.355564  0
O  O89  1  0.72007482  0.72948250  0.39025572  1  0  -0.496095  0  2.131172  0  0  -0.447186  0  2.348438  0  0  -0.467966  0  2.337205  0  -1.14504  0  -0.304711  -0.432704  0  2.355715  0
O  O90  1  0.77275128  0.94737159  0.90092428  1  0  -0.530478  0  2.012145  0  0  -0.481025  0  2.25489  0  0  -0.503823  0  2.244639  0  -1.15555  0  -0.270052  -0.465488  0  2.261849  0
O  O91  1  0.27276178  0.05263339  0.59907913  1  0  -0.530431  0  2.012403  0  0  -0.480992  0  2.255123  0  0  -0.503783  0  2.244857  0  -1.155166  0  -0.270044  -0.465458  0  2.262082  0
O  O92  1  0.22723057  0.05262947  0.09908243  1  0  -0.530369  0  2.012524  0  0  -0.480906  0  2.25522  0  0  -0.503697  0  2.24496  0  -1.155071  0  -0.270011  -0.465371  0  2.262176  0
O  O93  1  0.72724568  0.94737257  0.40092251  1  0  -0.530536  0  2.012102  0  0  -0.481095  0  2.254865  0  0  -0.503888  0  2.244603  0  -1.155538  0  -0.270088  -0.465558  0  2.261825  0
O  O94  1  0.65503185  0.93263307  0.59297915  1  0  -0.667823  0  2.084856  0  0  -0.599567  0  2.354859  0  0  -0.629121  0  2.342059  0  -1.198466  0  -0.327412  -0.57827  0  2.362874  0
O  O95  1  0.15501105  0.06737387  0.90702072  1  0  -0.668002  0  2.084451  0  0  -0.599725  0  2.354449  0  0  -0.629272  0  2.341629  0  -1.199155  0  -0.327469  -0.578428  0  2.362469  0
O  O96  1  0.34498841  0.06737975  0.40701764  1  0  -0.668008  0  2.084545  0  0  -0.599756  0  2.354605  0  0  -0.629304  0  2.341786  0  -1.199139  0  -0.327527  -0.578457  0  2.362618  0
O  O97  1  0.84496937  0.93261837  0.09297430  1  0  -0.668069  0  2.084478  0  0  -0.599787  0  2.354485  0  0  -0.629325  0  2.341672  0  -1.199203  0  -0.327474  -0.578497  0  2.362513  0
O  O98  1  0.71814513  0.71524081  0.58507693  1  0  -0.621482  0  1.887258  0  0  -0.580309  0  2.107328  0  0  -0.604489  0  2.100067  0  -1.177744  0  -0.330014  -0.562865  0  2.111961  0
O  O99  1  0.21815705  0.28476417  0.91492020  1  0  -0.621506  0  1.887559  0  0  -0.580342  0  2.107666  0  0  -0.604519  0  2.100395  0  -1.177916  0  -0.329995  -0.562899  0  2.112304  0
O  O100  1  0.28184525  0.28476613  0.41492106  1  0  -0.621616  0  1.887316  0  0  -0.580434  0  2.107415  0  0  -0.604614  0  2.100146  0  -1.177869  0  -0.330025  -0.56299  0  2.112051  0
O  O101  1  0.78183760  0.71523297  0.08507853  1  0  -0.621604  0  1.887426  0  0  -0.580431  0  2.107535  0  0  -0.604603  0  2.100277  0  -1.177736  0  -0.33001  -0.562992  0  2.112174  0
O  O102  1  0.25350049  0.74155946  0.70095432  1  0  -0.597279  0  1.961094  0  0  -0.545393  0  2.20172  0  0  -0.56633  0  2.190689  0  -1.31089  0  -0.299866  -0.530714  0  2.208976  0
O  O103  1  0.75351276  0.25842984  0.79904600  1  0  -0.596946  0  1.961685  0  0  -0.545098  0  2.202397  0  0  -0.566048  0  2.191374  0  -1.311467  0  -0.299754  -0.530418  0  2.209644  0
O  O104  1  0.74648562  0.25843180  0.29904623  1  0  -0.59695  0  1.96172  0  0  -0.545073  0  2.202396  0  0  -0.566021  0  2.191366  0  -1.311392  0  -0.299733  -0.530393  0  2.209651  0
O  O105  1  0.24649755  0.74158200  0.20095632  1  0  -0.596922  0  1.960982  0  0  -0.545176  0  2.201737  0  0  -0.566133  0  2.190711  0  -1.311306  0  -0.299744  -0.530499  0  2.208991  0
O  O106  1  0.35721972  0.51138565  0.69921130  1  0  -0.603108  0  1.98842  0  0  -0.557295  0  2.24374  0  0  -0.576856  0  2.231405  0  -1.33055  0  -0.310933  -0.543551  0  2.251694  0
O  O107  1  0.85719926  0.48860953  0.80079660  1  0  -0.603164  0  1.9879  0  0  -0.557384  0  2.243221  0  0  -0.576945  0  2.230883  0  -1.330489  0  -0.311012  -0.543641  0  2.251173  0
O  O108  1  0.64279912  0.48861051  0.30079484  1  0  -0.603203  0  1.987826  0  0  -0.557403  0  2.243146  0  0  -0.576966  0  2.230805  0  -1.330903  0  -0.311025  -0.543661  0  2.251101  0
O  O109  1  0.14280820  0.51139937  0.19920287  1  0  -0.603143  0  1.988352  0  0  -0.557356  0  2.243666  0  0  -0.576916  0  2.231323  0  -1.33055  0  -0.311045  -0.543618  0  2.251624  0
