# generated using pymatgen
data_ZnH24C24(N3O2)2
_symmetry_space_group_name_H-M   'P 1'
_cell_length_a   8.69594380
_cell_length_b   15.29941704
_cell_length_c   19.16620795
_cell_angle_alpha   89.99996827
_cell_angle_beta   89.99995586
_cell_angle_gamma   89.99972735
_symmetry_Int_Tables_number   1
_chemical_formula_structural   ZnH24C24(N3O2)2
_chemical_formula_sum   'Zn4 H96 C96 N24 O16'
_cell_volume   2549.92732776
_cell_formula_units_Z   4
loop_
 _symmetry_equiv_pos_site_id
 _symmetry_equiv_pos_as_xyz
  1  'x, y, z'
loop_
 _atom_site_type_symbol
 _atom_site_label
 _atom_site_symmetry_multiplicity
 _atom_site_fract_x
 _atom_site_fract_y
 _atom_site_fract_z
 _atom_site_occupancy
 _atom_site_pbe_bader_charge
 _atom_site_pbe_bader_spin_density
 _atom_site_pbe_cm5_charge
 _atom_site_pbe_ddec_charge
 _atom_site_pbe_ddec_spin_density
 _atom_site_pbe_ddec_sum_bond_order
 _atom_site_pbe_magmom
Zn  Zn0  1  0.55790646  0.96109852  0.25925859  1  1.250015  0  0.701447  0.800938  0  2.394442  0
Zn  Zn1  1  0.94209015  0.03890190  0.75925956  1  1.250136  0  0.701436  0.800997  0  2.394308  0
Zn  Zn2  1  0.44209250  0.46109662  0.24074176  1  1.250174  0  0.701437  0.800922  0  2.394383  0
Zn  Zn3  1  0.05790689  0.53890320  0.74074003  1  1.250071  0  0.701423  0.800898  0  2.394347  0
H  H4  1  0.94789572  0.85485738  0.14616054  1  0.05431  0  0.101361  0.094135  0  1.022428  0
H  H5  1  0.55210453  0.14513593  0.64616055  1  0.054326  0  0.101309  0.094089  0  1.022396  0
H  H6  1  0.05210757  0.35486365  0.35383829  1  0.054273  0  0.101353  0.094141  0  1.02249  0
H  H7  1  0.44788472  0.64514001  0.85383743  1  0.054311  0  0.10134  0.094156  0  1.02241  0
H  H8  1  0.08552863  0.75578291  0.06054075  1  0.111293  0  0.10195  0.107438  0  1.04883  0
H  H9  1  0.41447336  0.24421574  0.56054372  1  0.111174  0  0.101934  0.107444  0  1.048883  0
H  H10  1  0.91447434  0.25578613  0.43945500  1  0.111208  0  0.101935  0.107423  0  1.048847  0
H  H11  1  0.58552542  0.74421089  0.93945631  1  0.111245  0  0.101939  0.107426  0  1.048913  0
H  H12  1  0.98373405  0.74646665  0.93947815  1  0.108262  0  0.109594  0.077333  0  1.016461  0
H  H13  1  0.51626226  0.25353691  0.43948011  1  0.108195  0  0.109576  0.077305  0  1.016451  0
H  H14  1  0.01626815  0.24646407  0.56051771  1  0.108316  0  0.109596  0.077322  0  1.016513  0
H  H15  1  0.48373728  0.75352999  0.06052137  1  0.10868  0  0.109594  0.077373  0  1.016473  0
H  H16  1  0.46805519  0.06129879  0.83744360  1  0.082019  0  0.106033  0.109848  0  0.990566  0
H  H17  1  0.03195093  0.93870750  0.33743691  1  0.082131  0  0.106001  0.109766  0  0.990724  0
H  H18  1  0.53194626  0.56129690  0.66255651  1  0.082019  0  0.106038  0.109832  0  0.990636  0
H  H19  1  0.96805282  0.43869835  0.16255875  1  0.081915  0  0.106026  0.109842  0  0.990566  0
H  H20  1  0.22091705  0.03014759  0.90265269  1  0.130735  0  0.105751  0.117441  0  1.021345  0
H  H21  1  0.27908321  0.96985016  0.40264955  1  0.130687  0  0.105722  0.117394  0  1.021347  0
H  H22  1  0.77908466  0.53014834  0.59734639  1  0.130719  0  0.105742  0.117471  0  1.021319  0
H  H23  1  0.72091568  0.46984892  0.09734923  1  0.130706  0  0.105726  0.117396  0  1.021381  0
H  H24  1  0.23701920  0.94478927  0.01365556  1  0.062833  0  0.1102  0.078123  0  0.987014  0
H  H25  1  0.26297712  0.05520614  0.51365502  1  0.062832  0  0.110192  0.078122  0  0.986994  0
H  H26  1  0.76297645  0.44479483  0.48634063  1  0.062801  0  0.110211  0.078124  0  0.986965  0
H  H27  1  0.73702553  0.55520347  0.98634301  1  0.062875  0  0.110242  0.078173  0  0.986918  0
H  H28  1  0.49069732  0.84743671  0.39781968  1  0.116988  0  0.117452  0.122144  0  1.025591  0
H  H29  1  0.00930294  0.15256366  0.89781919  1  0.116926  0  0.117466  0.122112  0  1.025609  0
H  H30  1  0.50930143  0.34743343  0.10218124  1  0.116263  0  0.117449  0.122131  0  1.025644  0
H  H31  1  0.99070004  0.65256579  0.60218036  1  0.116263  0  0.117446  0.12214  0  1.025613  0
H  H32  1  0.32596372  0.68875312  0.38553771  1  0.190641  0  0.129043  0.14914  0  1.006091  0
H  H33  1  0.17404002  0.31124661  0.88553657  1  0.190709  0  0.129051  0.149143  0  1.006016  0
H  H34  1  0.67403636  0.18875003  0.11446484  1  0.191023  0  0.129034  0.149112  0  1.006173  0
H  H35  1  0.82596280  0.81124984  0.61446343  1  0.190981  0  0.129049  0.149091  0  1.006117  0
H  H36  1  0.28091039  0.77040409  0.14319138  1  0.070885  0  0.100542  0.142456  0  1.051196  0
H  H37  1  0.21908685  0.22959515  0.64318974  1  0.070862  0  0.100532  0.142451  0  1.051222  0
H  H38  1  0.71909015  0.27040528  0.35681009  1  0.070931  0  0.100552  0.142452  0  1.051201  0
H  H39  1  0.78091089  0.72959768  0.85680873  1  0.070858  0  0.100529  0.142443  0  1.051228  0
H  H40  1  0.40535883  0.86250808  0.14731944  1  0.131924  0  0.100723  0.153565  0  1.046846  0
H  H41  1  0.09464071  0.13749116  0.64731840  1  0.131878  0  0.100704  0.153541  0  1.046855  0
H  H42  1  0.59463980  0.36250961  0.35268095  1  0.131984  0  0.100715  0.15354  0  1.046845  0
H  H43  1  0.90535896  0.63749335  0.85268063  1  0.131937  0  0.100736  0.153572  0  1.046835  0
H  H44  1  0.20798744  0.87415649  0.16896642  1  0.024567  0  0.094863  0.138737  0  0.99892  0
H  H45  1  0.29201207  0.12584273  0.66896480  1  0.024553  0  0.094852  0.138729  0  0.998915  0
H  H46  1  0.79200995  0.37415751  0.33103292  1  0.024661  0  0.094833  0.1387  0  0.998957  0
H  H47  1  0.70798769  0.62584547  0.83103476  1  0.024491  0  0.094867  0.138753  0  0.998882  0
H  H48  1  0.21581737  0.61042090  0.28626824  1  0.149307  0  0.113593  0.108115  0  1.0049  0
H  H49  1  0.28418193  0.38957954  0.78626860  1  0.149316  0  0.113591  0.108097  0  1.004865  0
H  H50  1  0.78418796  0.11041875  0.21373278  1  0.149424  0  0.113599  0.108144  0  1.0048  0
H  H51  1  0.71581333  0.88958104  0.71373241  1  0.149406  0  0.113607  0.108094  0  1.004904  0
H  H52  1  0.24786786  0.64996227  0.20054601  1  0.092659  0  0.107789  0.085595  0  1.023749  0
H  H53  1  0.25213159  0.35003889  0.70054482  1  0.092609  0  0.107809  0.085583  0  1.023836  0
H  H54  1  0.75213485  0.14996080  0.29945605  1  0.092629  0  0.107813  0.085642  0  1.023678  0
H  H55  1  0.74786630  0.85003959  0.79945569  1  0.092603  0  0.107817  0.085598  0  1.023783  0
H  H56  1  0.02231515  0.74933956  0.20990781  1  0.000519  0  0.08964  0.080286  0  1.01459  0
H  H57  1  0.47768544  0.25066225  0.70990555  1  0.000514  0  0.089617  0.080257  0  1.014543  0
H  H58  1  0.97768328  0.24933944  0.29009524  1  0.000696  0  0.089683  0.080356  0  1.014506  0
H  H59  1  0.52231674  0.75066160  0.79009500  1  0.000505  0  0.089642  0.080292  0  1.014511  0
H  H60  1  0.97176286  0.63891707  0.22048253  1  0.03095  0  0.097826  0.101095  0  0.97956  0
H  H61  1  0.52823612  0.36108468  0.72048038  1  0.030831  0  0.097854  0.101125  0  0.979577  0
H  H62  1  0.02823994  0.13891758  0.27951796  1  0.030843  0  0.097869  0.101158  0  0.979641  0
H  H63  1  0.47176053  0.86108484  0.77951960  1  0.030872  0  0.097859  0.101145  0  0.979546  0
H  H64  1  0.02531176  0.76714803  0.34243220  1  0.030267  0  0.095096  0.092084  0  0.995626  0
H  H65  1  0.47468745  0.23285434  0.84243046  1  0.030228  0  0.095091  0.092094  0  0.995556  0
H  H66  1  0.97468421  0.26715194  0.15757085  1  0.030131  0  0.095101  0.092081  0  0.995569  0
H  H67  1  0.52531487  0.73285312  0.65757062  1  0.030195  0  0.095105  0.09212  0  0.995535  0
H  H68  1  0.96197075  0.65835764  0.35015033  1  0.047267  0  0.096395  0.096133  0  0.979783  0
H  H69  1  0.53802801  0.34164402  0.85014766  1  0.047212  0  0.096443  0.096217  0  0.979724  0
H  H70  1  0.03802844  0.15836214  0.14985120  1  0.04727  0  0.096396  0.096158  0  0.979706  0
H  H71  1  0.46197110  0.84164298  0.64985233  1  0.047233  0  0.096397  0.096127  0  0.979745  0
H  H72  1  0.74144796  0.76144487  0.35896429  1  0.064013  0  0.111232  0.089088  0  0.982832  0
H  H73  1  0.75855079  0.23855613  0.85896315  1  0.064069  0  0.11122  0.089102  0  0.982675  0
H  H74  1  0.25854922  0.26144747  0.14103666  1  0.064051  0  0.111237  0.089093  0  0.98282  0
H  H75  1  0.24145148  0.73855569  0.64103792  1  0.064115  0  0.111226  0.089081  0  0.982666  0
H  H76  1  0.79226576  0.81190623  0.27952811  1  0.087671  0  0.114605  0.101913  0  0.993741  0
H  H77  1  0.70773197  0.18809417  0.77952701  1  0.087659  0  0.11461  0.101896  0  0.993783  0
H  H78  1  0.20773330  0.31191022  0.22047282  1  0.08759  0  0.114602  0.101896  0  0.993689  0
H  H79  1  0.29226957  0.68809420  0.72047408  1  0.087636  0  0.1146  0.101887  0  0.99372  0
H  H80  1  0.68163634  0.75769455  0.17109250  1  0.181161  0  0.120699  0.127917  0  1.041499  0
H  H81  1  0.81836388  0.24230658  0.67109134  1  0.181122  0  0.120687  0.127915  0  1.041597  0
H  H82  1  0.31836432  0.25769555  0.32890898  1  0.181134  0  0.120669  0.127875  0  1.041482  0
H  H83  1  0.18163376  0.74230683  0.82890921  1  0.181109  0  0.1207  0.127955  0  1.041642  0
H  H84  1  0.51579761  0.60696421  0.13448126  1  0.151331  0  0.116664  0.114826  0  1.054695  0
H  H85  1  0.98419922  0.39303433  0.63447945  1  0.151524  0  0.11667  0.114855  0  1.054897  0
H  H86  1  0.48419856  0.10696473  0.36552029  1  0.15113  0  0.11668  0.11487  0  1.054785  0
H  H87  1  0.01579602  0.89303501  0.86551999  1  0.15149  0  0.116663  0.114845  0  1.054941  0
H  H88  1  0.57299680  0.53092063  0.37748395  1  0.125775  0  0.103811  0.157571  0  1.039824  0
H  H89  1  0.92700536  0.46907840  0.87748213  1  0.125774  0  0.103803  0.157574  0  1.039844  0
H  H90  1  0.42700345  0.03092278  0.12251815  1  0.125811  0  0.103817  0.157583  0  1.039835  0
H  H91  1  0.07299383  0.96907974  0.62251833  1  0.125767  0  0.103813  0.157544  0  1.039803  0
H  H92  1  0.66208848  0.62976282  0.40302626  1  0.046976  0  0.104034  0.149661  0  0.984565  0
H  H93  1  0.83791479  0.37023488  0.90302347  1  0.04701  0  0.104061  0.149714  0  0.984539  0
H  H94  1  0.33791209  0.12976589  0.09697528  1  0.046966  0  0.10406  0.149714  0  0.984531  0
H  H95  1  0.16208523  0.87023534  0.59697702  1  0.047027  0  0.104064  0.149698  0  0.984532  0
H  H96  1  0.77635824  0.54339599  0.36943328  1  0.036505  0  0.098977  0.141235  0  0.992154  0
H  H97  1  0.72364394  0.45660173  0.86943206  1  0.03655  0  0.098978  0.141291  0  0.992112  0
H  H98  1  0.22364191  0.04339869  0.13056829  1  0.036565  0  0.098989  0.141278  0  0.99214  0
H  H99  1  0.27635421  0.95660252  0.63056892  1  0.036572  0  0.098987  0.141298  0  0.992089  0
C  C100  1  0.70528795  0.95730345  0.12139092  1  1.583803  0  0.205382  0.584273  0  4.248872  0
C  C101  1  0.79470890  0.04268334  0.62138777  1  1.584903  0  0.205409  0.584447  0  4.248974  0
C  C102  1  0.29471794  0.45729794  0.37860682  1  1.583687  0  0.205328  0.584231  0  4.248425  0
C  C103  1  0.20528121  0.54270506  0.87860609  1  1.583368  0  0.205445  0.584429  0  4.248273  0
C  C104  1  0.78684810  0.90023648  0.06928880  1  0.055901  0  -0.006022  -0.086572  0  3.921745  0
C  C105  1  0.71315229  0.09976146  0.56928565  1  0.055895  0  -0.005986  -0.08657  0  3.921624  0
C  C106  1  0.21315597  0.40023899  0.43071157  1  0.055862  0  -0.006033  -0.08664  0  3.92168  0
C  C107  1  0.28684194  0.59976005  0.93071235  1  0.05578  0  -0.006007  -0.08663  0  3.921802  0
C  C108  1  0.91234588  0.85053310  0.09167820  1  -0.101671  0  -0.077395  -0.077288  0  3.994533  0
C  C109  1  0.58765332  0.14946351  0.59167663  1  -0.101629  0  -0.077328  -0.077236  0  3.994408  0
C  C110  1  0.08765515  0.35053728  0.40832011  1  -0.101652  0  -0.077368  -0.077302  0  3.994401  0
C  C111  1  0.41233705  0.64946243  0.90832031  1  -0.101504  0  -0.077352  -0.077334  0  3.994365  0
C  C112  1  0.98782616  0.79589041  0.04494125  1  -0.024578  0  -0.092425  -0.131616  0  3.99063  0
C  C113  1  0.51217311  0.20410885  0.54494126  1  -0.024437  0  -0.09244  -0.13166  0  3.990718  0
C  C114  1  0.01217647  0.29589214  0.45505761  1  -0.024408  0  -0.092411  -0.131576  0  3.990684  0
C  C115  1  0.48782600  0.70410622  0.95505983  1  -0.02447  0  -0.092435  -0.131577  0  3.990562  0
C  C116  1  0.93174063  0.79150829  0.97683765  1  0.469664  0  0.040214  0.093737  0  3.983959  0
C  C117  1  0.56825562  0.20849263  0.47683857  1  0.469624  0  0.040295  0.093876  0  3.983945  0
C  C118  1  0.06825890  0.29150822  0.52315923  1  0.46956  0  0.040208  0.093762  0  3.984136  0
C  C119  1  0.43174085  0.70848718  0.02316189  1  0.469284  0  0.040174  0.093632  0  3.984285  0
C  C120  1  0.74157106  0.89317647  0.99920828  1  0.505127  0  0.129568  0.165912  0  3.969886  0
C  C121  1  0.75842630  0.10682378  0.49920396  1  0.505252  0  0.129544  0.165895  0  3.96999  0
C  C122  1  0.25842762  0.39317720  0.50079325  1  0.505155  0  0.129578  0.165962  0  3.969685  0
C  C123  1  0.24157102  0.60681887  0.00079341  1  0.505052  0  0.129549  0.165951  0  3.969678  0
C  C124  1  0.60312473  0.94012943  0.97249618  1  0.581142  0  0.131359  0.165963  0  3.960794  0
C  C125  1  0.89687497  0.05987214  0.47248975  1  0.58113  0  0.13139  0.166043  0  3.960857  0
C  C126  1  0.39687586  0.44012977  0.52750637  1  0.581136  0  0.131411  0.166029  0  3.960679  0
C  C127  1  0.10312618  0.55986759  0.02750817  1  0.581076  0  0.131322  0.166002  0  3.961053  0
C  C128  1  0.60741738  0.99126734  0.91137923  1  -0.068973  0  -0.008703  -0.098583  0  3.912202  0
C  C129  1  0.89258473  0.00873885  0.41137230  1  -0.075256  0  -0.008748  -0.098656  0  3.912439  0
C  C130  1  0.39258509  0.49126504  0.58862330  1  -0.069092  0  -0.008764  -0.098703  0  3.912357  0
C  C131  1  0.10742030  0.50873228  0.08862564  1  -0.075721  0  -0.0087  -0.098776  0  3.91241  0
C  C132  1  0.46762982  0.02337315  0.88563102  1  -0.016671  0  -0.071037  -0.054675  0  3.961725  0
C  C133  1  0.03237392  0.97663180  0.38562484  1  -0.016832  0  -0.071009  -0.054603  0  3.961849  0
C  C134  1  0.53237194  0.52337064  0.61437067  1  -0.01672  0  -0.071026  -0.054595  0  3.961856  0
C  C135  1  0.96762721  0.47662596  0.11437185  1  -0.016616  0  -0.070999  -0.05455  0  3.961666  0
C  C136  1  0.33159287  0.00658052  0.92154530  1  -0.078548  0  -0.090902  -0.141905  0  3.997212  0
C  C137  1  0.16841080  0.99341983  0.42154271  1  -0.078725  0  -0.090884  -0.141841  0  3.997195  0
C  C138  1  0.66840788  0.50658159  0.57845483  1  -0.078306  0  -0.090903  -0.141982  0  3.997182  0
C  C139  1  0.83159479  0.49341503  0.07845710  1  -0.07846  0  -0.090858  -0.141841  0  3.99713  0
C  C140  1  0.34068965  0.95848146  0.98328761  1  0.532926  0  0.044422  0.100917  0  3.990226  0
C  C141  1  0.15931048  0.04151558  0.48328440  1  0.532826  0  0.044397  0.100958  0  3.990211  0
C  C142  1  0.65930734  0.45848306  0.51671128  1  0.532853  0  0.044443  0.100994  0  3.990193  0
C  C143  1  0.84069198  0.54151295  0.01671405  1  0.532864  0  0.044318  0.100851  0  3.990042  0
C  C144  1  0.75612415  0.01353971  0.87537751  1  1.582069  0  0.198904  0.56836  0  4.240445  0
C  C145  1  0.74388722  0.98646390  0.37536707  1  1.589348  0  0.199001  0.568374  0  4.240521  0
C  C146  1  0.24387885  0.51353862  0.62462679  1  1.582573  0  0.198919  0.568294  0  4.240626  0
C  C147  1  0.25611383  0.48646063  0.12463431  1  1.589505  0  0.199029  0.568483  0  4.240398  0
C  C148  1  0.43016351  0.81812066  0.35421379  1  0.39478  0  -0.012769  -0.054831  0  4.056412  0
C  C149  1  0.06983798  0.18187909  0.85421170  1  0.394873  0  -0.012803  -0.054762  0  4.05653  0
C  C150  1  0.56983549  0.31811914  0.14578715  1  0.395588  0  -0.012784  -0.054796  0  4.056412  0
C  C151  1  0.93016362  0.68188266  0.64578679  1  0.395575  0  -0.012817  -0.054882  0  4.056668  0
C  C152  1  0.34856602  0.74165185  0.34926240  1  0.252593  0  -0.00224  -0.112814  0  3.931101  0
C  C153  1  0.15143548  0.25834660  0.84926129  1  0.252505  0  -0.002282  -0.112867  0  3.931032  0
C  C154  1  0.65143362  0.24164879  0.15073805  1  0.252159  0  -0.002254  -0.112828  0  3.930956  0
C  C155  1  0.84856663  0.75834974  0.65073769  1  0.252187  0  -0.002216  -0.112706  0  3.931088  0
C  C156  1  0.34448116  0.80972049  0.24641209  1  0.967085  0  0.21678  0.340121  0  3.93713  0
C  C157  1  0.15551936  0.19027998  0.74641101  1  0.967255  0  0.21675  0.340105  0  3.937152  0
C  C158  1  0.65551791  0.30971867  0.25358884  1  0.967256  0  0.21678  0.340154  0  3.936982  0
C  C159  1  0.84447986  0.69028110  0.75358852  1  0.967289  0  0.216792  0.340178  0  3.937078  0
C  C160  1  0.30767202  0.83002788  0.17261190  1  -0.060957  0  -0.237542  -0.477926  0  3.933324  0
C  C161  1  0.19232747  0.16997134  0.67261081  1  -0.06093  0  -0.237535  -0.477908  0  3.933313  0
C  C162  1  0.69232918  0.33002982  0.32738747  1  -0.061159  0  -0.237521  -0.477866  0  3.933288  0
C  C163  1  0.80767192  0.66997316  0.82738821  1  -0.06088  0  -0.237542  -0.477945  0  3.933343  0
C  C164  1  0.20141160  0.66718846  0.25194376  1  0.247429  0  -0.058243  -0.068636  0  3.867771  0
C  C165  1  0.29858776  0.33281071  0.75194152  1  0.247898  0  -0.058277  -0.068633  0  3.867808  0
C  C166  1  0.79859211  0.16718886  0.24805828  1  0.24779  0  -0.058284  -0.068754  0  3.867752  0
C  C167  1  0.70141027  0.83281418  0.74805847  1  0.247218  0  -0.058299  -0.068606  0  3.867763  0
C  C168  1  0.03292145  0.69339296  0.24573233  1  0.012919  0  -0.163562  -0.158813  0  3.93169  0
C  C169  1  0.46708023  0.30660883  0.74573057  1  0.012917  0  -0.163594  -0.158771  0  3.931537  0
C  C170  1  0.96708090  0.19339224  0.25426970  1  0.012728  0  -0.16364  -0.15895  0  3.931651  0
C  C171  1  0.53292148  0.80660883  0.75426996  1  0.013039  0  -0.163612  -0.158848  0  3.931509  0
C  C172  1  0.95885874  0.71587815  0.31562236  1  -0.025012  0  -0.163258  -0.170268  0  3.941724  0
C  C173  1  0.54113893  0.28412353  0.81562023  1  -0.024833  0  -0.163283  -0.170405  0  3.941581  0
C  C174  1  0.04114111  0.21588000  0.18437914  1  -0.024838  0  -0.163242  -0.170262  0  3.941512  0
C  C175  1  0.45886066  0.78412313  0.68437978  1  -0.024845  0  -0.163256  -0.170348  0  3.941474  0
C  C176  1  0.79436122  0.74951626  0.30779715  1  0.291724  0  -0.051266  -0.060622  0  3.881544  0
C  C177  1  0.70563761  0.25048412  0.80779498  1  0.291381  0  -0.051223  -0.060573  0  3.881293  0
C  C178  1  0.20563720  0.24951766  0.19220434  1  0.2914  0  -0.051252  -0.060617  0  3.881578  0
C  C179  1  0.29436226  0.75048416  0.69220713  1  0.291307  0  -0.051224  -0.060557  0  3.881137  0
C  C180  1  0.65393744  0.69861259  0.19978573  1  0.265696  0  -0.00075  -0.100424  0  3.923019  0
C  C181  1  0.84605583  0.30138068  0.69978245  1  0.266007  0  -0.000789  -0.100564  0  3.922395  0
C  C182  1  0.34605911  0.19861614  0.30021630  1  0.26568  0  -0.00071  -0.10039  0  3.922715  0
C  C183  1  0.15394362  0.80138037  0.80021756  1  0.26565  0  -0.000807  -0.10065  0  3.92243  0
C  C184  1  0.57149012  0.62537266  0.18289249  1  0.366737  0  -0.009546  -0.044429  0  4.025644  0
C  C185  1  0.92851582  0.37463173  0.68288653  1  0.366056  0  -0.009501  -0.044364  0  4.0252  0
C  C186  1  0.42851049  0.12537337  0.31711062  1  0.366876  0  -0.009546  -0.044497  0  4.025609  0
C  C187  1  0.07147957  0.87463229  0.81711396  1  0.366548  0  -0.00947  -0.044376  0  4.025086  0
C  C188  1  0.64112140  0.61116741  0.29277180  1  1.001836  0  0.219979  0.340854  0  3.934183  0
C  C189  1  0.85888091  0.38883298  0.79276900  1  1.001713  0  0.219915  0.340734  0  3.934449  0
C  C190  1  0.35887818  0.11117034  0.20722974  1  1.00102  0  0.21992  0.340676  0  3.934338  0
C  C191  1  0.14112011  0.88883212  0.70723097  1  1.00168  0  0.219897  0.340595  0  3.934557  0
C  C192  1  0.66489234  0.57688827  0.36429561  1  -0.05514  0  -0.231222  -0.475054  0  3.965299  0
C  C193  1  0.83510985  0.42311142  0.86429332  1  -0.055129  0  -0.231248  -0.475191  0  3.965424  0
C  C194  1  0.33510868  0.07689001  0.13570543  1  -0.055149  0  -0.231236  -0.475135  0  3.965401  0
C  C195  1  0.16488858  0.92311185  0.63570716  1  -0.055163  0  -0.231249  -0.475107  0  3.965365  0
N  N196  1  0.42761278  0.85956540  0.28993711  1  -1.24756  0  -0.368387  -0.36268  0  3.559468  0
N  N197  1  0.07238652  0.14043504  0.78993660  1  -1.247546  0  -0.368369  -0.362691  0  3.559554  0
N  N198  1  0.57238703  0.35956318  0.21006328  1  -1.247499  0  -0.368361  -0.36268  0  3.559445  0
N  N199  1  0.92761197  0.64043662  0.71006243  1  -1.247481  0  -0.368357  -0.36269  0  3.559533  0
N  N200  1  0.29602666  0.73725047  0.28112530  1  -1.222052  0  -0.241099  -0.006974  0  3.721365  0
N  N201  1  0.20397380  0.26274868  0.78112312  1  -1.222591  0  -0.241013  -0.006945  0  3.721348  0
N  N202  1  0.70397302  0.23724984  0.21887671  1  -1.222645  0  -0.241069  -0.006939  0  3.72124  0
N  N203  1  0.79602597  0.76275061  0.71887585  1  -1.222248  0  -0.241079  -0.007026  0  3.721312  0
N  N204  1  0.56347276  0.57179414  0.24107668  1  -1.25397  0  -0.364656  -0.359283  0  3.567645  0
N  N205  1  0.93652618  0.42820563  0.74107435  1  -1.253723  0  -0.364598  -0.359208  0  3.567804  0
N  N206  1  0.43652484  0.07179486  0.25892489  1  -1.25358  0  -0.364609  -0.359168  0  3.567625  0
N  N207  1  0.06347106  0.92820560  0.75892508  1  -1.253799  0  -0.364626  -0.359167  0  3.56781  0
N  N208  1  0.69663319  0.68887684  0.26894703  1  -1.225591  0  -0.241405  -0.012676  0  3.724198  0
N  N209  1  0.80336801  0.31112357  0.76894585  1  -1.225144  0  -0.241417  -0.012578  0  3.724052  0
N  N210  1  0.30336804  0.18887991  0.23105448  1  -1.22466  0  -0.241468  -0.012599  0  3.724137  0
N  N211  1  0.19663136  0.81112450  0.73105520  1  -1.225197  0  -0.241403  -0.012453  0  3.724024  0
N  N212  1  0.47253828  0.92562743  0.00836078  1  -1.198581  0  -0.311064  -0.299039  0  3.332347  0
N  N213  1  0.02746034  0.07436994  0.50835875  1  -1.198339  0  -0.310998  -0.299066  0  3.332371  0
N  N214  1  0.52746097  0.42563102  0.49163854  1  -1.198544  0  -0.31108  -0.299063  0  3.332396  0
N  N215  1  0.97254445  0.57436532  0.99164031  1  -1.198349  0  -0.31095  -0.298965  0  3.332421  0
N  N216  1  0.81168333  0.83850502  0.95412216  1  -1.221038  0  -0.314941  -0.307229  0  3.356302  0
N  N217  1  0.68831296  0.16149526  0.45412149  1  -1.221085  0  -0.315035  -0.307388  0  3.356498  0
N  N218  1  0.18831466  0.33850461  0.54587678  1  -1.220999  0  -0.314972  -0.307293  0  3.356336  0
N  N219  1  0.31168850  0.66149143  0.04587899  1  -1.221029  0  -0.314911  -0.3072  0  3.3564  0
O  O220  1  0.70283432  0.03820373  0.11472679  1  -1.147419  0  -0.320501  -0.547691  0  2.133991  0
O  O221  1  0.79715794  0.96179875  0.61472480  1  -1.148575  0  -0.320504  -0.547692  0  2.134416  0
O  O222  1  0.29717966  0.53820559  0.38526801  1  -1.147177  0  -0.320521  -0.547669  0  2.133459  0
O  O223  1  0.20282177  0.46178891  0.88526940  1  -1.147074  0  -0.320605  -0.547855  0  2.1331  0
O  O224  1  0.64585579  0.91228872  0.17212294  1  -1.191519  0  -0.333646  -0.572451  0  2.375527  0
O  O225  1  0.85414097  0.08770783  0.67212183  1  -1.191435  0  -0.333648  -0.572553  0  2.375367  0
O  O226  1  0.35414933  0.41228309  0.32787848  1  -1.191719  0  -0.333598  -0.572412  0  2.375481  0
O  O227  1  0.14585796  0.58771341  0.82787670  1  -1.191546  0  -0.333638  -0.572443  0  2.375689  0
O  O228  1  0.87855703  0.02030253  0.90898820  1  -1.173022  0  -0.321931  -0.54416  0  2.122956  0
O  O229  1  0.62144393  0.97969843  0.40897886  1  -1.173572  0  -0.322035  -0.544208  0  2.1227  0
O  O230  1  0.12144476  0.52030115  0.59101610  1  -1.173389  0  -0.322005  -0.544182  0  2.122889  0
O  O231  1  0.37856293  0.47969878  0.09102357  1  -1.173472  0  -0.32207  -0.54426  0  2.12261  0
O  O232  1  0.74292835  0.02557289  0.80843469  1  -1.178134  0  -0.341417  -0.57033  0  2.317391  0
O  O233  1  0.75707739  0.97443011  0.30842686  1  -1.178495  0  -0.341421  -0.570297  0  2.317721  0
O  O234  1  0.25707570  0.52557368  0.69156804  1  -1.178282  0  -0.34131  -0.570164  0  2.317575  0
O  O235  1  0.24291801  0.47442552  0.19157296  1  -1.178553  0  -0.341415  -0.570332  0  2.317724  0
