# generated using pymatgen
data_BiH8C8N4Cl3
_symmetry_space_group_name_H-M   'P 1'
_cell_length_a   7.80559487
_cell_length_b   9.62459329
_cell_length_c   9.88649668
_cell_angle_alpha   107.07185158
_cell_angle_beta   111.53882694
_cell_angle_gamma   98.26065500
_symmetry_Int_Tables_number   1
_chemical_formula_structural   BiH8C8N4Cl3
_chemical_formula_sum   'Bi2 H16 C16 N8 Cl6'
_cell_volume   633.46484217
_cell_formula_units_Z   2
loop_
 _symmetry_equiv_pos_site_id
 _symmetry_equiv_pos_as_xyz
  1  'x, y, z'
loop_
 _atom_site_type_symbol
 _atom_site_label
 _atom_site_symmetry_multiplicity
 _atom_site_fract_x
 _atom_site_fract_y
 _atom_site_fract_z
 _atom_site_occupancy
 _atom_site_pbe_bader_spin_density
 _atom_site_pbe_cm5_charge
 _atom_site_pbe_ddec_charge
 _atom_site_pbe_ddec_spin_density
 _atom_site_pbe_ddec_sum_bond_order
 _atom_site_pbe_magmom
Bi  Bi0  1  0.19329457  0.68055931  0.73273756  1  0  0.669085  1.085923  0  2.905638  0
Bi  Bi1  1  0.80670568  0.31944045  0.26726212  1  0  0.669085  1.085921  0  2.905649  0
H  H2  1  0.87945478  0.70223842  0.93379487  1  0  0.105343  0.09084  0  1.041912  0
H  H3  1  0.12054549  0.29776135  0.06620582  1  0  0.105341  0.090874  0  1.041954  0
H  H4  1  0.22915894  0.41734450  0.90554123  1  0  0.102465  0.09076  0  1.040799  0
H  H5  1  0.77084131  0.58265526  0.09445844  1  0  0.102461  0.090742  0  1.040816  0
H  H6  1  0.52253700  0.47291593  0.74230369  1  0  0.113963  0.09083  0  1.018529  0
H  H7  1  0.47746191  0.52708384  0.25769864  1  0  0.113954  0.090798  0  1.018557  0
H  H8  1  0.69233445  0.34061652  0.59330334  1  0  0.109239  0.086406  0  1.066552  0
H  H9  1  0.30766484  0.65938438  0.40669841  1  0  0.109234  0.086412  0  1.066554  0
H  H10  1  0.64794238  0.87140319  0.82152456  1  0  0.106267  0.092284  0  1.042267  0
H  H11  1  0.35205744  0.12859544  0.17847264  1  0  0.106268  0.092305  0  1.042281  0
H  H12  1  0.13459854  0.96688598  0.61217615  1  0  0.110425  0.0965  0  1.01562  0
H  H13  1  0.86540349  0.03311493  0.38782436  1  0  0.110429  0.096509  0  1.015585  0
H  H14  1  0.82580644  0.08714921  0.78717562  1  0  0.107543  0.093336  0  1.009322  0
H  H15  1  0.17419377  0.91285055  0.21282101  1  0  0.107526  0.093317  0  1.00929  0
H  H16  1  0.31217890  0.18552232  0.57950589  1  0  0.101927  0.082103  0  1.034391  0
H  H17  1  0.68781997  0.81447744  0.42049340  1  0  0.101928  0.082107  0  1.034381  0
C  C18  1  0.93280376  0.61110608  0.96295178  1  0  0.052296  0.049355  0  3.913525  0
C  C19  1  0.06719786  0.38889369  0.03704728  1  0  0.05222  0.049209  0  3.913556  0
C  C20  1  0.12577794  0.45443896  0.94689937  1  0  0.050539  0.059216  0  3.914928  0
C  C21  1  0.87422273  0.54556194  0.05310176  1  0  0.050556  0.05926  0  3.914951  0
C  C22  1  0.51291114  0.48503169  0.63366872  1  0  0.054672  0.058393  0  3.917366  0
C  C23  1  0.48708817  0.51496921  0.36633405  1  0  0.054646  0.058459  0  3.91736  0
C  C24  1  0.60740869  0.41252316  0.55141662  1  0  0.049499  0.046681  0  3.90897  0
C  C25  1  0.39259280  0.58748001  0.44858742  1  0  0.049459  0.046585  0  3.909038  0
C  C26  1  0.57295695  0.94056876  0.76520412  1  0  0.052861  0.047262  0  3.913918  0
C  C27  1  0.42704192  0.05943100  0.23479516  1  0  0.05283  0.047199  0  3.913939  0
C  C28  1  0.28919358  0.99416731  0.64956737  1  0  0.050843  0.055557  0  3.907633  0
C  C29  1  0.71080668  0.00583246  0.35043333  1  0  0.050841  0.05558  0  3.907627  0
C  C30  1  0.67066318  0.06205012  0.74694200  1  0  0.049203  0.052587  0  3.94661  0
C  C31  1  0.32933704  0.93794965  0.25305565  1  0  0.049212  0.052622  0  3.946583  0
C  C32  1  0.38936932  0.11493895  0.63252576  1  0  0.04505  0.050311  0  3.946448  0
C  C33  1  0.61063092  0.88506081  0.36747290  1  0  0.045035  0.050278  0  3.946461  0
N  N34  1  0.05838744  0.56523703  0.90988186  1  0  -0.285543  -0.204559  0  3.451805  0
N  N35  1  0.94161224  0.43476500  0.09011932  1  0  -0.285448  -0.204495  0  3.451753  0
N  N36  1  0.40651897  0.57239022  0.58248010  1  0  -0.28619  -0.207673  0  3.471305  0
N  N37  1  0.59348213  0.42761182  0.41752451  1  0  -0.286297  -0.207815  0  3.471311  0
N  N38  1  0.38199709  0.90651913  0.71451710  1  0  -0.28337  -0.183699  0  3.506055  0
N  N39  1  0.61800355  0.09348177  0.28548200  1  0  -0.283339  -0.183683  0  3.506002  0
N  N40  1  0.57998553  0.14898205  0.68002123  1  0  -0.297035  -0.214633  0  3.318079  0
N  N41  1  0.42001293  0.85101657  0.31997660  1  0  -0.297009  -0.214623  0  3.318035  0
Cl  Cl42  1  0.04340595  0.88761740  0.83941979  1  0  -0.25993  -0.459246  0  1.151427  0
Cl  Cl43  1  0.95659154  0.11238236  0.16057910  1  0  -0.259915  -0.459227  0  1.151439  0
Cl  Cl44  1  0.04408323  0.34275493  0.57463324  1  0  -0.266679  -0.51367  0  1.189657  0
Cl  Cl45  1  0.95591564  0.65724483  0.42536605  1  0  -0.266687  -0.513683  0  1.189656  0
Cl  Cl46  1  0.51000056  0.72525047  0.97595650  1  0  -0.252396  -0.444751  0  1.138991  0
Cl  Cl47  1  0.48999870  0.27475042  0.02404220  1  0  -0.252411  -0.444764  0  1.138974  0
