# generated using pymatgen
data_GdH9C15(NO3)2
_symmetry_space_group_name_H-M   'P 1'
_cell_length_a   6.78835261
_cell_length_b   12.85549616
_cell_length_c   16.72290000
_cell_angle_alpha   90.00000000
_cell_angle_beta   93.67808522
_cell_angle_gamma   90.00000000
_symmetry_Int_Tables_number   1
_chemical_formula_structural   GdH9C15(NO3)2
_chemical_formula_sum   'Gd4 H36 C60 N8 O24'
_cell_volume   1456.36206583
_cell_formula_units_Z   4
loop_
 _symmetry_equiv_pos_site_id
 _symmetry_equiv_pos_as_xyz
  1  'x, y, z'
loop_
 _atom_site_type_symbol
 _atom_site_label
 _atom_site_symmetry_multiplicity
 _atom_site_fract_x
 _atom_site_fract_y
 _atom_site_fract_z
 _atom_site_occupancy
 _atom_site_hle17_bader_spin_density
 _atom_site_hle17_ddec_charge
 _atom_site_hle17_ddec_spin_density
 _atom_site_hle17_ddec_sum_bond_order
 _atom_site_hle17_magmom
 _atom_site_hse06_10hf_bader_spin_density
 _atom_site_hse06_10hf_ddec_charge
 _atom_site_hse06_10hf_ddec_spin_density
 _atom_site_hse06_10hf_ddec_sum_bond_order
 _atom_site_hse06_10hf_magmom
 _atom_site_hse06_bader_spin_density
 _atom_site_hse06_ddec_charge
 _atom_site_hse06_ddec_spin_density
 _atom_site_hse06_ddec_sum_bond_order
 _atom_site_hse06_magmom
 _atom_site_pbe_bader_charge
 _atom_site_pbe_bader_spin_density
 _atom_site_pbe_cm5_charge
 _atom_site_pbe_ddec_charge
 _atom_site_pbe_ddec_spin_density
 _atom_site_pbe_ddec_sum_bond_order
 _atom_site_pbe_magmom
Gd  Gd0  1  0.61757771  0.62747403  0.04865370  1  0  2.210603  0  1.827074  0  0  2.124204  0  2.189646  0  0  2.18031  0  2.131072  0  2.193224  0  1.50681  2.079349  0  2.238532  0
Gd  Gd1  1  0.88242152  0.12747388  0.95134602  1  0  2.210572  0  1.827118  0  0  2.124191  0  2.189674  0  0  2.180273  0  2.131135  0  2.193116  0  1.506771  2.079324  0  2.238578  0
Gd  Gd2  1  0.38242079  0.37252627  0.95134549  1  0  2.210588  0  1.827124  0  0  2.124204  0  2.189666  0  0  2.180281  0  2.131138  0  2.193231  0  1.506789  2.079319  0  2.238603  0
Gd  Gd3  1  0.11757846  0.87252564  0.04865440  1  0  2.210626  0  1.827034  0  0  2.12424  0  2.189585  0  0  2.180345  0  2.131012  0  2.193229  0  1.506814  2.079384  0  2.238473  0
H  H4  1  0.11654368  0.78513734  0.29765723  1  0  0.094772  0  0.987382  0  0  0.103082  0  1.053106  0  0  0.105344  0  1.053384  0  0.107763  0  0.102833  0.101417  0  1.053039  0
H  H5  1  0.38345410  0.28513796  0.70234262  1  0  0.094758  0  0.987333  0  0  0.103067  0  1.05307  0  0  0.105328  0  1.053349  0  0.107758  0  0.102824  0.101402  0  1.053004  0
H  H6  1  0.88345335  0.21486141  0.70234132  1  0  0.094808  0  0.987324  0  0  0.103101  0  1.053115  0  0  0.105363  0  1.053393  0  0.107763  0  0.102825  0.101447  0  1.053015  0
H  H7  1  0.61654440  0.71486156  0.29765776  1  0  0.094776  0  0.987324  0  0  0.10304  0  1.053108  0  0  0.105303  0  1.053385  0  0.107776  0  0.102804  0.101376  0  1.053041  0
H  H8  1  0.04563376  0.75222145  0.44132791  1  0  0.108316  0  0.960851  0  0  0.110561  0  1.031753  0  0  0.1137  0  1.030062  0  0.086482  0  0.104606  0.108248  0  1.033134  0
H  H9  1  0.45436549  0.25222130  0.55867198  1  0  0.108303  0  0.960814  0  0  0.110543  0  1.03172  0  0  0.113683  0  1.030029  0  0.086486  0  0.104593  0.10823  0  1.033101  0
H  H10  1  0.95436474  0.24777885  0.55867128  1  0  0.108363  0  0.960779  0  0  0.110592  0  1.031696  0  0  0.113734  0  1.030004  0  0.086473  0  0.104616  0.108278  0  1.033078  0
H  H11  1  0.54563449  0.74777977  0.44132843  1  0  0.108371  0  0.960806  0  0  0.110603  0  1.031721  0  0  0.113745  0  1.030028  0  0.086488  0  0.104616  0.108289  0  1.033102  0
H  H12  1  0.75292461  0.46731841  0.37086757  1  0  0.106043  0  0.941105  0  0  0.11556  0  1.001673  0  0  0.118506  0  1.000803  0  0.083902  0  0.107386  0.113446  0  1.002391  0
H  H13  1  0.74707610  0.96731856  0.62913277  1  0  0.106043  0  0.941117  0  0  0.115557  0  1.001687  0  0  0.118502  0  1.000818  0  0.083884  0  0.107385  0.113442  0  1.002405  0
H  H14  1  0.24707537  0.53268111  0.62913344  1  0  0.106052  0  0.941114  0  0  0.115569  0  1.001681  0  0  0.118514  0  1.000813  0  0.083888  0  0.107393  0.113455  0  1.0024  0
H  H15  1  0.25292241  0.03268096  0.37086701  1  0  0.106075  0  0.941098  0  0  0.115583  0  1.001671  0  0  0.118528  0  1.000803  0  0.083879  0  0.107387  0.113468  0  1.002388  0
H  H16  1  0.82001277  0.50152712  0.22690184  1  0  0.101591  0  0.942469  0  0  0.110731  0  1.003521  0  0  0.113821  0  1.00209  0  0.115768  0  0.111435  0.108508  0  1.004555  0
H  H17  1  0.67998646  0.00152775  0.77309847  1  0  0.101593  0  0.94247  0  0  0.110743  0  1.0035  0  0  0.113834  0  1.002069  0  0.115767  0  0.11143  0.10852  0  1.004534  0
H  H18  1  0.17998278  0.49847162  0.77309847  1  0  0.101601  0  0.942475  0  0  0.11075  0  1.003505  0  0  0.113842  0  1.002076  0  0.115781  0  0.111447  0.108527  0  1.004538  0
H  H19  1  0.32001351  0.99847255  0.22690135  1  0  0.101638  0  0.942424  0  0  0.110783  0  1.00347  0  0  0.113878  0  1.002031  0  0.115776  0  0.111449  0.10856  0  1.004503  0
H  H20  1  0.94097899  0.76580553  0.66885198  1  0  0.102515  0  0.968546  0  0  0.109123  0  1.035466  0  0  0.111439  0  1.036191  0  0.114091  0  0.10197  0.107456  0  1.035062  0
H  H21  1  0.55902171  0.26580538  0.33114777  1  0  0.102534  0  0.968542  0  0  0.109134  0  1.035465  0  0  0.111451  0  1.036189  0  0.114095  0  0.101975  0.107468  0  1.035061  0
H  H22  1  0.05902099  0.23419555  0.33114844  1  0  0.102538  0  0.968526  0  0  0.109152  0  1.03544  0  0  0.11147  0  1.036162  0  0.114097  0  0.101985  0.107485  0  1.035036  0
H  H23  1  0.44097827  0.73419414  0.66885205  1  0  0.10253  0  0.968535  0  0  0.109135  0  1.035454  0  0  0.111452  0  1.036178  0  0.114086  0  0.101972  0.107468  0  1.035051  0
H  H24  1  0.85471119  0.72369280  0.80948323  1  0  0.10309  0  0.940045  0  0  0.113042  0  0.99846  0  0  0.116413  0  0.996469  0  0.085119  0  0.106021  0.110588  0  0.999944  0
H  H25  1  0.64528803  0.22369187  0.19051708  1  0  0.103075  0  0.940092  0  0  0.113025  0  0.998495  0  0  0.116397  0  0.996505  0  0.085117  0  0.106011  0.110576  0  0.99998  0
H  H26  1  0.14528731  0.27630750  0.19051715  1  0  0.103109  0  0.940005  0  0  0.113058  0  0.998417  0  0  0.11643  0  0.996426  0  0.085128  0  0.106037  0.110608  0  0.999903  0
H  H27  1  0.35471194  0.77630765  0.80948274  1  0  0.103099  0  0.940066  0  0  0.113048  0  0.99847  0  0  0.116419  0  0.996479  0  0.085131  0  0.106026  0.110598  0  0.999954  0
H  H28  1  0.56300142  0.44514579  0.72340408  1  0  0.105803  0  0.957682  0  0  0.114779  0  1.020175  0  0  0.118088  0  1.018467  0  0.088336  0  0.107699  0.112351  0  1.021561  0
H  H29  1  0.93699781  0.94514594  0.27659563  1  0  0.105818  0  0.957637  0  0  0.114791  0  1.020143  0  0  0.118101  0  1.018435  0  0.08886  0  0.1077  0.112364  0  1.02153  0
H  H30  1  0.43700004  0.55485373  0.27659577  1  0  0.105805  0  0.95767  0  0  0.114782  0  1.020163  0  0  0.118091  0  1.018455  0  0.088853  0  0.107698  0.112353  0  1.02155  0
H  H31  1  0.06300069  0.05485436  0.72340416  1  0  0.105803  0  0.957692  0  0  0.114782  0  1.020183  0  0  0.118092  0  1.018475  0  0.088854  0  0.107699  0.112353  0  1.021571  0
H  H32  1  0.64461786  0.48807529  0.58279702  1  0  0.110143  0  0.946677  0  0  0.113843  0  1.014628  0  0  0.117822  0  1.011917  0  0.093707  0  0.107707  0.110951  0  1.016713  0
H  H33  1  0.85538137  0.98807466  0.41720329  1  0  0.110143  0  0.946683  0  0  0.113846  0  1.014631  0  0  0.117825  0  1.011919  0  0.093708  0  0.107704  0.110953  0  1.016716  0
H  H34  1  0.35538359  0.51192501  0.41720344  1  0  0.110139  0  0.946694  0  0  0.11384  0  1.014644  0  0  0.11782  0  1.011931  0  0.093704  0  0.107717  0.110947  0  1.01673  0
H  H35  1  0.14461713  0.01192486  0.58279649  1  0  0.11015  0  0.946691  0  0  0.113849  0  1.014638  0  0  0.117829  0  1.011926  0  0.093702  0  0.107713  0.110957  0  1.016722  0
H  H36  1  0.94462509  0.36780844  0.05024263  1  0  0.043373  0  0.901533  0  0  0.051228  0  0.96764  0  0  0.052436  0  0.962367  0  0.148488  0  0.141552  0.050046  0  0.97164  0
H  H37  1  0.55537414  0.86780781  0.94975768  1  0  0.043333  0  0.901474  0  0  0.051188  0  0.967598  0  0  0.052397  0  0.962323  0  0.148504  0  0.141527  0.050006  0  0.971598  0
H  H38  1  0.05537341  0.63219186  0.94975775  1  0  0.043257  0  0.901438  0  0  0.051135  0  0.967544  0  0  0.052345  0  0.962266  0  0.148498  0  0.141497  0.049953  0  0.971545  0
H  H39  1  0.44462584  0.13219249  0.05024274  1  0  0.043252  0  0.901444  0  0  0.051131  0  0.967547  0  0  0.052337  0  0.962274  0  0.148501  0  0.141499  0.049947  0  0.971549  0
C  C40  1  0.99775475  0.67246724  0.16855086  1  0  0.733108  0  3.827409  0  0  0.684789  0  4.123178  0  0  0.721656  0  4.110812  0  1.577108  0  0.240708  0.6597  0  4.130501  0
C  C41  1  0.50224300  0.17246709  0.83145000  1  0  0.733011  0  3.827448  0  0  0.68474  0  4.123131  0  0  0.721606  0  4.110766  0  1.577299  0  0.240697  0.659649  0  4.130453  0
C  C42  1  0.00224375  0.32753073  0.83144892  1  0  0.733207  0  3.8275  0  0  0.68494  0  4.123161  0  0  0.721806  0  4.11079  0  1.577162  0  0.240777  0.65985  0  4.130488  0
C  C43  1  0.49775698  0.82753321  0.16855041  1  0  0.732895  0  3.827483  0  0  0.684632  0  4.123164  0  0  0.7215  0  4.110801  0  1.577291  0  0.240633  0.659544  0  4.130485  0
C  C44  1  0.97138477  0.64593073  0.25409742  1  0  -0.06583  0  3.716599  0  0  -0.043809  0  3.946564  0  0  -0.051857  0  3.96785  0  0.008213  0  -0.006233  -0.038703  0  3.932388  0
C  C45  1  0.52861741  0.14593291  0.74590237  1  0  -0.065885  0  3.716736  0  0  -0.043861  0  3.94667  0  0  -0.051911  0  3.967962  0  0.008022  0  -0.006234  -0.038756  0  3.932497  0
C  C46  1  0.02861373  0.35406801  0.74590176  1  0  -0.065947  0  3.716712  0  0  -0.043906  0  3.946623  0  0  -0.051953  0  3.967909  0  0.008076  0  -0.006229  -0.038801  0  3.932451  0
C  C47  1  0.47138109  0.85406739  0.25409741  1  0  -0.065852  0  3.716622  0  0  -0.043851  0  3.946575  0  0  -0.051898  0  3.967863  0  0.008037  0  -0.006273  -0.038744  0  3.932399  0
C  C48  1  0.03731712  0.71586657  0.31470084  1  0  -0.047856  0  3.713265  0  0  -0.069576  0  3.954437  0  0  -0.069611  0  3.976267  0  -0.13505  0  -0.075548  -0.069309  0  3.939629  0
C  C49  1  0.46268508  0.21586720  0.68529912  1  0  -0.047803  0  3.713278  0  0  -0.069541  0  3.954457  0  0  -0.069575  0  3.976289  0  -0.135052  0  -0.075534  -0.069275  0  3.939652  0
C  C50  1  0.96268286  0.28413139  0.68529778  1  0  -0.047786  0  3.713209  0  0  -0.069545  0  3.954373  0  0  -0.06958  0  3.976202  0  -0.135017  0  -0.075513  -0.069278  0  3.939573  0
C  C51  1  0.53731342  0.78413310  0.31470066  1  0  -0.047816  0  3.713196  0  0  -0.069504  0  3.954372  0  0  -0.069539  0  3.976204  0  -0.13506  0  -0.07551  -0.069238  0  3.939564  0
C  C52  1  0.99790384  0.69822354  0.39382608  1  0  -0.121908  0  3.691394  0  0  -0.137665  0  3.934063  0  0  -0.142263  0  3.956964  0  0.072085  0  -0.078766  -0.134631  0  3.91863  0
C  C53  1  0.50209834  0.19822339  0.60617371  1  0  -0.121935  0  3.691406  0  0  -0.137686  0  3.934076  0  0  -0.142284  0  3.956977  0  0.072085  0  -0.078779  -0.134652  0  3.918646  0
C  C54  1  0.00209761  0.30177676  0.60617318  1  0  -0.122032  0  3.691401  0  0  -0.137766  0  3.934042  0  0  -0.142367  0  3.956944  0  0.072075  0  -0.078832  -0.134733  0  3.918615  0
C  C55  1  0.49790016  0.80177691  0.39382667  1  0  -0.122024  0  3.691451  0  0  -0.137815  0  3.934084  0  0  -0.142418  0  3.956985  0  0.072101  0  -0.078826  -0.134781  0  3.918653  0
C  C56  1  0.89105406  0.60892866  0.41323536  1  0  0.163671  0  3.802966  0  0  0.168058  0  4.053364  0  0  0.16849  0  4.07788  0  0.362207  0  0.093238  0.167831  0  4.036768  0
C  C57  1  0.60894813  0.10892928  0.58676622  1  0  0.163651  0  3.802986  0  0  0.168039  0  4.053375  0  0  0.168472  0  4.077887  0  0.362249  0  0.093236  0.16781  0  4.036783  0
C  C58  1  0.10894740  0.39107164  0.58676570  1  0  0.163659  0  3.803049  0  0  0.16808  0  4.053386  0  0  0.168514  0  4.0779  0  0.362189  0  0.093265  0.167852  0  4.036792  0
C  C59  1  0.39105038  0.89106946  0.41323535  1  0  0.163673  0  3.803109  0  0  0.168185  0  4.053324  0  0  0.168623  0  4.077833  0  0.362237  0  0.093298  0.167954  0  4.036735  0
C  C60  1  0.83172751  0.53668952  0.35338716  1  0  -0.119581  0  3.70634  0  0  -0.139662  0  3.956734  0  0  -0.144607  0  3.979757  0  -0.003838  0  -0.075547  -0.136371  0  3.941084  0
C  C61  1  0.66827763  0.03669170  0.64661449  1  0  -0.119574  0  3.706315  0  0  -0.139658  0  3.956731  0  0  -0.144603  0  3.979753  0  -0.00374  0  -0.075543  -0.136367  0  3.941084  0
C  C62  1  0.16827542  0.46330923  0.64661393  1  0  -0.119571  0  3.706318  0  0  -0.139672  0  3.95672  0  0  -0.144617  0  3.979741  0  -0.003807  0  -0.075555  -0.13638  0  3.941069  0
C  C63  1  0.33172530  0.96330938  0.35338660  1  0  -0.119636  0  3.706337  0  0  -0.139742  0  3.956699  0  0  -0.144689  0  3.97972  0  -0.003747  0  -0.075567  -0.136452  0  3.941054  0
C  C64  1  0.86986832  0.55556860  0.27406775  1  0  -0.057206  0  3.736574  0  0  -0.083206  0  3.991349  0  0  -0.082367  0  4.011358  0  -0.107446  0  -0.074644  -0.083511  0  3.977704  0
C  C65  1  0.63013386  0.05557001  0.72593323  1  0  -0.057162  0  3.736561  0  0  -0.083165  0  3.99131  0  0  -0.082327  0  4.011322  0  -0.107509  0  -0.074631  -0.083472  0  3.977671  0
C  C66  1  0.13013018  0.44443014  0.72593322  1  0  -0.057183  0  3.736544  0  0  -0.083202  0  3.991329  0  0  -0.082365  0  4.011339  0  -0.107458  0  -0.074674  -0.083508  0  3.977687  0
C  C67  1  0.36986317  0.94442951  0.27406831  1  0  -0.057195  0  3.73648  0  0  -0.083212  0  3.991262  0  0  -0.082376  0  4.011276  0  -0.107477  0  -0.074639  -0.083517  0  3.977616  0
C  C68  1  0.79964630  0.62883221  0.61849425  1  0  0.165894  0  3.80695  0  0  0.169289  0  4.058266  0  0  0.170669  0  4.081754  0  0.329348  0  0.09145  0.168434  0  4.042353  0
C  C69  1  0.70035589  0.12883283  0.38150553  1  0  0.165886  0  3.806709  0  0  0.169243  0  4.058075  0  0  0.170622  0  4.081562  0  0.329344  0  0.091424  0.16839  0  4.042161  0
C  C70  1  0.20035516  0.37116809  0.38150560  1  0  0.165917  0  3.806909  0  0  0.169279  0  4.058265  0  0  0.170657  0  4.081755  0  0.329331  0  0.091451  0.168424  0  4.042352  0
C  C71  1  0.29964557  0.87116824  0.61849373  1  0  0.165914  0  3.806957  0  0  0.169293  0  4.05829  0  0  0.170671  0  4.081778  0  0.329352  0  0.091442  0.168438  0  4.042376  0
C  C72  1  0.85705385  0.69622828  0.68189412  1  0  -0.12753  0  3.708064  0  0  -0.146563  0  3.956991  0  0  -0.151418  0  3.979527  0  -0.032703  0  -0.080647  -0.143352  0  3.941629  0
C  C73  1  0.64294833  0.19622891  0.31810566  1  0  -0.12753  0  3.708069  0  0  -0.146533  0  3.956979  0  0  -0.151387  0  3.979515  0  -0.032817  0  -0.080609  -0.143322  0  3.941619  0
C  C74  1  0.14294761  0.30377202  0.31810633  1  0  -0.127574  0  3.70809  0  0  -0.146603  0  3.957017  0  0  -0.151459  0  3.979553  0  -0.032814  0  -0.080652  -0.14339  0  3.941655  0
C  C75  1  0.35705460  0.80377217  0.68189363  1  0  -0.127553  0  3.708083  0  0  -0.146582  0  3.95701  0  0  -0.151435  0  3.979544  0  -0.032693  0  -0.080629  -0.14337  0  3.94165  0
C  C76  1  0.80978894  0.67251780  0.75961612  1  0  -0.061752  0  3.731671  0  0  -0.08369  0  3.978575  0  0  -0.083312  0  3.99921  0  -0.070436  0  -0.080843  -0.083657  0  3.964452  0
C  C77  1  0.69021029  0.17251843  0.24038359  1  0  -0.061698  0  3.731839  0  0  -0.083657  0  3.978713  0  0  -0.083278  0  3.99935  0  -0.070345  0  -0.080853  -0.083631  0  3.964596  0
C  C78  1  0.19021104  0.32748250  0.24038430  1  0  -0.061679  0  3.73164  0  0  -0.083624  0  3.978535  0  0  -0.083244  0  3.999171  0  -0.070323  0  -0.080832  -0.083597  0  3.964418  0
C  C79  1  0.30978969  0.82748265  0.75961563  1  0  -0.061728  0  3.731721  0  0  -0.083656  0  3.978601  0  0  -0.083276  0  3.999235  0  -0.070441  0  -0.080838  -0.083628  0  3.964483  0
C  C80  1  0.70395770  0.58151237  0.77436314  1  0  -0.069948  0  3.725043  0  0  -0.048233  0  3.953559  0  0  -0.057381  0  3.977468  0  0.000107  0  -0.014311  -0.042352  0  3.937542  0
C  C81  1  0.79604301  0.08151300  0.22563661  1  0  -0.07007  0  3.725272  0  0  -0.048308  0  3.953728  0  0  -0.057461  0  3.97764  0  0.000122  0  -0.014294  -0.042424  0  3.937708  0
C  C82  1  0.29604376  0.41848793  0.22563672  1  0  -0.070048  0  3.72516  0  0  -0.048308  0  3.953654  0  0  -0.057457  0  3.977568  0  0.000113  0  -0.014309  -0.042426  0  3.937636  0
C  C83  1  0.20395844  0.91848808  0.77436325  1  0  -0.069944  0  3.725113  0  0  -0.048252  0  3.953623  0  0  -0.0574  0  3.977536  0  0.000119  0  -0.014322  -0.042373  0  3.937607  0
C  C84  1  0.64416911  0.51542857  0.71028535  1  0  -0.057222  0  3.74041  0  0  -0.079035  0  3.985023  0  0  -0.079081  0  4.007189  0  -0.026937  0  -0.078953  -0.078758  0  3.969988  0
C  C85  1  0.85583159  0.01542920  0.28971440  1  0  -0.057211  0  3.740428  0  0  -0.079045  0  3.985041  0  0  -0.07909  0  4.007209  0  -0.027473  0  -0.078976  -0.078769  0  3.970005  0
C  C86  1  0.35583234  0.48457095  0.28971451  1  0  -0.057206  0  3.740454  0  0  -0.079035  0  3.985074  0  0  -0.07908  0  4.007241  0  -0.027468  0  -0.078967  -0.078758  0  3.970038  0
C  C87  1  0.14416986  0.98457110  0.71028605  1  0  -0.057208  0  3.740459  0  0  -0.079028  0  3.985076  0  0  -0.079076  0  4.007244  0  -0.027477  0  -0.078957  -0.078751  0  3.970041  0
C  C88  1  0.68938512  0.53878278  0.63286460  1  0  -0.127213  0  3.720746  0  0  -0.145431  0  3.967871  0  0  -0.150314  0  3.990506  0  -0.046851  0  -0.080411  -0.142271  0  3.952719  0
C  C89  1  0.81061558  0.03878341  0.36713515  1  0  -0.127218  0  3.720727  0  0  -0.145425  0  3.967866  0  0  -0.15031  0  3.9905  0  -0.046852  0  -0.080411  -0.142266  0  3.952714  0
C  C90  1  0.31061781  0.46121674  0.36713530  1  0  -0.127213  0  3.720787  0  0  -0.145421  0  3.967923  0  0  -0.150304  0  3.990558  0  -0.046858  0  -0.080419  -0.142261  0  3.952771  0
C  C91  1  0.18938440  0.96121766  0.63286467  1  0  -0.127257  0  3.720789  0  0  -0.145464  0  3.967913  0  0  -0.150347  0  3.990547  0  -0.046858  0  -0.080426  -0.142304  0  3.95276  0
C  C92  1  0.65095646  0.55226495  0.85672979  1  0  0.721261  0  3.840639  0  0  0.678333  0  4.12969  0  0  0.714089  0  4.119086  0  1.57369  0  0.235086  0.653956  0  4.136  0
C  C93  1  0.84904425  0.05226481  0.14326996  1  0  0.721331  0  3.840588  0  0  0.678399  0  4.129626  0  0  0.714161  0  4.119012  0  1.573686  0  0.235126  0.654022  0  4.135936  0
C  C94  1  0.34904352  0.44773534  0.14327003  1  0  0.721276  0  3.840608  0  0  0.678343  0  4.129667  0  0  0.714091  0  4.119076  0  1.57369  0  0.235094  0.653966  0  4.135976  0
C  C95  1  0.15095721  0.94773549  0.85672990  1  0  0.721205  0  3.840672  0  0  0.67836  0  4.129604  0  0  0.714108  0  4.119015  0  1.573689  0  0.235183  0.653985  0  4.135914  0
C  C96  1  0.79005869  0.36842685  0.02523859  1  0  0.662662  0  3.79426  0  0  0.593166  0  4.105772  0  0  0.628839  0  4.092186  0  1.527715  0  0.186343  0.568829  0  4.11394  0
C  C97  1  0.70994202  0.86842700  0.97476176  1  0  0.662674  0  3.794203  0  0  0.593167  0  4.105732  0  0  0.62884  0  4.092153  0  1.527716  0  0.186341  0.568831  0  4.113902  0
C  C98  1  0.20994572  0.63157189  0.97476195  1  0  0.662781  0  3.794237  0  0  0.593268  0  4.105757  0  0  0.62894  0  4.092174  0  1.52781  0  0.18639  0.568931  0  4.113927  0
C  C99  1  0.29005353  0.13157252  0.02523854  1  0  0.662823  0  3.794153  0  0  0.593308  0  4.10568  0  0  0.628981  0  4.092097  0  1.52772  0  0.186393  0.568973  0  4.113847  0
N  N100  1  0.83319185  0.58477478  0.49043263  1  0  -0.143198  0  3.013475  0  0  -0.122628  0  3.300403  0  0  -0.121223  0  3.306649  0  -0.502015  0  -0.142095  -0.123296  0  3.296013  0
N  N101  1  0.66681033  0.08477619  0.50956835  1  0  -0.143168  0  3.013372  0  0  -0.1226  0  3.300305  0  0  -0.121197  0  3.306553  0  -0.501907  0  -0.142109  -0.123269  0  3.295915  0
N  N102  1  0.16681108  0.41522474  0.50956846  1  0  -0.14315  0  3.013456  0  0  -0.122594  0  3.300374  0  0  -0.121191  0  3.306622  0  -0.501881  0  -0.142092  -0.123263  0  3.295986  0
N  N103  1  0.33319112  0.91522566  0.49043211  1  0  -0.143176  0  3.013526  0  0  -0.122649  0  3.300427  0  0  -0.121247  0  3.306672  0  -0.502111  0  -0.142104  -0.123318  0  3.296039  0
N  N104  1  0.86038848  0.65653009  0.54206205  1  0  -0.149279  0  2.966966  0  0  -0.128543  0  3.25118  0  0  -0.126912  0  3.256127  0  -0.451579  0  -0.145132  -0.129449  0  3.24768  0
N  N105  1  0.63961223  0.15653071  0.45793830  1  0  -0.149242  0  2.966629  0  0  -0.128492  0  3.25086  0  0  -0.126859  0  3.255807  0  -0.451567  0  -0.145065  -0.129398  0  3.24736  0
N  N106  1  0.13961150  0.34347021  0.45793777  1  0  -0.149324  0  2.966851  0  0  -0.128574  0  3.251078  0  0  -0.126943  0  3.256026  0  -0.451547  0  -0.145147  -0.12948  0  3.247579  0
N  N107  1  0.36038775  0.84347036  0.54206152  1  0  -0.149269  0  2.966913  0  0  -0.128526  0  3.251136  0  0  -0.126894  0  3.256083  0  -0.45156  0  -0.145126  -0.129431  0  3.247636  0
O  O108  1  0.91924266  0.61198649  0.11410037  1  0  -0.750558  0  2.00711  0  0  -0.709248  0  2.265405  0  0  -0.735823  0  2.251674  0  -1.205277  0  -0.425034  -0.689668  0  2.274077  0
O  O109  1  0.58075805  0.11198634  0.88589938  1  0  -0.750565  0  2.007185  0  0  -0.709294  0  2.265497  0  0  -0.735853  0  2.25174  0  -1.205253  0  -0.425064  -0.689712  0  2.274171  0
O  O110  1  0.08075585  0.38801147  0.88589882  1  0  -0.75068  0  2.00727  0  0  -0.709382  0  2.265515  0  0  -0.735968  0  2.251813  0  -1.205199  0  -0.425124  -0.689797  0  2.27419  0
O  O111  1  0.41924340  0.88801396  0.11410048  1  0  -0.75049  0  2.007173  0  0  -0.709207  0  2.265457  0  0  -0.735775  0  2.251709  0  -1.20528  0  -0.425023  -0.689628  0  2.274128  0
O  O112  1  0.08982975  0.75498914  0.15331544  1  0  -0.701459  0  2.060939  0  0  -0.659223  0  2.316656  0  0  -0.685812  0  2.306723  0  -1.186573  0  -0.381159  -0.640119  0  2.323085  0
O  O113  1  0.41016655  0.25499055  0.84668497  1  0  -0.701349  0  2.060865  0  0  -0.659095  0  2.3165  0  0  -0.68568  0  2.306571  0  -1.186661  0  -0.381117  -0.639985  0  2.32293  0
O  O114  1  0.91016727  0.24500960  0.84668370  1  0  -0.70142  0  2.060901  0  0  -0.659195  0  2.316584  0  0  -0.68578  0  2.306656  0  -1.186612  0  -0.38112  -0.64009  0  2.323015  0
O  O115  1  0.58983196  0.74500897  0.15331541  1  0  -0.701324  0  2.060853  0  0  -0.659085  0  2.316503  0  0  -0.685676  0  2.306574  0  -1.186648  0  -0.381083  -0.63998  0  2.322931  0
O  O116  1  0.56640395  0.46469929  0.86413337  1  0  -0.714276  0  2.052095  0  0  -0.67482  0  2.305114  0  0  -0.700625  0  2.294158  0  -1.191321  0  -0.398173  -0.656079  0  2.312214  0
O  O117  1  0.93359528  0.96470022  0.13586634  1  0  -0.714302  0  2.052131  0  0  -0.674835  0  2.305129  0  0  -0.700658  0  2.294195  0  -1.191315  0  -0.398177  -0.656098  0  2.312228  0
O  O118  1  0.43359455  0.53530100  0.13586641  1  0  -0.714286  0  2.052102  0  0  -0.674808  0  2.305081  0  0  -0.700622  0  2.294148  0  -1.191325  0  -0.39817  -0.656072  0  2.312181  0
O  O119  1  0.06640322  0.03530085  0.86413284  1  0  -0.714244  0  2.052115  0  0  -0.674827  0  2.305095  0  0  -0.700637  0  2.294159  0  -1.191263  0  -0.398197  -0.656088  0  2.312194  0
O  O120  1  0.69167168  0.61645306  0.91387182  1  0  -0.738458  0  2.028402  0  0  -0.699008  0  2.27901  0  0  -0.72539  0  2.267512  0  -1.197453  0  -0.400237  -0.679859  0  2.286481  0
O  O121  1  0.80832902  0.11645369  0.08612852  1  0  -0.738468  0  2.028315  0  0  -0.699019  0  2.27892  0  0  -0.725402  0  2.267425  0  -1.197458  0  -0.400274  -0.679869  0  2.286388  0
O  O122  1  0.30832830  0.38354646  0.08612800  1  0  -0.738454  0  2.028358  0  0  -0.699001  0  2.278959  0  0  -0.725375  0  2.267466  0  -1.197453  0  -0.400259  -0.679848  0  2.286431  0
O  O123  1  0.19167096  0.88354661  0.91387130  1  0  -0.738439  0  2.028381  0  0  -0.699007  0  2.278946  0  0  -0.725387  0  2.267456  0  -1.197442  0  -0.400283  -0.67986  0  2.286415  0
O  O124  1  0.68678562  0.44973682  0.03108787  1  0  -0.747269  0  2.232601  0  0  -0.696679  0  2.493044  0  0  -0.724358  0  2.481957  0  -1.207817  0  -0.414594  -0.676426  0  2.50018  0
O  O125  1  0.81321509  0.94973697  0.96891248  1  0  -0.747281  0  2.232599  0  0  -0.696684  0  2.493036  0  0  -0.724364  0  2.481954  0  -1.207864  0  -0.414579  -0.676432  0  2.500173  0
O  O126  1  0.31321288  0.55026348  0.96891191  1  0  -0.747303  0  2.232676  0  0  -0.69672  0  2.493135  0  0  -0.724396  0  2.482049  0  -1.207838  0  -0.41462  -0.676466  0  2.500273  0
O  O127  1  0.18678637  0.05026333  0.03108798  1  0  -0.747292  0  2.232607  0  0  -0.696704  0  2.493058  0  0  -0.724384  0  2.481974  0  -1.207802  0  -0.414599  -0.676454  0  2.500195  0
O  O128  1  0.71528126  0.28763884  0.99110253  1  0  -0.732287  0  2.124951  0  0  -0.692781  0  2.396589  0  0  -0.719262  0  2.384413  0  -1.202083  0  -0.392497  -0.673295  0  2.404403  0
O  O129  1  0.78471797  0.78763821  0.00889778  1  0  -0.732278  0  2.124981  0  0  -0.692751  0  2.39658  0  0  -0.719237  0  2.384406  0  -1.202093  0  -0.392509  -0.673271  0  2.404394  0
O  O130  1  0.28471724  0.71236068  0.00889785  1  0  -0.732298  0  2.12499  0  0  -0.692794  0  2.396637  0  0  -0.719283  0  2.384464  0  -1.202156  0  -0.392499  -0.673313  0  2.404451  0
O  O131  1  0.21528201  0.21236131  0.99110264  1  0  -0.732325  0  2.124979  0  0  -0.692818  0  2.39661  0  0  -0.719296  0  2.384434  0  -1.2021  0  -0.392501  -0.673332  0  2.404424  0
