# generated using pymatgen
data_CuH10C8(NO2)2
_symmetry_space_group_name_H-M   'P 1'
_cell_length_a   4.08467776
_cell_length_b   5.93819749
_cell_length_c   9.71926210
_cell_angle_alpha   91.36575982
_cell_angle_beta   99.67488445
_cell_angle_gamma   98.99453472
_symmetry_Int_Tables_number   1
_chemical_formula_structural   CuH10C8(NO2)2
_chemical_formula_sum   'Cu1 H10 C8 N2 O4'
_cell_volume   229.23192360
_cell_formula_units_Z   1
loop_
 _symmetry_equiv_pos_site_id
 _symmetry_equiv_pos_as_xyz
  1  'x, y, z'
loop_
 _atom_site_type_symbol
 _atom_site_label
 _atom_site_symmetry_multiplicity
 _atom_site_fract_x
 _atom_site_fract_y
 _atom_site_fract_z
 _atom_site_occupancy
 _atom_site_hle17_ddec_charge
 _atom_site_hle17_ddec_spin_density
 _atom_site_hle17_ddec_sum_bond_order
 _atom_site_hle17_magmom
 _atom_site_hse06_10hf_ddec_charge
 _atom_site_hse06_10hf_ddec_spin_density
 _atom_site_hse06_10hf_ddec_sum_bond_order
 _atom_site_hse06_10hf_magmom
 _atom_site_hse06_ddec_charge
 _atom_site_hse06_ddec_spin_density
 _atom_site_hse06_ddec_sum_bond_order
 _atom_site_hse06_magmom
 _atom_site_pbe_cm5_charge
 _atom_site_pbe_ddec_charge
 _atom_site_pbe_ddec_spin_density
 _atom_site_pbe_ddec_sum_bond_order
 _atom_site_pbe_magmom
Cu  Cu0  1  0.50001354  0.50000735  0.99999555  1  0.904937  0.664408  1.718281  0.49  0.9013  0.7555  2.094692  0.6  0.985703  0.81432  2.027168  0.675  0.723647  0.850413  0.717348  2.140679  0.554
H  H1  1  0.27202820  0.15612703  0.12144370  1  0.354047  -0.001069  0.916181  -0.001  0.341926  2.9e-05  0.974793  0.0  0.351391  -0.000209  0.967098  -0.001  0.283583  0.335327  0.000232  0.980414  0.0
H  H2  1  0.72798210  0.84388433  0.87854487  1  0.35423  -0.00107  0.916044  -0.001  0.342064  2.9e-05  0.97471  0.0  0.351538  -0.000208  0.967008  -0.001  0.283608  0.335465  0.000233  0.980334  0.0
H  H3  1  0.95415884  0.22361313  0.00555368  1  0.336137  -0.001275  0.91593  -0.001  0.320533  -4.1e-05  0.98527  0.0  0.328177  -0.000348  0.979529  0.0  0.282555  0.315064  0.000217  0.9897  0.0
H  H4  1  0.04585841  0.77639665  0.99443017  1  0.336132  -0.001273  0.915959  -0.001  0.320496  -4.1e-05  0.985314  0.0  0.328135  -0.000349  0.979587  0.0  0.282565  0.315029  0.000217  0.989743  0.0
H  H5  1  0.07722840  0.37436394  0.15680471  1  0.341427  -0.001527  0.897252  -0.001  0.331286  -0.000145  0.957513  0.0  0.33903  -0.000439  0.952029  0.0  0.290232  0.325747  0.00013  0.961819  0.0
H  H6  1  0.92278271  0.62565108  0.84317681  1  0.341336  -0.001524  0.897404  -0.001  0.331197  -0.000144  0.95765  0.0  0.338941  -0.000439  0.952165  0.0  0.29016  0.325663  0.000131  0.96196  0.0
H  H7  1  0.10254686  0.62083754  0.42107749  1  0.097167  0.000472  0.959701  0.0  0.107512  0.000436  1.020789  0.0  0.11075  0.000302  1.019133  0.0  0.102239  0.105226  0.00058  1.021967  0.0
H  H8  1  0.89740495  0.37913746  0.57893185  1  0.097288  0.000465  0.959612  0.0  0.107537  0.000436  1.020786  0.0  0.110811  0.000302  1.019087  0.0  0.102281  0.105263  0.000579  1.021958  0.0
H  H9  1  0.61521919  0.20818148  0.34443488  1  0.101569  -3e-05  0.952494  0.0  0.11126  2.9e-05  1.014057  0.0  0.114631  1e-05  1.012358  0.0  0.103738  0.109014  6.2e-05  1.015157  0.0
H  H10  1  0.38472957  0.79182121  0.65556575  1  0.101683  -3.5e-05  0.952709  0.0  0.111363  3e-05  1.01423  0.0  0.114727  1e-05  1.012532  0.0  0.103769  0.109127  6.3e-05  1.015333  0.0
C  C11  1  0.66231145  0.79495383  0.22909993  1  0.639407  -0.007968  3.889349  -0.008  0.593626  -0.002647  4.186495  -0.003  0.630508  -0.003366  4.179788  -0.003  0.204665  0.568421  -0.00195  4.190682  -0.003
C  C12  1  0.33767656  0.20505762  0.77088919  1  0.639459  -0.007991  3.88821  -0.008  0.593578  -0.002645  4.185525  -0.003  0.630475  -0.003372  4.178822  -0.003  0.204738  0.568365  -0.00195  4.189723  -0.003
C  C13  1  0.84021017  0.90239533  0.36805153  1  -0.056247  0.007673  3.749677  0.009  -0.034412  0.005325  3.980777  0.006  -0.041386  0.003835  4.002728  0.005  -0.015216  -0.02928  0.006403  3.965881  0.007
C  C14  1  0.15975697  0.09756309  0.63193987  1  -0.0563  0.007657  3.750457  0.008  -0.034447  0.005321  3.981592  0.006  -0.041428  0.003836  4.003561  0.005  -0.015355  -0.029314  0.0064  3.966718  0.007
C  C15  1  0.05680051  0.78631490  0.45685924  1  -0.073442  -0.000165  3.733928  0.0  -0.096891  0.000392  3.98356  0.0  -0.097448  0.000164  4.003472  0.0  -0.085301  -0.096825  0.000634  3.970253  0.001
C  C16  1  0.94320341  0.21368843  0.54316573  1  -0.073483  -0.000118  3.734083  0.0  -0.096847  0.000393  3.983719  0.0  -0.097435  0.000165  4.003622  0.0  -0.085239  -0.096789  0.000634  3.970411  0.001
C  C17  1  0.78536587  0.11766704  0.41222729  1  -0.070271  0.000224  3.732541  0.001  -0.093537  0.000453  3.983125  0.001  -0.094938  0.000198  4.004152  0.0  -0.083614  -0.09247  0.000631  3.968995  0.001
C  C18  1  0.21462219  0.88232266  0.58779829  1  -0.070366  0.000261  3.733474  0.001  -0.093628  0.000453  3.984077  0.001  -0.095021  0.000198  4.005085  0.0  -0.083619  -0.092569  0.00063  3.969972  0.001
N  N19  1  0.16020538  0.28990788  0.07960803  1  -0.877551  0.080351  2.953453  0.1  -0.876545  0.054004  3.203481  0.069  -0.90862  0.043706  3.184017  0.06  -0.803848  -0.856762  0.059724  3.218484  0.072
N  N20  1  0.83980456  0.71011224  0.92037458  1  -0.877612  0.080359  2.953389  0.1  -0.876518  0.05401  3.203452  0.069  -0.908605  0.043712  3.183991  0.06  -0.803828  -0.856735  0.059728  3.218465  0.072
O  O21  1  0.73118499  0.59715301  0.19598768  1  -0.618137  0.092484  2.043967  0.128  -0.578948  0.065225  2.313061  0.097  -0.621746  0.051039  2.306912  0.083  -0.328417  -0.550423  0.074339  2.317063  0.105
O  O22  1  0.26886312  0.40286982  0.80401097  1  -0.618045  0.092409  2.044156  0.128  -0.578829  0.065196  2.313343  0.097  -0.621596  0.051018  2.307131  0.083  -0.328336  -0.550314  0.074299  2.31736  0.105
O  O23  1  0.45729197  0.89417841  0.15097018  1  -0.626502  -0.001375  1.985674  0.001  -0.576388  -0.000799  2.2141  0.001  -0.603135  -0.002045  2.205745  0.0  -0.312409  -0.558178  0.00034  2.220325  0.002
O  O24  1  0.54274814  0.10578210  0.84905092  1  -0.626864  -0.001343  1.984675  0.001  -0.57669  -0.0008  2.213156  0.001  -0.603461  -0.002039  2.204804  0.0  -0.3126  -0.558464  0.000346  2.21938  0.002
