# generated using pymatgen
data_CuH14C22N3ClO2
_symmetry_space_group_name_H-M   'P 1'
_cell_length_a   8.39662715
_cell_length_b   10.17872930
_cell_length_c   12.71473767
_cell_angle_alpha   66.89258993
_cell_angle_beta   81.43876217
_cell_angle_gamma   69.67339065
_symmetry_Int_Tables_number   1
_chemical_formula_structural   CuH14C22N3ClO2
_chemical_formula_sum   'Cu2 H28 C44 N6 Cl2 O4'
_cell_volume   937.16548291
_cell_formula_units_Z   2
loop_
 _symmetry_equiv_pos_site_id
 _symmetry_equiv_pos_as_xyz
  1  'x, y, z'
loop_
 _atom_site_type_symbol
 _atom_site_label
 _atom_site_symmetry_multiplicity
 _atom_site_fract_x
 _atom_site_fract_y
 _atom_site_fract_z
 _atom_site_occupancy
 _atom_site_hle17_ddec_charge
 _atom_site_hle17_ddec_spin_density
 _atom_site_hle17_ddec_sum_bond_order
 _atom_site_hle17_magmom
 _atom_site_hse06_10hf_ddec_charge
 _atom_site_hse06_10hf_ddec_spin_density
 _atom_site_hse06_10hf_ddec_sum_bond_order
 _atom_site_hse06_10hf_magmom
 _atom_site_hse06_ddec_charge
 _atom_site_hse06_ddec_spin_density
 _atom_site_hse06_ddec_sum_bond_order
 _atom_site_hse06_magmom
 _atom_site_pbe_cm5_charge
 _atom_site_pbe_ddec_charge
 _atom_site_pbe_ddec_spin_density
 _atom_site_pbe_ddec_sum_bond_order
 _atom_site_pbe_magmom
Cu  Cu0  1  0.27215488  0.32793921  0.29459047  1  0.774131  0.745047  2.068218  0.516  0.740985  0.815562  2.487425  0.619  0.821686  0.893479  2.417643  0.707  0.73613  0.697035  0.757214  2.531368  0.56
Cu  Cu1  1  0.72784542  0.67205462  0.70540976  1  0.774073  -0.745044  2.068331  -0.516  0.740945  -0.815554  2.487515  -0.619  0.821659  -0.893477  2.417745  -0.706  0.736105  0.696995  -0.757206  2.531456  -0.56
H  H2  1  0.98812820  0.99032676  0.41274369  1  0.096783  0.000186  0.9532  0.0  0.110028  -4.2e-05  1.010719  0.0  0.111955  -4.4e-05  1.009489  0.0  0.110707  0.108627  -2.8e-05  1.011698  0.0
H  H3  1  0.01187115  0.00967260  0.58725893  1  0.096789  -0.000186  0.953178  0.0  0.110045  4.2e-05  1.010687  0.0  0.111975  4.4e-05  1.009451  0.0  0.110705  0.108647  2.8e-05  1.01166  0.0
H  H4  1  0.03068214  0.14320372  0.85471941  1  0.097507  0.000168  0.958951  0.0  0.107082  8.6e-05  1.021577  0.0  0.110003  5.8e-05  1.019929  0.0  0.099157  0.104937  0.000115  1.022774  0.0
H  H5  1  0.96930704  0.85680693  0.14527683  1  0.0975  -0.000169  0.95892  0.0  0.10707  -8.6e-05  1.021558  0.0  0.109991  -5.8e-05  1.01991  0.0  0.099173  0.104928  -0.000115  1.022753  0.0
H  H6  1  0.62983228  0.50466071  0.21892723  1  0.118238  0.000484  0.958987  0.001  0.125764  0.000488  1.01842  0.001  0.128732  0.000331  1.017517  0.0  0.10538  0.123341  0.000612  1.019628  0.001
H  H7  1  0.37015746  0.49533844  0.78107867  1  0.118282  -0.000486  0.9589  -0.001  0.125792  -0.000488  1.018366  -0.001  0.128757  -0.000331  1.017464  0.0  0.105396  0.123366  -0.000612  1.019576  -0.001
H  H8  1  0.54689574  0.47408328  0.41881783  1  0.095591  0.000191  0.949215  0.0  0.104701  -4.7e-05  1.013032  0.0  0.107023  -5.1e-05  1.011615  0.0  0.102974  0.103132  -2.8e-05  1.013846  0.0
H  H9  1  0.45310283  0.52591133  0.58119335  1  0.095646  -0.000194  0.949131  0.0  0.104739  4.7e-05  1.012987  0.0  0.107062  5.2e-05  1.011565  0.0  0.102958  0.103171  2.7e-05  1.013799  0.0
H  H10  1  0.90975336  0.10201970  0.20978469  1  0.109811  0.000485  0.963292  0.001  0.119113  0.000482  1.023072  0.001  0.122095  0.00034  1.021939  0.0  0.110832  0.116845  0.000598  1.024145  0.001
H  H11  1  0.09025929  0.89797662  0.79021213  1  0.109751  -0.000486  0.963259  -0.001  0.119053  -0.000482  1.023066  -0.001  0.122036  -0.00034  1.021931  0.0  0.110811  0.116786  -0.000598  1.024139  -0.001
H  H12  1  0.52330242  0.20968762  0.80103206  1  0.102413  7.7e-05  0.957907  0.0  0.110736  3.1e-05  1.021465  0.0  0.114064  3.7e-05  1.019366  0.0  0.097666  0.108457  1.6e-05  1.022689  0.0
H  H13  1  0.47669689  0.79031883  0.19895823  1  0.102461  -7.7e-05  0.957896  0.0  0.11079  -3.2e-05  1.021432  0.0  0.114115  -3.7e-05  1.019333  0.0  0.097697  0.108513  -1.7e-05  1.022651  0.0
H  H14  1  0.94319627  0.44503029  0.16383229  1  0.096951  0.001663  0.906905  0.002  0.108857  0.001418  0.959349  0.002  0.110638  0.000993  0.9582  0.001  0.128887  0.107235  0.001774  0.960551  0.002
H  H15  1  0.05679275  0.55496788  0.83616845  1  0.096943  -0.001663  0.906946  -0.002  0.108824  -0.001417  0.959418  -0.002  0.110633  -0.000992  0.958234  -0.001  0.128903  0.107198  -0.001773  0.960626  -0.002
H  H16  1  0.59899350  0.24441588  0.15781674  1  0.099745  0.001423  0.916756  0.002  0.110273  0.00122  0.971935  0.002  0.112577  0.000852  0.969702  0.001  0.129218  0.108204  0.001539  0.974206  0.002
H  H17  1  0.40101077  0.75557673  0.84218823  1  0.099754  -0.001424  0.916796  -0.002  0.110274  -0.00122  0.971967  -0.002  0.112577  -0.000852  0.969734  -0.001  0.129228  0.108205  -0.001539  0.974238  -0.002
H  H18  1  0.77419387  0.38084890  0.56568576  1  0.119891  0.000817  0.974166  0.001  0.12618  0.000714  1.039364  0.001  0.129785  0.000489  1.037459  0.001  0.097515  0.123529  0.000901  1.040729  0.001
H  H19  1  0.22581099  0.61915150  0.43432156  1  0.119859  -0.000819  0.974273  -0.001  0.12615  -0.000715  1.039464  -0.001  0.129757  -0.00049  1.037558  -0.001  0.097494  0.1235  -0.000901  1.040829  -0.001
H  H20  1  0.99993884  0.29822864  0.67735097  1  0.126591  0.000746  0.978358  0.001  0.133286  0.000651  1.043862  0.001  0.137375  0.000464  1.041633  0.001  0.099961  0.130152  0.000793  1.045537  0.001
H  H21  1  0.00006289  0.70177429  0.32264565  1  0.126601  -0.000747  0.978353  -0.001  0.13328  -0.000651  1.043895  -0.001  0.137365  -0.000463  1.041668  -0.001  0.099946  0.130146  -0.000793  1.045565  -0.001
H  H22  1  0.54925486  0.10251232  0.67499203  1  0.131949  0.000745  0.96121  0.001  0.141157  0.000661  1.022518  0.001  0.144879  0.000472  1.020771  0.001  0.112753  0.138221  0.000807  1.024223  0.001
H  H23  1  0.45074289  0.89748822  0.32500802  1  0.131907  -0.000746  0.961213  -0.001  0.141118  -0.000661  1.022528  -0.001  0.144844  -0.000472  1.020774  -0.001  0.112733  0.13818  -0.000807  1.024232  -0.001
H  H24  1  0.76113891  0.02722104  0.56328046  1  0.125926  0.000829  0.961337  0.001  0.131856  0.00077  1.029973  0.001  0.135862  0.000552  1.026541  0.001  0.111553  0.128761  0.000945  1.032909  0.001
H  H25  1  0.23886014  0.97277263  0.43672466  1  0.125966  -0.00083  0.961316  -0.001  0.131898  -0.00077  1.029928  -0.001  0.135903  -0.000552  1.026497  -0.001  0.111562  0.128801  -0.000945  1.032864  -0.001
H  H26  1  0.50659902  0.21426811  0.99300105  1  0.098527  -5.4e-05  0.938583  0.0  0.108273  2.6e-05  0.999463  0.0  0.111643  1.5e-05  0.997459  0.0  0.102976  0.105723  4.1e-05  1.001118  0.0
H  H27  1  0.49341091  0.78572600  0.00699352  1  0.098562  5.5e-05  0.938568  0.0  0.108313  -2.6e-05  0.999433  0.0  0.111682  -1.5e-05  0.997432  0.0  0.102992  0.105765  -4.1e-05  1.001087  0.0
H  H28  1  0.02610211  0.12893661  0.05247824  1  0.088075  -4.5e-05  0.964502  0.0  0.10055  6.1e-05  1.023213  0.0  0.10333  3.9e-05  1.021991  0.0  0.100588  0.098519  8.5e-05  1.02435  0.0
H  H29  1  0.97389856  0.87107873  0.94751559  1  0.08808  4.6e-05  0.964441  0.0  0.100586  -6.1e-05  1.023127  0.0  0.103366  -3.9e-05  1.021902  0.0  0.100636  0.098557  -8.5e-05  1.024266  0.0
C  C30  1  0.85652214  0.05515432  0.38946803  1  0.009866  -0.008339  3.694558  -0.008  -0.011262  -0.002878  3.944812  -0.003  -0.006397  -0.002964  3.962187  -0.003  -0.064891  -0.014506  -0.002887  3.934324  -0.003
C  C31  1  0.14347723  0.94484511  0.61053220  1  0.009844  0.008325  3.694602  0.008  -0.01129  0.002877  3.94485  0.003  -0.006425  0.002963  3.96222  0.003  -0.064893  -0.014532  0.002887  3.934363  0.003
C  C32  1  0.13858840  0.15307619  0.88580148  1  -0.097791  -0.001609  3.735097  -0.002  -0.12002  -0.000578  3.98833  -0.001  -0.121759  -0.000683  4.010216  -0.001  -0.08711  -0.118666  -0.00043  3.973641  0.0
C  C33  1  0.86139997  0.84693322  0.11419835  1  -0.097787  0.001638  3.735128  0.002  -0.120036  0.000577  3.988355  0.001  -0.121775  0.000684  4.010243  0.001  -0.087127  -0.118687  0.000431  3.973663  0.0
C  C34  1  0.72738611  0.46432801  0.28197295  1  -0.104145  0.009892  3.710927  0.01  -0.11562  0.004162  3.957377  0.005  -0.121686  0.003656  3.978117  0.004  -0.076054  -0.112247  0.004703  3.945095  0.005
C  C35  1  0.27260653  0.53566670  0.71803243  1  -0.104236  -0.009883  3.711037  -0.01  -0.115731  -0.004163  3.957521  -0.005  -0.1218  -0.003655  3.978268  -0.004  -0.076107  -0.112355  -0.004703  3.945246  -0.005
C  C36  1  0.68143199  0.44639597  0.39549271  1  -0.004931  -0.008507  3.708534  -0.008  -0.025352  -0.002842  3.96198  -0.003  -0.022155  -0.002934  3.980725  -0.003  -0.069976  -0.027211  -0.002839  3.950493  -0.003
C  C37  1  0.31856686  0.55360430  0.60451676  1  -0.004886  0.008507  3.70847  0.008  -0.025285  0.002842  3.961923  0.003  -0.022089  0.002933  3.98067  0.003  -0.069944  -0.027143  0.002839  3.950439  0.003
C  C38  1  0.81230658  0.11665223  0.27466164  1  -0.100808  0.009467  3.706772  0.01  -0.11309  0.004119  3.956119  0.005  -0.119403  0.003669  3.975926  0.004  -0.07337  -0.109418  0.004607  3.944398  0.005
C  C39  1  0.18770124  0.88334390  0.72533960  1  -0.10074  -0.009452  3.70676  -0.01  -0.113053  -0.004119  3.956116  -0.005  -0.119364  -0.003669  3.975917  -0.004  -0.073384  -0.109383  -0.004607  3.944399  -0.005
C  C40  1  0.41414447  0.18999364  0.85554070  1  -0.095992  -0.002552  3.72663  -0.002  -0.115957  -0.000452  3.978315  0.0  -0.117895  -0.000575  3.999989  -0.001  -0.083992  -0.114871  -0.000288  3.963853  0.0
C  C41  1  0.58586298  0.81000378  0.14445468  1  -0.096171  0.002578  3.72661  0.002  -0.116178  0.000452  3.978319  0.0  -0.118127  0.000575  4.00002  0.001  -0.084116  -0.11509  0.000288  3.963851  0.0
C  C42  1  0.89909266  0.43067303  0.25153422  1  0.147294  -0.008649  3.665883  -0.01  0.118388  -0.001772  3.922434  -0.003  0.127873  -0.002738  3.940089  -0.004  0.061129  0.112136  -0.000943  3.911744  -0.002
C  C43  1  0.10090155  0.56932404  0.74846796  1  0.147263  0.008646  3.665831  0.01  0.118392  0.001772  3.922403  0.003  0.127859  0.002737  3.940054  0.004  0.061097  0.112141  0.000944  3.911716  0.002
C  C44  1  0.64278608  0.19540584  0.24564106  1  0.136484  -0.008101  3.679497  -0.009  0.107427  -0.001595  3.935449  -0.003  0.116718  -0.002522  3.952937  -0.004  0.057989  0.100648  -0.000816  3.925981  -0.002
C  C45  1  0.35722460  0.80458573  0.75436363  1  0.136451  0.00809  3.679798  0.009  0.107456  0.001595  3.935722  0.003  0.116754  0.002521  3.953209  0.004  0.05801  0.100674  0.000817  3.926256  0.002
C  C46  1  0.80668708  0.39357669  0.47633589  1  -0.13731  0.006441  3.677834  0.006  -0.153076  0.002491  3.92123  0.002  -0.15972  0.00233  3.942129  0.002  -0.081015  -0.149153  0.002779  3.908465  0.003
C  C47  1  0.19331738  0.60642491  0.52366875  1  -0.137354  -0.006433  3.677947  -0.006  -0.15314  -0.002492  3.921318  -0.002  -0.159786  -0.002329  3.942214  -0.002  -0.081031  -0.149217  -0.00278  3.908555  -0.003
C  C48  1  0.12048581  0.26607308  0.63276220  1  -0.169215  0.004775  3.60915  0.005  -0.193771  0.002716  3.852697  0.003  -0.201611  0.002391  3.869892  0.002  -0.07366  -0.189036  0.002958  3.842884  0.003
C  C49  1  0.87951306  0.73393084  0.36723754  1  -0.169314  -0.004789  3.609209  -0.005  -0.193873  -0.002716  3.852793  -0.003  -0.201708  -0.002391  3.86998  -0.002  -0.073696  -0.189136  -0.002959  3.842976  -0.003
C  C50  1  0.42813712  0.16083473  0.63078158  1  -0.16612  0.00474  3.601527  0.005  -0.191063  0.002754  3.844504  0.003  -0.198425  0.002409  3.861567  0.002  -0.07276  -0.186586  0.002992  3.834976  0.003
C  C51  1  0.57186029  0.83916356  0.36921838  1  -0.166035  -0.004753  3.601592  -0.005  -0.19099  -0.002756  3.844597  -0.003  -0.198352  -0.002408  3.86166  -0.002  -0.072745  -0.186508  -0.002992  3.835066  -0.003
C  C52  1  0.27791560  0.17592324  0.81294816  1  0.023191  0.003003  3.789632  0.003  0.036678  0.000715  4.026303  0.001  0.033236  0.00061  4.051511  0.001  -0.015521  0.039165  0.000892  4.009633  0.001
C  C53  1  0.72208446  0.82408067  0.18705225  1  0.023193  -0.00303  3.789936  -0.003  0.036772  -0.000715  4.026475  -0.001  0.033329  -0.00061  4.05168  -0.001  -0.015533  0.039255  -0.000892  4.0098  -0.001
C  C54  1  0.73225310  0.07667759  0.47221797  1  -0.137867  0.006376  3.672845  0.006  -0.157672  0.002601  3.923882  0.002  -0.164101  0.002474  3.943151  0.002  -0.076463  -0.153863  0.002829  3.91226  0.003
C  C55  1  0.26774421  0.92332402  0.52778337  1  -0.137899  -0.006358  3.673019  -0.006  -0.157673  -0.002601  3.923999  -0.002  -0.164108  -0.002473  3.943285  -0.002  -0.07647  -0.153863  -0.002829  3.912377  -0.003
C  C56  1  0.27544772  0.19937837  0.69151328  1  0.120014  -0.005647  3.740056  -0.005  0.130028  -0.002265  3.976002  -0.002  0.138595  -0.002329  3.994896  -0.002  0.015855  0.123493  -0.002059  3.965275  -0.002
C  C57  1  0.72454910  0.80062774  0.30848756  1  0.120095  0.005661  3.740168  0.005  0.130084  0.002266  3.9761  0.002  0.138653  0.002328  3.994989  0.002  0.015939  0.12355  0.002059  3.965367  0.002
C  C58  1  0.42141342  0.19441897  0.51397992  1  0.189701  -0.002397  3.785399  -0.003  0.185055  0.000524  4.034571  -0.001  0.195596  -0.000365  4.05264  -0.002  0.118251  0.177807  0.001352  4.023177  0.0
C  C59  1  0.57858398  0.80557930  0.48602083  1  0.189749  0.002411  3.785139  0.003  0.185085  -0.000522  4.034339  0.001  0.195628  0.000366  4.052408  0.002  0.118251  0.177821  -0.001352  4.022961  0.0
C  C60  1  0.97648238  0.35891821  0.44030964  1  0.164894  -0.002602  3.733041  -0.003  0.163446  0.001366  3.976875  0.001  0.169379  0.000178  3.998476  0.0  0.11325  0.159674  0.002251  3.962719  0.002
C  C61  1  0.02351975  0.64108354  0.55968887  1  0.164925  0.002596  3.733103  0.003  0.163569  -0.001366  3.97683  -0.001  0.169506  -0.000178  3.998428  0.0  0.113345  0.159802  -0.002251  3.962674  -0.002
C  C62  1  0.56533070  0.16047595  0.43673450  1  0.1681  -0.002653  3.751015  -0.003  0.16641  0.001266  3.993566  0.001  0.173158  5.2e-05  4.014589  0.0  0.118232  0.162293  0.002167  3.979376  0.002
C  C63  1  0.43466455  0.83952785  0.56326795  1  0.168087  0.00264  3.750845  0.003  0.166428  -0.001265  3.993405  -0.001  0.173181  -5.2e-05  4.014425  0.0  0.118267  0.162314  -0.002167  3.979214  -0.002
C  C64  1  0.12330043  0.29614393  0.51580533  1  0.190935  -0.002366  3.781295  -0.003  0.186037  0.000485  4.030469  -0.001  0.197259  -0.000406  4.047777  -0.002  0.119117  0.178446  0.001319  4.0197  0.0
C  C65  1  0.87670141  0.70385213  0.48419568  1  0.191039  0.002376  3.78135  0.003  0.186098  -0.000486  4.030516  0.001  0.197321  0.000406  4.047826  0.002  0.119119  0.178502  -0.00132  4.019747  0.0
C  C66  1  0.26473087  0.17251764  0.03643084  1  -0.034831  0.006302  3.734964  0.007  -0.010551  0.003231  3.962236  0.004  -0.015087  0.001798  3.982701  0.002  -0.01007  -0.008031  0.004541  3.948675  0.005
C  C67  1  0.73527166  0.82748653  0.96356220  1  -0.034892  -0.006276  3.735011  -0.007  -0.010443  -0.003231  3.962028  -0.004  -0.014975  -0.001797  3.982489  -0.002  -0.010095  -0.007925  -0.004541  3.948464  -0.005
C  C68  1  0.40495578  0.19295723  0.96461130  1  -0.067912  0.002547  3.726884  0.002  -0.091481  0.00047  3.975638  0.0  -0.092803  0.000426  3.995792  0.0  -0.083263  -0.090353  0.000558  3.962275  0.0
C  C69  1  0.59505126  0.80704136  0.03538220  1  -0.067881  -0.002575  3.726818  -0.002  -0.091493  -0.00047  3.975513  0.0  -0.092817  -0.000426  3.995664  0.0  -0.083202  -0.090371  -0.000559  3.96215  0.0
C  C70  1  0.13457560  0.14755235  0.99708133  1  -0.075424  0.003129  3.74411  0.003  -0.097707  0.00161  3.988057  0.002  -0.100223  0.001232  4.009766  0.001  -0.085011  -0.096029  0.001981  3.973678  0.002
C  C71  1  0.86541950  0.85246180  0.00291256  1  -0.075422  -0.003158  3.743954  -0.003  -0.097796  -0.00161  3.987893  -0.002  -0.100312  -0.001233  4.009599  -0.001  -0.085095  -0.096115  -0.001982  3.973511  -0.002
C  C72  1  0.24960719  0.18414597  0.15193873  1  0.625387  -0.00333  3.920361  -0.006  0.582161  0.000155  4.230642  -0.002  0.618827  -9.7e-05  4.222535  -0.001  0.196919  0.557419  0.000493  4.234834  -0.002
C  C73  1  0.75039846  0.81586280  0.84805189  1  0.625421  0.003327  3.920415  0.006  0.582176  -0.000156  4.230631  0.002  0.618839  9.3e-05  4.222524  0.001  0.196947  0.557434  -0.000493  4.234823  0.002
N  N74  1  0.01973165  0.37847833  0.32878243  1  -0.305575  0.091109  3.307403  0.111  -0.265947  0.063699  3.600683  0.083  -0.295325  0.050742  3.62213  0.07  -0.333574  -0.248734  0.072029  3.588031  0.091
N  N75  1  0.98026707  0.62151670  0.67121444  1  -0.305565  -0.091111  3.307342  -0.111  -0.265962  -0.063704  3.600588  -0.083  -0.295349  -0.050745  3.622053  -0.07  -0.333587  -0.248749  -0.072032  3.58794  -0.091
N  N76  1  0.52279749  0.21569431  0.32499487  1  -0.309567  0.085986  3.311898  0.105  -0.268401  0.061535  3.602404  0.08  -0.297324  0.049528  3.623749  0.068  -0.336434  -0.25178  0.069122  3.590529  0.087
N  N77  1  0.47720356  0.78430056  0.67500814  1  -0.309487  -0.085965  3.311993  -0.105  -0.268411  -0.06153  3.602549  -0.08  -0.29735  -0.049525  3.623908  -0.068  -0.336417  -0.251778  -0.069117  3.590664  -0.087
N  N78  1  0.27194431  0.26365475  0.45997334  1  -0.367731  0.083286  3.423129  0.101  -0.331573  0.062598  3.720924  0.081  -0.360947  0.052029  3.738889  0.071  -0.364795  -0.315345  0.0681  3.711628  0.085
N  N79  1  0.72805755  0.73634138  0.54002529  1  -0.367866  -0.083301  3.423087  -0.101  -0.331673  -0.062602  3.72085  -0.081  -0.361057  -0.052031  3.738824  -0.071  -0.364828  -0.315443  -0.068103  3.711558  -0.085
Cl  Cl80  1  0.28601275  0.58329339  0.23969036  1  -0.669103  0.001935  0.736791  0.004  -0.627928  0.000739  0.95376  0.002  -0.647461  -0.000622  0.93108  0.001  -0.390627  -0.610394  0.002465  0.967943  0.004
Cl  Cl81  1  0.71396172  0.41671127  0.76031291  1  -0.669081  -0.001937  0.736868  -0.004  -0.627911  -0.000739  0.95385  -0.002  -0.64745  0.00062  0.931173  -0.001  -0.390626  -0.610378  -0.002467  0.968033  -0.004
O  O82  1  0.27813266  0.30328901  0.14848580  1  -0.592517  0.088577  2.044698  0.114  -0.573093  0.047457  2.32606  0.067  -0.61553  0.034913  2.31652  0.052  -0.338176  -0.544336  0.055772  2.331503  0.075
O  O83  1  0.72188877  0.69670621  0.85151371  1  -0.592496  -0.088582  2.044612  -0.114  -0.573084  -0.047458  2.325962  -0.067  -0.615524  -0.034915  2.316431  -0.052  -0.33817  -0.544326  -0.055775  2.331406  -0.076
O  O84  1  0.21013851  0.08700277  0.23892454  1  -0.621154  -0.000899  1.907789  0.0  -0.590904  -0.000601  2.145162  0.0  -0.61442  -0.001102  2.133806  -0.001  -0.33026  -0.573239  6.9e-05  2.151533  0.001
O  O85  1  0.78985476  0.91300346  0.76107108  1  -0.621132  0.000901  1.908007  0.0  -0.590916  0.000601  2.145415  0.0  -0.61444  0.001105  2.13408  0.001  -0.330265  -0.573253  -6.9e-05  2.151789  -0.001
