# generated using pymatgen
data_CuHgH11C17N5Cl2
_symmetry_space_group_name_H-M   'P 1'
_cell_length_a   7.23110706
_cell_length_b   9.53061118
_cell_length_c   13.15333256
_cell_angle_alpha   85.44787988
_cell_angle_beta   83.98207951
_cell_angle_gamma   86.55891995
_symmetry_Int_Tables_number   1
_chemical_formula_structural   CuHgH11C17N5Cl2
_chemical_formula_sum   'Cu2 Hg2 H22 C34 N10 Cl4'
_cell_volume   897.42435580
_cell_formula_units_Z   2
loop_
 _symmetry_equiv_pos_site_id
 _symmetry_equiv_pos_as_xyz
  1  'x, y, z'
loop_
 _atom_site_type_symbol
 _atom_site_label
 _atom_site_symmetry_multiplicity
 _atom_site_fract_x
 _atom_site_fract_y
 _atom_site_fract_z
 _atom_site_occupancy
 _atom_site_hle17_ddec_charge
 _atom_site_hle17_ddec_spin_density
 _atom_site_hle17_ddec_sum_bond_order
 _atom_site_hle17_magmom
 _atom_site_hse06_10hf_ddec_charge
 _atom_site_hse06_10hf_ddec_spin_density
 _atom_site_hse06_10hf_ddec_sum_bond_order
 _atom_site_hse06_10hf_magmom
 _atom_site_hse06_ddec_charge
 _atom_site_hse06_ddec_spin_density
 _atom_site_hse06_ddec_sum_bond_order
 _atom_site_hse06_magmom
 _atom_site_pbe_cm5_charge
 _atom_site_pbe_ddec_charge
 _atom_site_pbe_ddec_spin_density
 _atom_site_pbe_ddec_sum_bond_order
 _atom_site_pbe_magmom
Cu  Cu0  1  0.08899694  0.22518196  0.70245409  1  0.71316  0.717097  2.084024  0.494  0.672016  0.790589  2.50785  0.597  0.754412  0.86908  2.438708  0.68  0.665936  0.62665  0.735384  2.551984  0.543
Cu  Cu1  1  0.91100539  0.77481722  0.29754677  1  0.713099  -0.717086  2.084043  -0.494  0.671986  -0.790577  2.507928  -0.597  0.75444  -0.869074  2.438728  -0.68  0.665949  0.626648  -0.735387  2.552044  -0.543
Hg  Hg2  1  0.54814803  0.11937811  0.83082829  1  0.64645  -0.000428  2.381271  0.0  0.527102  -0.000138  2.861029  0.0  0.560622  -0.000215  2.831401  0.0  0.511379  0.504473  -9.6e-05  2.880489  0.0
Hg  Hg3  1  0.45183954  0.88063489  0.16916895  1  0.646407  0.000427  2.381262  0.0  0.527061  0.000139  2.861034  0.0  0.560582  0.000215  2.831409  0.0  0.511364  0.504432  9.5e-05  2.880499  0.0
H  H4  1  0.98554974  0.07447168  0.91482220  1  0.082698  0.001532  0.955846  0.002  0.090013  0.001313  1.020814  0.002  0.090997  0.000925  1.020527  0.001  0.109378  0.089044  0.001659  1.021439  0.002
H  H5  1  0.01445514  0.92553064  0.08517604  1  0.082727  -0.001536  0.955758  -0.002  0.090049  -0.001314  1.020707  -0.002  0.091033  -0.000926  1.020418  -0.001  0.109404  0.089082  -0.00166  1.021335  -0.002
H  H6  1  0.80582556  0.14731885  0.07919180  1  0.106601  0.000151  0.978479  0.001  0.115063  4.7e-05  1.041486  0.001  0.118112  1.2e-05  1.040944  0.0  0.094497  0.112712  0.000101  1.042298  0.001
H  H7  1  0.19417560  0.85267613  0.92080861  1  0.106647  -0.000152  0.978368  -0.001  0.115101  -4.7e-05  1.041388  -0.001  0.11815  -1.2e-05  1.040844  0.0  0.094483  0.112745  -0.000101  1.042192  -0.001
H  H8  1  0.69400517  0.40194441  0.08892562  1  0.110343  0.000165  0.967919  0.0  0.118372  -4.9e-05  1.027449  0.0  0.121605  -5.8e-05  1.024938  0.0  0.10833  0.116008  -2e-05  1.029339  0.0
H  H9  1  0.30597804  0.59804755  0.91107461  1  0.110369  -0.000163  0.967891  0.0  0.118394  4.9e-05  1.027448  0.0  0.121626  5.8e-05  1.024941  0.0  0.108308  0.116037  1.9e-05  1.029327  0.0
H  H10  1  0.77479952  0.57309338  0.93981412  1  0.126665  0.000962  0.965235  0.001  0.13196  0.00076  1.030162  0.001  0.13552  0.00052  1.028416  0.001  0.111339  0.12928  0.000966  1.031744  0.001
H  H11  1  0.22518220  0.42690069  0.06018684  1  0.126581  -0.00096  0.965158  -0.001  0.131874  -0.000759  1.030107  -0.001  0.135439  -0.00052  1.028354  -0.001  0.111298  0.129196  -0.000966  1.03169  -0.001
H  H12  1  0.90639239  0.71203890  0.80858950  1  0.122586  0.000937  0.969558  0.001  0.130518  0.000759  1.030578  0.001  0.133005  0.000535  1.030912  0.001  0.110855  0.12851  0.000978  1.030885  0.001
H  H13  1  0.09359887  0.28795826  0.19140991  1  0.12256  -0.000936  0.969614  -0.001  0.13049  -0.000759  1.030635  -0.001  0.132978  -0.000535  1.030972  -0.001  0.110858  0.128486  -0.000978  1.03095  -0.001
H  H14  1  0.04461834  0.83273729  0.64578053  1  0.109144  0.000229  0.940282  0.0  0.117846  9e-06  1.000242  0.0  0.120461  -1.1e-05  0.998199  0.0  0.103629  0.115176  -1e-06  1.003036  0.0
H  H15  1  0.95537571  0.16725985  0.35421870  1  0.109158  -0.000227  0.940267  0.0  0.117851  -9e-06  1.000243  0.0  0.120472  1.2e-05  0.998193  0.0  0.103617  0.115185  2e-06  1.003039  0.0
H  H16  1  0.20513188  0.69200386  0.50751148  1  0.120727  0.00094  0.980507  0.001  0.126912  0.000758  1.046639  0.001  0.130432  0.000531  1.044778  0.001  0.095348  0.124094  0.00096  1.048213  0.001
H  H17  1  0.79487470  0.30799423  0.49248993  1  0.120638  -0.000939  0.980592  -0.001  0.126838  -0.000758  1.046692  -0.001  0.13035  -0.000531  1.044838  -0.001  0.095299  0.124013  -0.00096  1.048289  -0.001
H  H18  1  0.34891154  0.53646235  0.40113654  1  0.119794  0.001015  0.940859  0.001  0.126468  0.00079  1.005213  0.001  0.128935  0.000546  1.005255  0.001  0.108363  0.124178  0.000997  1.006223  0.001
H  H19  1  0.65110493  0.46353460  0.59886809  1  0.119783  -0.001014  0.940916  -0.001  0.126468  -0.00079  1.00524  -0.001  0.128933  -0.000546  1.005287  -0.001  0.108365  0.12417  -0.000997  1.006273  -0.001
H  H20  1  0.49277648  0.34648883  0.29571202  1  0.109888  0.000156  0.956013  0.0  0.1189  -0.000112  1.014765  0.0  0.121967  -0.000104  1.012301  0.0  0.109433  0.116543  -9.9e-05  1.016799  0.0
H  H21  1  0.50723020  0.65350820  0.70429096  1  0.109782  -0.000156  0.95609  0.0  0.118789  0.000113  1.014848  0.0  0.121862  0.000104  1.012381  0.0  0.109383  0.116424  9.9e-05  1.016887  0.0
H  H22  1  0.45706856  0.09215227  0.36279808  1  0.105787  0.000458  0.978977  0.001  0.110958  0.000325  1.04691  0.001  0.113844  0.00022  1.046013  0.0  0.092414  0.108599  0.000424  1.048163  0.001
H  H23  1  0.54293812  0.90784476  0.63720490  1  0.105749  -0.000457  0.979038  -0.001  0.110912  -0.000324  1.046991  -0.001  0.1138  -0.00022  1.046089  0.0  0.092417  0.108554  -0.000423  1.048244  -0.001
H  H24  1  0.28495369  0.04259209  0.53616752  1  0.089298  0.001742  0.941282  0.002  0.095181  0.001415  1.007436  0.002  0.09663  0.001005  1.005983  0.001  0.113054  0.093667  0.001774  1.009222  0.002
H  H25  1  0.71505569  0.95740702  0.46383669  1  0.089335  -0.001743  0.941235  -0.002  0.095248  -0.001416  1.007339  -0.002  0.096705  -0.001005  1.00588  -0.001  0.113091  0.093734  -0.001775  1.009124  -0.002
C  C26  1  0.46682386  0.32862623  0.81101202  1  -0.030419  -0.000363  3.47946  0.0  -0.01367  -0.000399  3.823871  0.0  -0.016093  -0.000343  3.83571  0.0  0.013729  -0.01288  -0.000406  3.815826  0.0
C  C27  1  0.53314984  0.67138478  0.18898319  1  -0.030634  0.000357  3.479238  0.0  -0.013914  0.000401  3.823708  0.0  -0.016341  0.000343  3.835554  0.0  0.01363  -0.013118  0.000406  3.815665  0.0
C  C28  1  0.63032462  0.92139040  0.88821697  1  -0.043757  0.000333  3.501198  0.0  -0.018117  0.000341  3.830606  0.0  -0.021223  0.000226  3.844602  0.0  0.009188  -0.016203  0.000469  3.820829  0.0
C  C29  1  0.36967917  0.07862672  0.11176910  1  -0.043735  -0.000338  3.501327  0.0  -0.018101  -0.000341  3.830734  0.0  -0.02121  -0.000228  3.844729  0.0  0.009251  -0.016185  -0.000469  3.820964  0.0
C  C30  1  0.93650439  0.18327582  0.92497875  1  0.114247  -0.006899  3.733487  -0.008  0.087912  -0.00102  3.990942  -0.002  0.096143  -0.002052  4.011708  -0.003  0.03969  0.082372  -0.00025  3.97796  -0.002
C  C31  1  0.06349803  0.81672230  0.07502369  1  0.114264  0.0069  3.733505  0.008  0.087932  0.001024  3.990974  0.002  0.096165  0.002052  4.011741  0.003  0.039647  0.082389  0.000249  3.977999  0.002
C  C32  1  0.83627729  0.22475328  0.01494749  1  -0.112007  0.008292  3.715301  0.009  -0.123599  0.003566  3.962817  0.004  -0.13149  0.0031  3.984413  0.004  -0.081927  -0.11861  0.004069  3.948907  0.005
C  C33  1  0.16372232  0.77524486  0.98505360  1  -0.112161  -0.008286  3.715145  -0.009  -0.123737  -0.00357  3.962692  -0.004  -0.13163  -0.0031  3.984286  -0.004  -0.081922  -0.118739  -0.00407  3.948763  -0.005
C  C34  1  0.77533686  0.36576047  0.02045069  1  0.010889  -0.007528  3.669998  -0.007  -0.007262  -0.002443  3.914959  -0.002  -0.003149  -0.002641  3.932357  -0.002  -0.060444  -0.009932  -0.002337  3.903219  -0.002
C  C35  1  0.22465740  0.63423350  0.97955023  1  0.011003  0.007521  3.669879  0.007  -0.007204  0.002446  3.914876  0.002  -0.003093  0.002642  3.932276  0.002  -0.060403  -0.009879  0.002337  3.903116  0.002
C  C36  1  0.82044126  0.46206368  0.93732468  1  -0.118517  0.005522  3.654765  0.005  -0.134646  0.002344  3.895912  0.002  -0.141372  0.002096  3.916002  0.002  -0.069235  -0.130194  0.002608  3.882193  0.002
C  C37  1  0.17954720  0.53793456  0.06267637  1  -0.118432  -0.005524  3.654731  -0.005  -0.134493  -0.002343  3.895818  -0.002  -0.141221  -0.002101  3.915912  -0.002  -0.069204  -0.13005  -0.002607  3.882111  -0.002
C  C38  1  0.92399304  0.41383472  0.85018892  1  0.177639  -0.001061  3.72775  -0.001  0.173702  0.001979  3.970711  0.002  0.181359  0.000677  3.99183  0.0  0.120864  0.169326  0.003018  3.956229  0.003
C  C39  1  0.07600093  0.58616453  0.14981172  1  0.177495  0.001058  3.727896  0.001  0.173542  -0.001983  3.97085  -0.002  0.181198  -0.000672  3.991981  0.0  0.120769  0.169169  -0.003018  3.956376  -0.003
C  C40  1  0.98750366  0.50396406  0.75877561  1  0.196059  -0.004278  3.74683  -0.006  0.190853  8e-06  3.994053  -0.001  0.200177  -0.001124  4.013184  -0.003  0.12864  0.18419  0.000857  3.982323  -0.001
C  C41  1  0.01249031  0.49603519  0.24122503  1  0.196077  0.00428  3.746891  0.006  0.190902  -1e-05  3.994132  0.001  0.200212  0.001129  4.013264  0.003  0.128655  0.184238  -0.000857  3.982398  0.001
C  C42  1  0.97568497  0.65118273  0.74756994  1  -0.117235  0.007297  3.632531  0.007  -0.134674  0.003613  3.874565  0.004  -0.141559  0.003222  3.894203  0.003  -0.06498  -0.130177  0.003967  3.862617  0.004
C  C43  1  0.02431035  0.34881651  0.25242909  1  -0.117227  -0.0073  3.632584  -0.007  -0.134652  -0.003614  3.874608  -0.004  -0.141539  -0.003225  3.894251  -0.003  -0.064993  -0.130162  -0.003967  3.86268  -0.004
C  C44  1  0.05373315  0.71801007  0.65612541  1  0.018237  -0.008255  3.665004  -0.008  0.000726  -0.003073  3.91408  -0.003  0.006288  -0.003248  3.929968  -0.003  -0.060531  -0.003766  -0.002937  3.905491  -0.003
C  C45  1  0.94626497  0.28199019  0.34387643  1  0.018168  0.008251  3.665105  0.008  0.000622  0.003076  3.914154  0.003  0.006181  0.003247  3.930047  0.003  -0.060534  -0.003872  0.002938  3.905579  0.003
C  C46  1  0.14468471  0.63920179  0.57893359  1  -0.12559  0.007461  3.648806  0.007  -0.146369  0.003764  3.897729  0.004  -0.153007  0.003313  3.916613  0.004  -0.073062  -0.141428  0.004072  3.885254  0.004
C  C47  1  0.85532181  0.36079840  0.42106998  1  -0.125389  -0.007462  3.648868  -0.007  -0.146093  -0.003768  3.897663  -0.004  -0.152726  -0.003309  3.91656  -0.004  -0.072948  -0.141154  -0.004071  3.88519  -0.004
C  C48  1  0.15250523  0.49217590  0.59496935  1  0.187284  -0.004218  3.758877  -0.005  0.18232  2.7e-05  4.007192  -0.001  0.191916  -0.001111  4.026148  -0.003  0.124919  0.17575  0.000874  3.995012  -0.001
C  C49  1  0.84750413  0.50782321  0.40503410  1  0.187136  0.004217  3.758908  0.005  0.182198  -2.6e-05  4.007289  0.001  0.191762  0.001108  4.026235  0.003  0.124859  0.175632  -0.000874  3.995089  0.001
C  C50  1  0.24439017  0.39025061  0.52516818  1  0.163746  -0.001297  3.749295  -0.001  0.162111  0.001877  3.992049  0.002  0.169655  0.000557  4.013313  0.0  0.114173  0.158  0.00286  3.977285  0.003
C  C51  1  0.75562491  0.60974634  0.47483654  1  0.163841  0.001292  3.749213  0.001  0.162122  -0.001877  3.992094  -0.002  0.169714  -0.000557  4.013294  0.0  0.114194  0.158011  -0.002859  3.977329  -0.003
C  C52  1  0.33924678  0.42624828  0.42964658  1  -0.127933  0.005682  3.673913  0.005  -0.148342  0.002358  3.924646  0.002  -0.155087  0.002149  3.946039  0.002  -0.075741  -0.143708  0.002574  3.910682  0.002
C  C53  1  0.66076539  0.57375080  0.57035745  1  -0.128122  -0.005678  3.67404  -0.005  -0.1485  -0.00236  3.924812  -0.002  -0.155264  -0.002146  3.946191  -0.002  -0.07583  -0.143869  -0.002574  3.91087  -0.002
C  C54  1  0.41873329  0.31884038  0.37041161  1  0.003653  -0.008211  3.695171  -0.007  -0.013686  -0.002786  3.941247  -0.003  -0.009575  -0.002947  3.959184  -0.003  -0.062574  -0.016883  -0.00269  3.929644  -0.002
C  C55  1  0.58127754  0.68115767  0.62959257  1  0.003849  0.008206  3.695033  0.007  -0.013476  0.002787  3.941085  0.003  -0.009371  0.002945  3.959015  0.003  -0.06253  -0.016667  0.00269  3.929473  0.002
C  C56  1  0.39973661  0.17885533  0.40742668  1  -0.099785  0.009629  3.690604  0.01  -0.11015  0.004101  3.934467  0.005  -0.118037  0.00359  3.955839  0.004  -0.076798  -0.105186  0.004556  3.921443  0.005
C  C57  1  0.60027124  0.82114591  0.59257675  1  -0.099715  -0.009629  3.690472  -0.01  -0.110088  -0.004102  3.934321  -0.005  -0.117973  -0.003591  3.955693  -0.004  -0.076682  -0.105118  -0.004557  3.921282  -0.005
C  C58  1  0.30409919  0.15004197  0.50369027  1  0.147692  -0.008045  3.675779  -0.009  0.116961  -0.001422  3.932237  -0.003  0.126742  -0.002462  3.951546  -0.004  0.05399  0.110368  -0.000599  3.920703  -0.002
C  C59  1  0.69591447  0.84995500  0.49631303  1  0.147721  0.008044  3.675839  0.009  0.117009  0.001423  3.93223  0.003  0.126771  0.002463  3.951553  0.004  0.053955  0.110415  0.0006  3.920692  0.002
N  N60  1  0.42463077  0.44835759  0.79754436  1  -0.346379  -0.000518  2.798771  0.0  -0.314783  -0.000538  3.040052  -0.001  -0.323718  -0.000498  3.058404  -0.001  -0.319619  -0.307808  -0.000518  3.027637  0.0
N  N61  1  0.57533493  0.55164612  0.20244874  1  -0.346171  0.000524  2.798457  0.0  -0.314556  0.000536  3.03973  0.001  -0.323488  0.000498  3.058086  0.001  -0.319517  -0.307581  0.000518  3.027316  0.0
N  N62  1  0.67851248  0.80978529  0.92231354  1  -0.357862  0.000287  2.788496  0.0  -0.326699  0.000285  3.020564  0.0  -0.335887  0.000202  3.039241  0.0  -0.327498  -0.32  0.000372  3.007964  0.0
N  N63  1  0.32150281  0.19022228  0.07766548  1  -0.357875  -0.000282  2.788707  0.0  -0.3267  -0.000285  3.020792  0.0  -0.33589  -0.0002  3.039469  0.0  -0.327558  -0.319999  -0.000372  3.008198  0.0
N  N64  1  0.97762655  0.27509028  0.84446334  1  -0.32254  0.090901  3.336266  0.11  -0.278209  0.063587  3.622818  0.082  -0.31076  0.051893  3.64884  0.07  -0.340257  -0.258964  0.070828  3.607084  0.088
N  N65  1  0.02237147  0.72491209  0.15553914  1  -0.322478  -0.0909  3.336355  -0.11  -0.278144  -0.063591  3.622907  -0.082  -0.310711  -0.051899  3.648946  -0.07  -0.340175  -0.258916  -0.070824  3.607201  -0.088
N  N66  1  0.07142129  0.43042458  0.68228300  1  -0.332166  0.10493  3.389711  0.128  -0.295774  0.074785  3.684585  0.097  -0.327396  0.062623  3.706632  0.085  -0.350115  -0.278511  0.081219  3.673799  0.102
N  N67  1  0.92857965  0.56957461  0.31771795  1  -0.332003  -0.104922  3.389666  -0.128  -0.295727  -0.074781  3.68465  -0.097  -0.327325  -0.062624  3.706688  -0.085  -0.350079  -0.278447  -0.081214  3.673834  -0.102
N  N68  1  0.23046139  0.25286922  0.56136454  1  -0.311035  0.095235  3.309176  0.115  -0.266445  0.064973  3.596969  0.084  -0.298951  0.053426  3.621553  0.073  -0.335323  -0.247461  0.071983  3.582061  0.09
N  N69  1  0.76954942  0.74712988  0.43864110  1  -0.311138  -0.095236  3.309313  -0.115  -0.266564  -0.064977  3.597194  -0.084  -0.299085  -0.053427  3.621772  -0.073  -0.335381  -0.247594  -0.071988  3.582292  -0.09
Cl  Cl70  1  0.23060591  0.01291491  0.74968990  1  -0.515487  0.083717  1.056624  0.093  -0.493079  0.052594  1.3576  0.061  -0.520383  0.040549  1.33217  0.048  -0.282233  -0.473359  0.060063  1.375365  0.068
Cl  Cl71  1  0.76939102  0.98708010  0.25030850  1  -0.515475  -0.083718  1.056603  -0.093  -0.493069  -0.052596  1.357591  -0.061  -0.520381  -0.040547  1.332138  -0.048  -0.282243  -0.473357  -0.06006  1.375363  -0.068
Cl  Cl72  1  0.79617069  0.14045694  0.64826573  1  -0.621861  -0.001814  0.87977  0.0  -0.570394  -0.000865  1.140432  0.001  -0.591135  -0.001203  1.117175  0.0  -0.358804  -0.55387  -0.000618  1.156097  0.001
Cl  Cl73  1  0.20382936  0.85955702  0.35173140  1  -0.621848  0.001813  0.879747  0.0  -0.570367  0.000864  1.140405  -0.001  -0.591125  0.001201  1.117145  0.0  -0.358803  -0.55385  0.000617  1.156067  -0.001
