# generated using pymatgen
data_HgH8(C2N)4
_symmetry_space_group_name_H-M   'P 1'
_cell_length_a   5.89292030
_cell_length_b   9.10795407
_cell_length_c   9.61818991
_cell_angle_alpha   118.29291980
_cell_angle_beta   102.39406163
_cell_angle_gamma   90.06632911
_symmetry_Int_Tables_number   1
_chemical_formula_structural   HgH8(C2N)4
_chemical_formula_sum   'Hg2 H16 C16 N8'
_cell_volume   440.77817428
_cell_formula_units_Z   2
loop_
 _symmetry_equiv_pos_site_id
 _symmetry_equiv_pos_as_xyz
  1  'x, y, z'
loop_
 _atom_site_type_symbol
 _atom_site_label
 _atom_site_symmetry_multiplicity
 _atom_site_fract_x
 _atom_site_fract_y
 _atom_site_fract_z
 _atom_site_occupancy
 _atom_site_pbe_bader_spin_density
 _atom_site_pbe_cm5_charge
 _atom_site_pbe_ddec_charge
 _atom_site_pbe_ddec_spin_density
 _atom_site_pbe_ddec_sum_bond_order
 _atom_site_pbe_magmom
Hg  Hg0  1  0.25020852  0.86780139  0.99993379  1  0  0.691538  0.537835  0  2.466463  0
Hg  Hg1  1  0.74977083  0.13221258  0.00006652  1  0  0.691933  0.53819  0  2.467399  0
H  H2  1  0.29476873  0.86532350  0.62774976  1  0  0.108944  0.098912  0  1.072963  0
H  H3  1  0.20470361  0.23721089  0.37201930  1  0  0.108371  0.098335  0  1.074384  0
H  H4  1  0.70524490  0.13466849  0.37227055  1  0  0.108987  0.098876  0  1.072961  0
H  H5  1  0.79525819  0.76280145  0.62798017  1  0  0.108379  0.098341  0  1.074345  0
H  H6  1  0.63719601  0.28344995  0.79638247  1  0  0.088412  0.126078  0  1.013084  0
H  H7  1  0.86400380  0.48674045  0.20385327  1  0  0.088496  0.126252  0  1.012209  0
H  H8  1  0.36278932  0.71652647  0.20359746  1  0  0.088503  0.12619  0  1.012914  0
H  H9  1  0.13603894  0.51325407  0.79611669  1  0  0.088638  0.126475  0  1.012264  0
H  H10  1  0.51997050  0.13603117  0.58875683  1  0  0.091658  0.131679  0  1.025056  0
H  H11  1  0.98021398  0.54737162  0.41176872  1  0  0.092039  0.13232  0  1.025253  0
H  H12  1  0.48000686  0.86395228  0.41121779  1  0  0.091644  0.13179  0  1.02512  0
H  H13  1  0.01982594  0.45262322  0.58824678  1  0  0.092031  0.132354  0  1.025385  0
H  H14  1  0.73354486  0.30270447  0.64256343  1  0  0.094544  0.139018  0  1.018735  0
H  H15  1  0.76756844  0.66010992  0.35739378  1  0  0.094065  0.139145  0  1.018388  0
H  H16  1  0.26643242  0.69732473  0.35741604  1  0  0.094545  0.139065  0  1.019225  0
H  H17  1  0.23244241  0.33992200  0.64260776  1  0  0.094194  0.139321  0  1.018487  0
C  C18  1  0.00620660  0.01172594  0.58103482  1  0  -0.042633  -0.081967  0  4.086214  0
C  C19  1  0.49375343  0.43069124  0.41895282  1  0  -0.042199  -0.081696  0  4.088769  0
C  C20  1  0.99379078  0.98827853  0.41896479  1  0  -0.042677  -0.082307  0  4.085932  0
C  C21  1  0.50626244  0.56933370  0.58109217  1  0  -0.042133  -0.081617  0  4.088449  0
C  C22  1  0.15804763  0.94413410  0.66535173  1  0  -0.007658  -0.072433  0  4.014827  0
C  C23  1  0.34158956  0.27855189  0.33451266  1  0  -0.007364  -0.071296  0  4.01457  0
C  C24  1  0.84194670  0.05587785  0.33461738  1  0  -0.00766  -0.07231  0  4.01533  0
C  C25  1  0.65841518  0.72145451  0.66550224  1  0  -0.007386  -0.071254  0  4.015226  0
C  C26  1  0.87091412  0.10733967  0.69077560  1  0  0.078102  0.173693  0  3.966732  0
C  C27  1  0.62921562  0.41664457  0.30934133  1  0  0.078093  0.173019  0  3.96909  0
C  C28  1  0.12913459  0.89265364  0.30926118  1  0  0.077955  0.173369  0  3.967294  0
C  C29  1  0.37069563  0.58330558  0.69063673  1  0  0.078101  0.173154  0  3.968439  0
C  C30  1  0.68179717  0.21208556  0.67835980  1  0  -0.238725  -0.419664  0  3.963105  0
C  C31  1  0.81902531  0.53371647  0.32183097  1  0  -0.238497  -0.420258  0  3.962142  0
C  C32  1  0.31822680  0.78787835  0.32162702  1  0  -0.238626  -0.419589  0  3.963343  0
C  C33  1  0.18096369  0.46626041  0.67816002  1  0  -0.238653  -0.42051  0  3.963364  0
N  N34  1  0.11727898  0.99199628  0.81232292  1  0  -0.261486  -0.20793  0  3.478673  0
N  N35  1  0.38239250  0.17941118  0.18758104  1  0  -0.261211  -0.207064  0  3.479919  0
N  N36  1  0.88272300  0.00801630  0.18769425  1  0  -0.261596  -0.207955  0  3.479466  0
N  N37  1  0.61762539  0.82060797  0.81240349  1  0  -0.261083  -0.206811  0  3.480519  0
N  N38  1  0.94441286  0.09250291  0.82743084  1  0  -0.257372  -0.157482  0  3.627831  0
N  N39  1  0.55553364  0.26501129  0.17270522  1  0  -0.25755  -0.156937  0  3.630808  0
N  N40  1  0.05557133  0.90751490  0.17264037  1  0  -0.257073  -0.157021  0  3.627504  0
N  N41  1  0.44450251  0.73498669  0.82726225  1  0  -0.257587  -0.157312  0  3.630213  0
