# generated using pymatgen
data_NiH16C14(NO)4
_symmetry_space_group_name_H-M   'P 1'
_cell_length_a   8.38232314
_cell_length_b   8.42159018
_cell_length_c   11.79106630
_cell_angle_alpha   90.00024738
_cell_angle_beta   89.99738075
_cell_angle_gamma   113.19988201
_symmetry_Int_Tables_number   1
_chemical_formula_structural   NiH16C14(NO)4
_chemical_formula_sum   'Ni2 H32 C28 N8 O8'
_cell_volume   765.05283879
_cell_formula_units_Z   2
loop_
 _symmetry_equiv_pos_site_id
 _symmetry_equiv_pos_as_xyz
  1  'x, y, z'
loop_
 _atom_site_type_symbol
 _atom_site_label
 _atom_site_symmetry_multiplicity
 _atom_site_fract_x
 _atom_site_fract_y
 _atom_site_fract_z
 _atom_site_occupancy
 _atom_site_hle17_bader_spin_density
 _atom_site_hle17_ddec_charge
 _atom_site_hle17_ddec_spin_density
 _atom_site_hle17_ddec_sum_bond_order
 _atom_site_hle17_magmom
 _atom_site_hse06_10hf_bader_spin_density
 _atom_site_hse06_10hf_ddec_charge
 _atom_site_hse06_10hf_ddec_spin_density
 _atom_site_hse06_10hf_ddec_sum_bond_order
 _atom_site_hse06_10hf_magmom
 _atom_site_hse06_bader_spin_density
 _atom_site_hse06_ddec_charge
 _atom_site_hse06_ddec_spin_density
 _atom_site_hse06_ddec_sum_bond_order
 _atom_site_hse06_magmom
 _atom_site_pbe_bader_spin_density
 _atom_site_pbe_cm5_charge
 _atom_site_pbe_ddec_charge
 _atom_site_pbe_ddec_spin_density
 _atom_site_pbe_ddec_sum_bond_order
 _atom_site_pbe_magmom
Ni  Ni0  1  0.00000752  0.00000606  0.49999973  1  0  0.638572  0  2.280993  0  0  0.606242  0  2.748328  0  0  0.690351  0  2.661492  0  0  0.602737  0.557095  0  2.804344  0
Ni  Ni1  1  0.49999738  0.49999431  0.00000255  1  0  0.638446  0  2.281333  0  0  0.606167  0  2.748659  0  0  0.690239  0  2.661827  0  0  0.602731  0.557032  0  2.804666  0
H  H2  1  0.85655182  0.38161733  0.77602735  1  0  0.32374  0  0.938888  0  0  0.30472  0  0.998987  0  0  0.314419  0  0.991342  0  0  0.303856  0.297905  0  1.004374  0
H  H3  1  0.64342848  0.11837624  0.27602149  1  0  0.323811  0  0.938832  0  0  0.304779  0  0.99895  0  0  0.314479  0  0.991304  0  0  0.303873  0.297962  0  1.004344  0
H  H4  1  0.14345238  0.61838447  0.22397043  1  0  0.323781  0  0.938822  0  0  0.304759  0  0.998924  0  0  0.314458  0  0.991279  0  0  0.303859  0.297944  0  1.004309  0
H  H5  1  0.35656592  0.88161500  0.72398139  1  0  0.323936  0  0.938867  0  0  0.30489  0  0.99897  0  0  0.314593  0  0.991318  0  0  0.303918  0.298075  0  1.004361  0
H  H6  1  0.92391684  0.68177251  0.64735204  1  0  0.133333  0  0.941786  0  0  0.140921  0  1.006968  0  0  0.144813  0  1.003046  0  0  0.112857  0.137872  0  1.010257  0
H  H7  1  0.57606301  0.81823096  0.14735728  1  0  0.133241  0  0.941765  0  0  0.14087  0  1.006893  0  0  0.144758  0  1.002978  0  0  0.112859  0.137826  0  1.010171  0
H  H8  1  0.07609307  0.31823843  0.35265084  1  0  0.133268  0  0.941936  0  0  0.140907  0  1.007058  0  0  0.144799  0  1.00314  0  0  0.112836  0.137858  0  1.010346  0
H  H9  1  0.42391620  0.18175462  0.85265068  1  0  0.133287  0  0.941834  0  0  0.140865  0  1.007032  0  0  0.144758  0  1.003113  0  0  0.112848  0.137819  0  1.010314  0
H  H10  1  0.83247951  0.92386693  0.72913011  1  0  0.143098  0  0.931616  0  0  0.161798  0  0.99291  0  0  0.164724  0  0.990166  0  0  0.106791  0.159428  0  0.995244  0
H  H11  1  0.66751529  0.57613312  0.22912082  1  0  0.143149  0  0.931594  0  0  0.161821  0  0.992912  0  0  0.164746  0  0.990165  0  0  0.106838  0.159452  0  0.995246  0
H  H12  1  0.16751958  0.07613723  0.27086852  1  0  0.143092  0  0.931641  0  0  0.161793  0  0.992928  0  0  0.164719  0  0.990186  0  0  0.106794  0.159424  0  0.995261  0
H  H13  1  0.33247622  0.42385675  0.77088035  1  0  0.143207  0  0.931642  0  0  0.161824  0  0.992999  0  0  0.164743  0  0.990263  0  0  0.106844  0.159462  0  0.99533  0
H  H14  1  0.79016221  0.05664992  0.83316796  1  0  0.131862  0  0.954448  0  0  0.151052  0  1.014986  0  0  0.153318  0  1.014935  0  0  0.100591  0.149416  0  1.015082  0
H  H15  1  0.70983354  0.44334706  0.33315553  1  0  0.131833  0  0.954528  0  0  0.151066  0  1.015016  0  0  0.153334  0  1.014975  0  0  0.100603  0.149443  0  1.015099  0
H  H16  1  0.20983399  0.94335285  0.16682643  1  0  0.131924  0  0.954381  0  0  0.151109  0  1.01492  0  0  0.15338  0  1.014865  0  0  0.100616  0.149462  0  1.015023  0
H  H17  1  0.29016172  0.55665314  0.66684649  1  0  0.131829  0  0.954552  0  0  0.151059  0  1.015035  0  0  0.153327  0  1.014993  0  0  0.1006  0.149437  0  1.015119  0
H  H18  1  0.00407473  0.06444176  0.81574811  1  0  0.139638  0  0.923998  0  0  0.162098  0  0.979218  0  0  0.16521  0  0.977168  0  0  0.10632  0.159784  0  0.980793  0
H  H19  1  0.49591795  0.43556150  0.31574583  1  0  0.139655  0  0.923981  0  0  0.162132  0  0.979181  0  0  0.165244  0  0.977131  0  0  0.106335  0.159817  0  0.980764  0
H  H20  1  0.99591690  0.93555830  0.18425222  1  0  0.139619  0  0.924013  0  0  0.162085  0  0.979221  0  0  0.165197  0  0.977173  0  0  0.106282  0.159769  0  0.980801  0
H  H21  1  0.50408001  0.56443625  0.68425789  1  0  0.139664  0  0.92389  0  0  0.162136  0  0.979089  0  0  0.165248  0  0.977036  0  0  0.10634  0.159823  0  0.980671  0
H  H22  1  0.44938742  0.69775290  0.36827563  1  0  0.140543  0  0.938559  0  0  0.161186  0  0.996019  0  0  0.162939  0  0.996141  0  0  0.102872  0.159903  0  0.99594  0
H  H23  1  0.05058855  0.80224115  0.86827859  1  0  0.140544  0  0.938661  0  0  0.161194  0  0.996127  0  0  0.162948  0  0.996249  0  0  0.102874  0.159908  0  0.996049  0
H  H24  1  0.55063651  0.30224074  0.63171113  1  0  0.140571  0  0.938437  0  0  0.161168  0  0.995965  0  0  0.162912  0  0.996096  0  0  0.10286  0.159886  0  0.995884  0
H  H25  1  0.94939520  0.19777007  0.13171411  1  0  0.140677  0  0.938322  0  0  0.161293  0  0.995853  0  0  0.163049  0  0.995974  0  0  0.102862  0.160007  0  0.995776  0
H  H26  1  0.41139235  0.88643870  0.39618996  1  0  0.135729  0  0.949879  0  0  0.153679  0  1.009498  0  0  0.155005  0  1.010159  0  0  0.09747  0.152721  0  1.009058  0
H  H27  1  0.08858153  0.61356114  0.89619382  1  0  0.135667  0  0.949949  0  0  0.153686  0  1.009519  0  0  0.155009  0  1.010185  0  0  0.097499  0.152739  0  1.009057  0
H  H28  1  0.58861444  0.11355048  0.60380274  1  0  0.135831  0  0.949873  0  0  0.15374  0  1.009521  0  0  0.155067  0  1.010179  0  0  0.097533  0.152787  0  1.00908  0
H  H29  1  0.91141975  0.38646220  0.10380227  1  0  0.135815  0  0.949844  0  0  0.153787  0  1.009433  0  0  0.155112  0  1.010093  0  0  0.097553  0.152832  0  1.008996  0
H  H30  1  0.43034233  0.75519795  0.51094079  1  0  0.134822  0  0.950202  0  0  0.154214  0  1.009171  0  0  0.156593  0  1.008747  0  0  0.096233  0.15249  0  1.009493  0
H  H31  1  0.06960312  0.74478978  0.01094269  1  0  0.134757  0  0.950246  0  0  0.154198  0  1.009188  0  0  0.156577  0  1.008762  0  0  0.096196  0.152463  0  1.009525  0
H  H32  1  0.56966648  0.24478366  0.48904936  1  0  0.134681  0  0.950518  0  0  0.154133  0  1.009411  0  0  0.156512  0  1.008986  0  0  0.0962  0.152405  0  1.009736  0
H  H33  1  0.93040077  0.25523748  0.98905000  1  0  0.134756  0  0.950359  0  0  0.154197  0  1.009279  0  0  0.156577  0  1.008854  0  0  0.096207  0.152478  0  1.009596  0
C  C34  1  0.95274696  0.44092204  0.60748384  1  0  0.144899  0  3.843265  0  0  0.135961  0  4.094579  0  0  0.139188  0  4.118489  0  0  0.087406  0.13384  0  4.078375  0
C  C35  1  0.54725584  0.05908046  0.10747929  1  0  0.145005  0  3.843488  0  0  0.136074  0  4.094779  0  0  0.139312  0  4.118688  0  0  0.087456  0.133957  0  4.078566  0
C  C36  1  0.04727907  0.55909715  0.39251564  1  0  0.144859  0  3.843703  0  0  0.135942  0  4.094965  0  0  0.139184  0  4.118854  0  0  0.087378  0.133822  0  4.078762  0
C  C37  1  0.45271814  0.94089727  0.89252783  1  0  0.145021  0  3.843713  0  0  0.136215  0  4.094848  0  0  0.139472  0  4.118739  0  0  0.087484  0.134092  0  4.078641  0
C  C38  1  0.99510814  0.33851512  0.52590602  1  0  0.141733  0  3.833454  0  0  0.136689  0  4.08888  0  0  0.141344  0  4.113482  0  0  0.084319  0.13359  0  4.072673  0
C  C39  1  0.50488804  0.16148092  0.02589883  1  0  0.14173  0  3.833593  0  0  0.136706  0  4.08901  0  0  0.141341  0  4.113642  0  0  0.084256  0.133614  0  4.072788  0
C  C40  1  0.00490137  0.66148816  0.47409601  1  0  0.141767  0  3.833709  0  0  0.136785  0  4.088992  0  0  0.141435  0  4.113592  0  0  0.08438  0.133686  0  4.072785  0
C  C41  1  0.49509910  0.83851005  0.97411167  1  0  0.141677  0  3.834035  0  0  0.136576  0  4.089458  0  0  0.141209  0  4.114079  0  0  0.084176  0.133489  0  4.073237  0
C  C42  1  0.95538899  0.60415128  0.58458188  1  0  -0.212851  0  3.714862  0  0  -0.244946  0  3.979426  0  0  -0.247582  0  3.995208  0  0  -0.095155  -0.243349  0  3.969351  0
C  C43  1  0.54459948  0.89585490  0.08457814  1  0  -0.212813  0  3.715542  0  0  -0.244926  0  3.98017  0  0  -0.247554  0  3.995956  0  0  -0.095133  -0.243339  0  3.970093  0
C  C44  1  0.04461708  0.39585569  0.41541590  1  0  -0.212802  0  3.714785  0  0  -0.244938  0  3.979352  0  0  -0.247583  0  3.995132  0  0  -0.095155  -0.24334  0  3.969279  0
C  C45  1  0.45539660  0.10413769  0.91541794  1  0  -0.212763  0  3.714917  0  0  -0.244901  0  3.979514  0  0  -0.247543  0  3.995305  0  0  -0.095138  -0.243308  0  3.969437  0
C  C46  1  0.92108624  0.18890227  0.68459840  1  0  0.454774  0  3.676339  0  0  0.430532  0  3.954677  0  0  0.452656  0  3.96505  0  0  0.236555  0.415737  0  3.947624  0
C  C47  1  0.57890589  0.31110101  0.18459166  1  0  0.455102  0  3.676394  0  0  0.430726  0  3.954886  0  0  0.452875  0  3.965218  0  0  0.236644  0.415929  0  3.947838  0
C  C48  1  0.07891890  0.81110212  0.31540193  1  0  0.454874  0  3.676153  0  0  0.430596  0  3.954561  0  0  0.452736  0  3.964904  0  0  0.236568  0.415802  0  3.947507  0
C  C49  1  0.42108637  0.68888761  0.81541206  1  0  0.455048  0  3.67627  0  0  0.430677  0  3.954757  0  0  0.45284  0  3.965071  0  0  0.236596  0.415878  0  3.947711  0
C  C50  1  0.88440686  0.05055041  0.77059531  1  0  -0.394484  0  3.682091  0  0  -0.477403  0  3.922666  0  0  -0.481464  0  3.924012  0  0  -0.226164  -0.47447  0  3.922126  0
C  C51  1  0.61558734  0.44944762  0.27058767  1  0  -0.394593  0  3.682146  0  0  -0.477512  0  3.922777  0  0  -0.481582  0  3.924114  0  0  -0.226245  -0.474591  0  3.922228  0
C  C52  1  0.11558887  0.94945107  0.22940417  1  0  -0.394583  0  3.6821  0  0  -0.477478  0  3.922639  0  0  -0.48155  0  3.923969  0  0  -0.226163  -0.474531  0  3.922111  0
C  C53  1  0.38440558  0.55054612  0.72941605  1  0  -0.394636  0  3.682198  0  0  -0.477491  0  3.92283  0  0  -0.48156  0  3.924163  0  0  -0.226253  -0.47458  0  3.922284  0
C  C54  1  0.47907055  0.80702880  0.42702567  1  0  -0.451872  0  3.656867  0  0  -0.527467  0  3.8865  0  0  -0.535226  0  3.890605  0  0  -0.246242  -0.52169  0  3.883321  0
C  C55  1  0.02089895  0.69296778  0.92702937  1  0  -0.451627  0  3.657282  0  0  -0.527393  0  3.886837  0  0  -0.535148  0  3.890942  0  0  -0.246197  -0.521609  0  3.883672  0
C  C56  1  0.52094490  0.19296452  0.57296363  1  0  -0.451764  0  3.656904  0  0  -0.527342  0  3.8866  0  0  -0.53509  0  3.890707  0  0  -0.246238  -0.521568  0  3.883426  0
C  C57  1  0.97909373  0.30704505  0.07296248  1  0  -0.451871  0  3.656833  0  0  -0.527556  0  3.886486  0  0  -0.535314  0  3.890592  0  0  -0.246222  -0.521787  0  3.88331  0
C  C58  1  0.67273110  0.91077510  0.42758830  1  0  0.72014  0  3.831039  0  0  0.687624  0  4.127436  0  0  0.72397  0  4.121257  0  0  0.208599  0.662696  0  4.131126  0
C  C59  1  0.82724745  0.58922210  0.92760298  1  0  0.719622  0  3.831215  0  0  0.687225  0  4.127454  0  0  0.723568  0  4.121291  0  0  0.208391  0.662295  0  4.131137  0
C  C60  1  0.32728111  0.08922574  0.57241033  1  0  0.719991  0  3.830986  0  0  0.687467  0  4.127383  0  0  0.723811  0  4.121205  0  0  0.208696  0.662539  0  4.131069  0
C  C61  1  0.17274922  0.41078197  0.07240159  1  0  0.719753  0  3.831279  0  0  0.687334  0  4.12755  0  0  0.72368  0  4.121379  0  0  0.208438  0.662404  0  4.131237  0
N  N62  1  0.90945087  0.34272232  0.70547049  1  0  -0.410623  0  3.349716  0  0  -0.350936  0  3.575326  0  0  -0.370497  0  3.58661  0  0  -0.381728  -0.337855  0  3.567573  0
N  N63  1  0.59054264  0.15728192  0.20546813  1  0  -0.410852  0  3.349922  0  0  -0.351083  0  3.575516  0  0  -0.370658  0  3.586794  0  0  -0.381731  -0.338001  0  3.567759  0
N  N64  1  0.09054728  0.65727926  0.29452984  1  0  -0.410657  0  3.350045  0  0  -0.350994  0  3.575695  0  0  -0.370555  0  3.586955  0  0  -0.381712  -0.337911  0  3.567939  0
N  N65  1  0.40944368  0.84271666  0.79453305  1  0  -0.411096  0  3.349953  0  0  -0.351353  0  3.575517  0  0  -0.370955  0  3.586807  0  0  -0.381794  -0.338268  0  3.567766  0
N  N66  1  0.97263838  0.18258331  0.57763776  1  0  -0.410958  0  3.298074  0  0  -0.370287  0  3.598085  0  0  -0.402116  0  3.609245  0  0  -0.368101  -0.351076  0  3.591525  0
N  N67  1  0.52736805  0.31741731  0.07763017  1  0  -0.411103  0  3.298151  0  0  -0.370444  0  3.598278  0  0  -0.402263  0  3.60942  0  0  -0.368187  -0.351233  0  3.591707  0
N  N68  1  0.02736965  0.81742247  0.42236512  1  0  -0.410933  0  3.297952  0  0  -0.370281  0  3.597987  0  0  -0.402116  0  3.609142  0  0  -0.368105  -0.351071  0  3.591432  0
N  N69  1  0.47261963  0.68256859  0.92237440  1  0  -0.410874  0  3.297813  0  0  -0.370185  0  3.597898  0  0  -0.402002  0  3.609031  0  0  -0.368023  -0.350976  0  3.591327  0
O  O70  1  0.74304090  0.02584792  0.35418318  1  0  -0.628438  0  1.957139  0  0  -0.590921  0  2.186865  0  0  -0.616742  0  2.177587  0  0  -0.318471  -0.573178  0  2.192947  0
O  O71  1  0.75691846  0.47412821  0.85419758  1  0  -0.62834  0  1.956664  0  0  -0.590856  0  2.186311  0  0  -0.616677  0  2.177036  0  0  -0.318457  -0.573113  0  2.192389  0
O  O72  1  0.25696638  0.97415910  0.64582309  1  0  -0.628515  0  1.957049  0  0  -0.590926  0  2.18669  0  0  -0.616744  0  2.177409  0  0  -0.318578  -0.573185  0  2.192771  0
O  O73  1  0.24308395  0.52586207  0.14581123  1  0  -0.628421  0  1.957006  0  0  -0.590892  0  2.186624  0  0  -0.616721  0  2.17736  0  0  -0.318455  -0.573148  0  2.192696  0
O  O74  1  0.75848578  0.87043966  0.50577063  1  0  -0.554411  0  2.081652  0  0  -0.521716  0  2.356831  0  0  -0.565808  0  2.348032  0  0  -0.309421  -0.492396  0  2.362095  0
O  O75  1  0.74150217  0.62958061  0.00577940  1  0  -0.554047  0  2.081996  0  0  -0.521387  0  2.357097  0  0  -0.56547  0  2.348308  0  0  -0.309236  -0.492074  0  2.362355  0
O  O76  1  0.24152690  0.12956247  0.49423140  1  0  -0.554323  0  2.081751  0  0  -0.521629  0  2.356939  0  0  -0.56572  0  2.348141  0  0  -0.309448  -0.492309  0  2.362202  0
O  O77  1  0.25849431  0.37041962  0.99422517  1  0  -0.554121  0  2.081988  0  0  -0.521453  0  2.35711  0  0  -0.565535  0  2.348312  0  0  -0.309278  -0.492139  0  2.362373  0
