# generated using pymatgen
data_Cu2Mo4H16C24N6O13
_symmetry_space_group_name_H-M   'P 1'
_cell_length_a   11.35193430
_cell_length_b   12.09933902
_cell_length_c   12.45288403
_cell_angle_alpha   114.88330150
_cell_angle_beta   103.19902560
_cell_angle_gamma   93.54384977
_symmetry_Int_Tables_number   1
_chemical_formula_structural   Cu2Mo4H16C24N6O13
_chemical_formula_sum   'Cu4 Mo8 H32 C48 N12 O26'
_cell_volume   1486.30681806
_cell_formula_units_Z   2
loop_
 _symmetry_equiv_pos_site_id
 _symmetry_equiv_pos_as_xyz
  1  'x, y, z'
loop_
 _atom_site_type_symbol
 _atom_site_label
 _atom_site_symmetry_multiplicity
 _atom_site_fract_x
 _atom_site_fract_y
 _atom_site_fract_z
 _atom_site_occupancy
 _atom_site_pbe_bader_charge
 _atom_site_pbe_bader_spin_density
 _atom_site_pbe_cm5_charge
 _atom_site_pbe_ddec_charge
 _atom_site_pbe_ddec_spin_density
 _atom_site_pbe_ddec_sum_bond_order
 _atom_site_pbe_magmom
Cu  Cu0  1  0.44168285  0.82216682  0.16741626  1  0.822246  0  0.578508  0.574991  0  2.296056  0
Cu  Cu1  1  0.55831835  0.17783417  0.83257987  1  0.822286  0  0.578494  0.574983  0  2.296039  0
Cu  Cu2  1  0.54173796  0.13670809  0.31502214  1  0.771677  0  0.610802  0.346534  0  2.423824  0
Cu  Cu3  1  0.45825912  0.86329012  0.68497360  1  0.77169  0  0.610799  0.346508  0  2.423936  0
Mo  Mo4  1  0.31025137  0.52684805  0.93525765  1  2.570537  0  1.517255  2.129788  0  4.640519  0
Mo  Mo5  1  0.68973788  0.47314183  0.06474106  1  2.570906  0  1.517297  2.129824  0  4.64069  0
Mo  Mo6  1  0.00929915  0.37739226  0.71370319  1  2.599094  0  1.509083  2.160488  0  4.606148  0
Mo  Mo7  1  0.99068831  0.62261336  0.28631281  1  2.59867  0  1.509249  2.160594  0  4.606334  0
Mo  Mo8  1  0.25934725  0.61152264  0.21758882  1  2.605928  0  1.506003  2.161822  0  4.577757  0
Mo  Mo9  1  0.74065049  0.38847928  0.78240696  1  2.606363  0  1.505868  2.161701  0  4.577614  0
Mo  Mo10  1  0.99730895  0.66095940  0.01460835  1  2.567189  0  1.508657  2.139934  0  4.750272  0
Mo  Mo11  1  0.00268459  0.33904436  0.98538890  1  2.567421  0  1.508481  2.139744  0  4.750561  0
H  H12  1  0.24447264  0.88822873  0.29398947  1  0.102904  0  0.11442  0.095074  0  1.024659  0
H  H13  1  0.75553377  0.11176579  0.70599870  1  0.103273  0  0.114407  0.095052  0  1.024682  0
H  H14  1  0.08911101  0.02696560  0.30471820  1  0.065459  0  0.106817  0.10596  0  1.029868  0
H  H15  1  0.91088986  0.97302337  0.69527778  1  0.066031  0  0.106805  0.105968  0  1.03002  0
H  H16  1  0.06440949  0.13290896  0.16576760  1  0.122927  0  0.109604  0.11386  0  1.024882  0
H  H17  1  0.93559744  0.86709390  0.83423853  1  0.123218  0  0.109641  0.113862  0  1.024903  0
H  H18  1  0.20545706  0.10658905  0.03554408  1  0.104545  0  0.1101  0.125756  0  1.013164  0
H  H19  1  0.79454766  0.89341657  0.96445951  1  0.104659  0  0.1101  0.125664  0  1.013215  0
H  H20  1  0.17372212  0.82217787  0.92986143  1  0.113761  0  0.107179  0.118252  0  1.050595  0
H  H21  1  0.82628975  0.17782221  0.07014381  1  0.113777  0  0.107126  0.118245  0  1.050611  0
H  H22  1  0.00024386  0.68221889  0.75114780  1  0.131739  0  0.112944  0.119126  0  1.00466  0
H  H23  1  0.99976240  0.31778026  0.24885990  1  0.131824  0  0.112921  0.119114  0  1.004717  0
H  H24  1  0.01961667  0.62104577  0.53755019  1  0.146674  0  0.111646  0.124829  0  1.033784  0
H  H25  1  0.98038629  0.37895523  0.46246157  1  0.146637  0  0.111631  0.124852  0  1.03367  0
H  H26  1  0.21544466  0.69776996  0.51290597  1  0.121902  0  0.115284  0.08441  0  1.035078  0
H  H27  1  0.78454890  0.30222362  0.48708472  1  0.12197  0  0.115303  0.084443  0  1.035081  0
H  H28  1  0.66343392  0.79289101  0.06689919  1  0.107099  0  0.124982  0.104444  0  0.960028  0
H  H29  1  0.33656446  0.20711461  0.93310225  1  0.10709  0  0.124982  0.104434  0  0.959983  0
H  H30  1  0.88570354  0.89189518  0.15631715  1  0.116909  0  0.105548  0.106692  0  1.046853  0
H  H31  1  0.11429485  0.10811044  0.84368269  1  0.116881  0  0.105579  0.106723  0  1.04681  0
H  H32  1  0.96721550  0.02300763  0.38871181  1  0.067607  0  0.109785  0.104628  0  1.010636  0
H  H33  1  0.03278024  0.97699336  0.61128959  1  0.067557  0  0.109779  0.10461  0  1.010638  0
H  H34  1  0.82368792  0.04344542  0.51645090  1  0.094039  0  0.114438  0.132718  0  0.987571  0
H  H35  1  0.17630742  0.95654816  0.48354900  1  0.093982  0  0.114408  0.132716  0  0.987569  0
H  H36  1  0.68173621  0.73845832  0.35678331  1  0.121732  0  0.110545  0.127737  0  1.027766  0
H  H37  1  0.31826761  0.26154730  0.64321848  1  0.121743  0  0.110556  0.12777  0  1.027682  0
H  H38  1  0.75628683  0.56227990  0.38384500  1  0.121778  0  0.109508  0.105981  0  1.010826  0
H  H39  1  0.24372216  0.43772944  0.61616099  1  0.121605  0  0.109496  0.105964  0  1.010739  0
H  H40  1  0.71064850  0.51697108  0.55324309  1  0.14905  0  0.10988  0.133105  0  1.025937  0
H  H41  1  0.28937183  0.48304104  0.44676725  1  0.149043  0  0.109881  0.133126  0  1.026008  0
H  H42  1  0.58510478  0.64486169  0.67752498  1  0.106159  0  0.120383  0.096087  0  0.978065  0
H  H43  1  0.41490825  0.35514487  0.32247994  1  0.10653  0  0.1204  0.096114  0  0.977963  0
C  C44  1  0.23522580  0.94086606  0.24084836  1  0.47409  0  0.041139  0.095629  0  3.937185  0
C  C45  1  0.76478059  0.05912846  0.75914462  1  0.473674  0  0.041079  0.095474  0  3.937355  0
C  C46  1  0.14700054  0.01585641  0.24373742  1  0.014638  0  -0.078971  -0.121396  0  3.966437  0
C  C47  1  0.85300691  0.98413904  0.75625857  1  0.014118  0  -0.078959  -0.121372  0  3.966727  0
C  C48  1  0.13376264  0.07529475  0.16834221  1  -0.006374  0  -0.058826  0.00461  0  3.906446  0
C  C49  1  0.86624579  0.92470625  0.83165867  1  -0.007316  0  -0.058813  0.004604  0  3.906493  0
C  C50  1  0.21264196  0.06030095  0.09448873  1  0.000858  0  -0.076931  -0.144854  0  3.905988  0
C  C51  1  0.78736335  0.93970282  0.90551021  1  0.001234  0  -0.076913  -0.144702  0  3.905915  0
C  C52  1  0.30217347  0.98778778  0.10030268  1  0.429201  0  0.113866  0.162708  0  4.033369  0
C  C53  1  0.69783136  0.01221322  0.89969262  1  0.42914  0  0.113883  0.162734  0  4.033249  0
C  C54  1  0.40256623  0.98591173  0.04152605  1  0.50068  0  0.12932  0.107922  0  3.965409  0
C  C55  1  0.59744114  0.01408834  0.95847101  1  0.500278  0  0.129313  0.107901  0  3.965494  0
C  C56  1  0.39284014  0.92574534  0.91461983  1  0.503202  0  0.120397  0.110736  0  3.940025  0
C  C57  1  0.60716002  0.07424454  0.08536513  1  0.502876  0  0.120458  0.110853  0  3.940055  0
C  C58  1  0.28560045  0.84039189  0.81637450  1  0.519546  0  0.108252  0.167317  0  3.984332  0
C  C59  1  0.71440506  0.15960262  0.18361428  1  0.519628  0  0.108179  0.167251  0  3.984129  0
C  C60  1  0.18018538  0.79700723  0.83719051  1  -0.100423  0  -0.078913  -0.145431  0  3.92688  0
C  C61  1  0.81982197  0.20299285  0.16281297  1  -0.100735  0  -0.078883  -0.145419  0  3.927054  0
C  C62  1  0.08256727  0.71836361  0.73717187  1  0.033026  0  -0.066513  -0.016376  0  3.938444  0
C  C63  1  0.91743916  0.28163647  0.26283463  1  0.03336  0  -0.066421  -0.016314  0  3.93862  0
C  C64  1  0.09298331  0.68325530  0.61858174  1  -0.036699  0  -0.074056  -0.093297  0  3.910785  0
C  C65  1  0.90701252  0.31674107  0.38141700  1  -0.036654  0  -0.074058  -0.093304  0  3.91085  0
C  C66  1  0.20231798  0.72577571  0.60409316  1  0.46288  0  0.048  0.096663  0  3.925129  0
C  C67  1  0.79767859  0.27421973  0.39590696  1  0.4624  0  0.04792  0.096601  0  3.92518  0
C  C68  1  0.70261182  0.85098264  0.16572939  1  0.407873  0  0.049386  0.102789  0  3.904927  0
C  C69  1  0.29738443  0.14902113  0.83426924  1  0.40872  0  0.049396  0.102808  0  3.90487  0
C  C70  1  0.82650532  0.90545954  0.21672140  1  0.050984  0  -0.077666  -0.103618  0  3.942746  0
C  C71  1  0.17349240  0.09454238  0.78327920  1  0.050949  0  -0.077728  -0.103688  0  3.942777  0
C  C72  1  0.87203733  0.97564385  0.34412825  1  -0.041357  0  -0.062075  -0.00758  0  3.929807  0
C  C73  1  0.12795949  0.02435807  0.65587216  1  -0.04139  0  -0.062055  -0.007591  0  3.929674  0
C  C74  1  0.79256064  0.98737830  0.41677746  1  -0.020169  0  -0.073916  -0.142171  0  3.914184  0
C  C75  1  0.20743685  0.01261714  0.58321964  1  -0.020448  0  -0.073878  -0.142136  0  3.913943  0
C  C76  1  0.66957933  0.93215055  0.35876087  1  0.545831  0  0.112128  0.158973  0  4.033067  0
C  C77  1  0.33041577  0.06784674  0.64123487  1  0.546381  0  0.112122  0.159016  0  4.032946  0
C  C78  1  0.57877249  0.95940068  0.43142184  1  0.526646  0  0.131219  0.118619  0  3.940563  0
C  C79  1  0.42122055  0.04060031  0.56857578  1  0.526637  0  0.131167  0.118572  0  3.940613  0
C  C80  1  0.55214174  0.90025081  0.50153741  1  0.543035  0  0.122077  0.116454  0  3.917938  0
C  C81  1  0.44785367  0.09974833  0.49846397  1  0.542779  0  0.122078  0.116479  0  3.917898  0
C  C82  1  0.59840967  0.79135823  0.50744224  1  0.435905  0  0.112008  0.166242  0  3.961871  0
C  C83  1  0.40159216  0.20864647  0.49256197  1  0.436145  0  0.11198  0.166029  0  3.96189  0
C  C84  1  0.66415831  0.71925203  0.42976361  1  0.034669  0  -0.068545  -0.116653  0  3.882025  0
C  C85  1  0.33584056  0.28075637  0.57023907  1  0.034666  0  -0.068596  -0.116735  0  3.882249  0
C  C86  1  0.70501426  0.61885925  0.44411290  1  -0.014992  0  -0.059812  -0.010985  0  3.925815  0
C  C87  1  0.29499622  0.38114823  0.55589025  1  -0.014713  0  -0.059821  -0.010891  0  3.92595  0
C  C88  1  0.67898588  0.59229580  0.53552545  1  -0.06174  0  -0.075378  -0.108402  0  3.918664  0
C  C89  1  0.32102451  0.40771632  0.46448118  1  -0.06168  0  -0.075293  -0.108363  0  3.918684  0
C  C90  1  0.60938306  0.66523776  0.60715507  1  0.474974  0  0.049908  0.098097  0  3.933718  0
C  C91  1  0.39062519  0.33476232  0.39284860  1  0.474596  0  0.049871  0.098002  0  3.933762  0
N  N92  1  0.31347791  0.92765948  0.17121155  1  -1.193799  0  -0.35835  -0.275516  0  3.653445  0
N  N93  1  0.68652553  0.07233873  0.82878071  1  -1.193646  0  -0.358414  -0.275545  0  3.653411  0
N  N94  1  0.50853195  0.05684585  0.12473270  1  -1.192572  0  -0.330706  -0.265069  0  3.596642  0
N  N95  1  0.49146844  0.94315051  0.87525977  1  -1.192762  0  -0.330801  -0.265159  0  3.596592  0
N  N96  1  0.29723484  0.80251641  0.70012175  1  -1.21174  0  -0.357329  -0.253462  0  3.622425  0
N  N97  1  0.70276661  0.19748089  0.29987292  1  -1.211318  0  -0.357305  -0.253525  0  3.622228  0
N  N98  1  0.62328323  0.86668716  0.23479111  1  -1.199125  0  -0.355424  -0.278896  0  3.652176  0
N  N99  1  0.37671466  0.13331569  0.76520830  1  -1.200068  0  -0.355406  -0.278883  0  3.652014  0
N  N100  1  0.52619582  0.05532250  0.42906144  1  -1.208474  0  -0.326014  -0.255389  0  3.578433  0
N  N101  1  0.47379804  0.94467294  0.57093649  1  -1.208254  0  -0.326013  -0.255418  0  3.57842  0
N  N102  1  0.56889851  0.76213999  0.59391526  1  -1.20878  0  -0.354608  -0.255345  0  3.622424  0
N  N103  1  0.43110456  0.23786656  0.40608755  1  -1.209165  0  -0.354562  -0.255155  0  3.62258  0
O  O104  1  0.39310525  0.67646775  0.99166857  1  -0.919205  0  -0.563465  -0.749363  0  1.921006  0
O  O105  1  0.60687475  0.32353138  0.00833678  1  -0.91942  0  -0.563444  -0.749348  0  1.921111  0
O  O106  1  0.39701242  0.42520571  0.86265100  1  -0.82524  0  -0.51261  -0.670762  0  1.679871  0
O  O107  1  0.60299333  0.57479067  0.13736027  1  -0.825033  0  -0.512607  -0.67077  0  1.679973  0
O  O108  1  0.16495162  0.49577137  0.81373433  1  -1.050349  0  -0.602729  -0.901269  0  2.073421  0
O  O109  1  0.83504926  0.50421759  0.18625682  1  -1.050235  0  -0.602764  -0.901295  0  2.073351  0
O  O110  1  0.95373705  0.46698047  0.64391761  1  -0.816526  0  -0.503886  -0.661896  0  1.753494  0
O  O111  1  0.04626470  0.53301867  0.35608512  1  -0.816462  0  -0.503875  -0.661859  0  1.753412  0
O  O112  1  0.05451959  0.25971775  0.60361881  1  -0.815202  0  -0.518882  -0.667972  0  1.635035  0
O  O113  1  0.94547315  0.74027120  0.39637062  1  -0.815208  0  -0.518958  -0.667963  0  1.63572  0
O  O114  1  0.92633822  0.51314728  0.87913484  1  -1.11191  0  -0.602729  -1.002183  0  2.172202  0
O  O115  1  0.07364964  0.48686018  0.12086112  1  -1.111771  0  -0.602739  -1.002145  0  2.172175  0
O  O116  1  0.84988042  0.29424364  0.69901331  1  -1.028103  0  -0.597507  -0.888334  0  2.008298  0
O  O117  1  0.15011640  0.70575828  0.30098710  1  -1.027936  0  -0.597505  -0.888365  0  2.008059  0
O  O118  1  0.31356711  0.54271293  0.30914957  1  -0.801285  0  -0.502688  -0.635146  0  1.64525  0
O  O119  1  0.68641684  0.45727230  0.69083408  1  -0.801491  0  -0.502624  -0.635107  0  1.64528  0
O  O120  1  0.29578713  0.49595644  0.06559310  1  -1.009239  0  -0.587366  -0.851996  0  2.005599  0
O  O121  1  0.70419216  0.50403343  0.93440270  1  -1.009358  0  -0.587366  -0.851977  0  2.005589  0
O  O122  1  0.37794736  0.73272674  0.25781033  1  -0.887201  0  -0.539906  -0.719326  0  2.00773  0
O  O123  1  0.62205277  0.26726314  0.74218586  1  -0.887314  0  -0.539828  -0.719252  0  2.007649  0
O  O124  1  0.06526324  0.31993937  0.86052798  1  -1.011449  0  -0.580765  -0.86951  0  2.016237  0
O  O125  1  0.93472502  0.68006532  0.13947416  1  -1.011392  0  -0.580767  -0.869561  0  2.015947  0
O  O126  1  0.15901442  0.66977444  0.06141884  1  -1.015223  0  -0.57086  -0.882415  0  2.012692  0
O  O127  1  0.84097792  0.33022285  0.93858917  1  -1.015296  0  -0.570721  -0.882296  0  2.012835  0
O  O128  1  0.96770606  0.78127142  0.97789709  1  -0.901612  0  -0.543619  -0.724301  0  1.674896  0
O  O129  1  0.03230163  0.21874626  0.02212649  1  -0.901872  0  -0.543554  -0.72426  0  1.674648  0
