# generated using pymatgen
data_CdH12C20(NO2)2
_symmetry_space_group_name_H-M   'P 1'
_cell_length_a   9.65585776
_cell_length_b   11.43944486
_cell_length_c   18.09049727
_cell_angle_alpha   95.76491770
_cell_angle_beta   89.99961193
_cell_angle_gamma   90.00020966
_symmetry_Int_Tables_number   1
_chemical_formula_structural   CdH12C20(NO2)2
_chemical_formula_sum   'Cd4 H48 C80 N8 O16'
_cell_volume   1988.12759083
_cell_formula_units_Z   4
loop_
 _symmetry_equiv_pos_site_id
 _symmetry_equiv_pos_as_xyz
  1  'x, y, z'
loop_
 _atom_site_type_symbol
 _atom_site_label
 _atom_site_symmetry_multiplicity
 _atom_site_fract_x
 _atom_site_fract_y
 _atom_site_fract_z
 _atom_site_occupancy
 _atom_site_pbe_bader_charge
 _atom_site_pbe_bader_spin_density
 _atom_site_pbe_cm5_charge
 _atom_site_pbe_ddec_charge
 _atom_site_pbe_ddec_spin_density
 _atom_site_pbe_ddec_sum_bond_order
 _atom_site_pbe_magmom
Cd  Cd0  1  0.22894124  0.83853810  0.21551281  1  1.271252  0  0.768906  0.871984  0  2.199586  0
Cd  Cd1  1  0.22895070  0.16146446  0.28448968  1  1.271123  0  0.768885  0.871892  0  2.199651  0
Cd  Cd2  1  0.77105462  0.16145679  0.78448491  1  1.271185  0  0.768912  0.871958  0  2.199623  0
Cd  Cd3  1  0.77105241  0.83854124  0.71552328  1  1.271239  0  0.768971  0.872064  0  2.199598  0
H  H4  1  0.87183509  0.59588649  0.10910782  1  0.074735  0  0.099197  0.099589  0  1.032828  0
H  H5  1  0.87185458  0.40412681  0.39088551  1  0.073913  0  0.099222  0.099623  0  1.032823  0
H  H6  1  0.12815145  0.40410230  0.89088830  1  0.074344  0  0.09915  0.099514  0  1.032852  0
H  H7  1  0.12813507  0.59588252  0.60912498  1  0.073707  0  0.099145  0.099553  0  1.032746  0
H  H8  1  0.23830615  0.56843569  0.97518916  1  0.100639  0  0.100036  0.099328  0  1.025085  0
H  H9  1  0.23829637  0.43155484  0.52482032  1  0.100396  0  0.100024  0.099294  0  1.025205  0
H  H10  1  0.76167936  0.43154871  0.02480661  1  0.100361  0  0.099996  0.099224  0  1.025106  0
H  H11  1  0.76169638  0.56845725  0.47518763  1  0.100434  0  0.100051  0.099275  0  1.025226  0
H  H12  1  0.20557427  0.89886539  0.04700308  1  0.117903  0  0.101702  0.108575  0  1.033115  0
H  H13  1  0.20555848  0.10112913  0.45300051  1  0.118068  0  0.101752  0.108616  0  1.0332  0
H  H14  1  0.79446198  0.10113273  0.95300153  1  0.118064  0  0.10174  0.108583  0  1.033168  0
H  H15  1  0.79445084  0.89886628  0.54700555  1  0.118152  0  0.10169  0.10854  0  1.033289  0
H  H16  1  0.89251921  0.16696766  0.07839349  1  0.100354  0  0.102889  0.106459  0  1.010919  0
H  H17  1  0.89249045  0.83303476  0.42160830  1  0.10013  0  0.102817  0.106311  0  1.011124  0
H  H18  1  0.10751704  0.83302517  0.92161126  1  0.100436  0  0.102808  0.106327  0  1.011006  0
H  H19  1  0.10751369  0.16695893  0.57839706  1  0.100512  0  0.102797  0.106303  0  1.011134  0
H  H20  1  0.17198913  0.63237475  0.32792608  1  0.084771  0  0.121726  0.097636  0  0.97719  0
H  H21  1  0.17200718  0.36763636  0.17207951  1  0.084655  0  0.121786  0.097767  0  0.977246  0
H  H22  1  0.82799845  0.36762472  0.67206758  1  0.084972  0  0.121748  0.097704  0  0.977234  0
H  H23  1  0.82798143  0.63237292  0.82793208  1  0.085155  0  0.121836  0.097789  0  0.977324  0
H  H24  1  0.30687644  0.48284731  0.39323411  1  0.145432  0  0.105477  0.117953  0  1.056174  0
H  H25  1  0.30689497  0.51715468  0.10676529  1  0.145362  0  0.105496  0.11801  0  1.056124  0
H  H26  1  0.69310802  0.51715291  0.60676237  1  0.145337  0  0.105478  0.118003  0  1.05613  0
H  H27  1  0.69308847  0.48284101  0.89323415  1  0.145229  0  0.105482  0.118007  0  1.055926  0
H  H28  1  0.56360253  0.48107203  0.38373363  1  0.080255  0  0.114645  0.117684  0  0.969222  0
H  H29  1  0.56362093  0.51892644  0.11625961  1  0.080406  0  0.11462  0.117592  0  0.969294  0
H  H30  1  0.43638090  0.51893063  0.61626803  1  0.080109  0  0.11464  0.117641  0  0.969235  0
H  H31  1  0.43635939  0.48106718  0.88372640  1  0.08015  0  0.114602  0.117577  0  0.969232  0
H  H32  1  0.78034195  0.56629891  0.33323880  1  0.099144  0  0.103413  0.105595  0  1.026715  0
H  H33  1  0.78035207  0.43369479  0.16675439  1  0.098938  0  0.103417  0.105624  0  1.026758  0
H  H34  1  0.21964874  0.43369568  0.66676608  1  0.099069  0  0.103393  0.105544  0  1.026773  0
H  H35  1  0.21963861  0.56631380  0.83323170  1  0.098869  0  0.103395  0.105572  0  1.026864  0
H  H36  1  0.89092849  0.70588327  0.25442362  1  0.111303  0  0.111516  0.136671  0  1.012154  0
H  H37  1  0.89093179  0.29410916  0.24556410  1  0.111188  0  0.111543  0.136587  0  1.012345  0
H  H38  1  0.10907255  0.29410702  0.74557871  1  0.111256  0  0.111547  0.136637  0  1.012289  0
H  H39  1  0.10906821  0.70589784  0.75441799  1  0.111119  0  0.111571  0.136605  0  1.012277  0
H  H40  1  0.45640095  0.99465638  0.13151682  1  0.092812  0  0.119115  0.096199  0  0.98731  0
H  H41  1  0.45639931  0.00535117  0.36848471  1  0.092791  0  0.11911  0.096199  0  0.987218  0
H  H42  1  0.54361459  0.00534378  0.86848132  1  0.092488  0  0.11915  0.096271  0  0.987117  0
H  H43  1  0.54361312  0.99465587  0.63151729  1  0.092559  0  0.119137  0.096205  0  0.987218  0
H  H44  1  0.71440294  0.00194459  0.10882534  1  0.089261  0  0.106975  0.113732  0  1.015926  0
H  H45  1  0.71440430  0.99805324  0.39117063  1  0.089308  0  0.106929  0.113609  0  1.016016  0
H  H46  1  0.28561467  0.99804921  0.89117727  1  0.089443  0  0.10689  0.113593  0  1.016022  0
H  H47  1  0.28561331  0.00196113  0.60882478  1  0.089324  0  0.106854  0.113558  0  1.015998  0
H  H48  1  0.86837106  0.86165590  0.16954273  1  0.123918  0  0.113632  0.128655  0  1.005145  0
H  H49  1  0.86837568  0.13833377  0.33044651  1  0.123947  0  0.113645  0.128692  0  1.005088  0
H  H50  1  0.13164137  0.13832831  0.83045745  1  0.12415  0  0.113678  0.128779  0  1.005103  0
H  H51  1  0.13162951  0.86167559  0.66954242  1  0.124024  0  0.113659  0.128724  0  1.005057  0
C  C52  1  0.13028653  0.68470411  0.09780184  1  1.554658  0  0.186602  0.542913  0  4.255762  0
C  C53  1  0.13029098  0.31529658  0.40219753  1  1.555602  0  0.186608  0.543053  0  4.255642  0
C  C54  1  0.86970415  0.31528470  0.90219373  1  1.555348  0  0.186664  0.542957  0  4.255498  0
C  C55  1  0.86969141  0.68470935  0.59780992  1  1.556238  0  0.186646  0.543002  0  4.255458  0
C  C56  1  0.06127260  0.59092329  0.04665889  1  -0.066663  0  -0.0158  -0.017228  0  3.957686  0
C  C57  1  0.06127472  0.40907977  0.45334313  1  -0.066405  0  -0.015846  -0.017458  0  3.958005  0
C  C58  1  0.93872016  0.40906563  0.95333393  1  -0.067003  0  -0.015905  -0.017407  0  3.957793  0
C  C59  1  0.93870975  0.59092783  0.54666667  1  -0.067056  0  -0.015875  -0.017495  0  3.957664  0
C  C60  1  0.92667871  0.55303393  0.06108997  1  0.015573  0  -0.088029  -0.100909  0  3.976425  0
C  C61  1  0.92668532  0.44697325  0.43890545  1  0.016402  0  -0.088115  -0.10095  0  3.976457  0
C  C62  1  0.07330990  0.44695231  0.93890374  1  0.01582  0  -0.087873  -0.100611  0  3.976143  0
C  C63  1  0.07329915  0.55303616  0.56110339  1  0.016567  0  -0.087892  -0.100626  0  3.975623  0
C  C64  1  0.13389271  0.53724776  0.98521393  1  -0.084817  0  -0.087945  -0.106305  0  3.993379  0
C  C65  1  0.13389356  0.46274006  0.51479127  1  -0.084835  0  -0.087884  -0.106167  0  3.993394  0
C  C66  1  0.86609693  0.46273761  0.01477971  1  -0.084608  0  -0.087839  -0.106067  0  3.99329  0
C  C67  1  0.86609401  0.53726676  0.48521625  1  -0.084734  0  -0.087834  -0.105994  0  3.99326  0
C  C68  1  0.11097330  0.07744389  0.14530017  1  1.521946  0  0.198027  0.563447  0  4.205079  0
C  C69  1  0.11094685  0.92256387  0.35469763  1  1.52145  0  0.1982  0.563687  0  4.205061  0
C  C70  1  0.88905673  0.92255236  0.85470706  1  1.521656  0  0.198107  0.563599  0  4.205202  0
C  C71  1  0.88905419  0.07744333  0.64530053  1  1.521316  0  0.198223  0.56371  0  4.205098  0
C  C72  1  0.05431587  0.03695172  0.07020744  1  -0.005803  0  -0.016863  -0.028765  0  3.96915  0
C  C73  1  0.05429689  0.96304786  0.42979322  1  -0.00524  0  -0.017039  -0.028864  0  3.9691  0
C  C74  1  0.94571520  0.96304210  0.92979462  1  -0.005106  0  -0.017171  -0.029246  0  3.969603  0
C  C75  1  0.94570622  0.03694588  0.57021104  1  -0.005486  0  -0.017042  -0.02896  0  3.969361  0
C  C76  1  0.11605786  0.94328272  0.02609002  1  -0.065305  0  -0.086485  -0.097462  0  3.967114  0
C  C77  1  0.11604160  0.05671244  0.47391448  1  -0.065175  0  -0.08652  -0.09746  0  3.96737  0
C  C78  1  0.88398150  0.05671617  0.97391742  1  -0.065933  0  -0.086463  -0.097169  0  3.967401  0
C  C79  1  0.88396461  0.94328025  0.52609356  1  -0.065368  0  -0.086304  -0.097136  0  3.967342  0
C  C80  1  0.93832464  0.09363675  0.04359293  1  -0.055727  0  -0.083692  -0.093632  0  3.966577  0
C  C81  1  0.93829885  0.90636376  0.45641518  1  -0.056394  0  -0.083704  -0.093584  0  3.966438  0
C  C82  1  0.06171265  0.90636218  0.95641341  1  -0.057028  0  -0.083552  -0.093244  0  3.966145  0
C  C83  1  0.06170426  0.09362894  0.54359287  1  -0.056848  0  -0.083574  -0.093364  0  3.966549  0
C  C84  1  0.28479942  0.62711196  0.32452341  1  0.545968  0  0.058654  0.108578  0  3.935987  0
C  C85  1  0.28480916  0.37289701  0.17547663  1  0.545665  0  0.058623  0.108477  0  3.936329  0
C  C86  1  0.71519126  0.37288838  0.67547032  1  0.545468  0  0.058718  0.108574  0  3.93609  0
C  C87  1  0.71518359  0.62710810  0.82452965  1  0.545097  0  0.058648  0.108451  0  3.936227  0
C  C88  1  0.36000205  0.54552575  0.36172173  1  -0.087039  0  -0.082664  -0.121734  0  3.960611  0
C  C89  1  0.36000642  0.45447550  0.13827743  1  -0.087043  0  -0.082692  -0.121792  0  3.960547  0
C  C90  1  0.63998656  0.45447621  0.63827545  1  -0.086936  0  -0.082681  -0.121801  0  3.960657  0
C  C91  1  0.63997908  0.54552648  0.86171920  1  -0.086539  0  -0.082692  -0.121615  0  3.960525  0
C  C92  1  0.50271338  0.54441512  0.35614267  1  -0.00652  0  -0.06066  -0.068373  0  3.917128  0
C  C93  1  0.50272183  0.45558666  0.14385215  1  -0.006824  0  -0.060622  -0.068234  0  3.916889  0
C  C94  1  0.49727730  0.45558589  0.64385609  1  -0.006459  0  -0.060699  -0.068337  0  3.917219  0
C  C95  1  0.49726471  0.54441641  0.85613959  1  -0.00652  0  -0.060677  -0.068437  0  3.91712  0
C  C96  1  0.57048410  0.62441435  0.31373360  1  -0.036876  0  -0.003499  0.039067  0  4.02813  0
C  C97  1  0.57049578  0.37558748  0.18626375  1  -0.036131  0  -0.00351  0.038953  0  4.027985  0
C  C98  1  0.42950866  0.37558308  0.68626654  1  -0.036378  0  -0.0035  0.038926  0  4.027963  0
C  C99  1  0.42949179  0.62441986  0.81373109  1  -0.036891  0  -0.003464  0.039032  0  4.027935  0
C  C100  1  0.48575873  0.70294889  0.27749862  1  0.482595  0  0.11668  0.121687  0  3.975354  0
C  C101  1  0.48576442  0.29705172  0.22250225  1  0.482519  0  0.116795  0.121874  0  3.975292  0
C  C102  1  0.51423920  0.29704519  0.72249738  1  0.482654  0  0.116822  0.121941  0  3.975236  0
C  C103  1  0.51423558  0.70295801  0.77749886  1  0.482001  0  0.116906  0.12204  0  3.975277  0
C  C104  1  0.71765389  0.62713931  0.30478444  1  -0.032966  0  -0.087352  -0.128235  0  4.002695  0
C  C105  1  0.71767581  0.37285497  0.19521234  1  -0.019199  0  -0.087494  -0.128408  0  4.002879  0
C  C106  1  0.28233472  0.37285456  0.69521652  1  -0.032775  0  -0.087339  -0.128133  0  4.002646  0
C  C107  1  0.28231798  0.62714985  0.80477954  1  -0.024863  0  -0.087491  -0.128385  0  4.002978  0
C  C108  1  0.77895806  0.70312580  0.26116543  1  0.002159  0  -0.079168  -0.114335  0  3.956856  0
C  C109  1  0.77897286  0.29686790  0.23882777  1  -0.011238  0  -0.079114  -0.114162  0  3.957212  0
C  C110  1  0.22103572  0.29686543  0.73883531  1  0.002222  0  -0.07923  -0.114344  0  3.95686  0
C  C111  1  0.22102404  0.70313792  0.76116143  1  -0.004945  0  -0.079139  -0.114085  0  3.956763  0
C  C112  1  0.69696370  0.78334025  0.22368531  1  0.034778  0  -0.000331  0.043909  0  4.001011  0
C  C113  1  0.69697558  0.21665851  0.27630858  1  0.035081  0  -0.000253  0.043952  0  4.001083  0
C  C114  1  0.30303734  0.21664762  0.77631185  1  0.034686  0  -0.000365  0.043892  0  4.000811  0
C  C115  1  0.30303167  0.78334881  0.72368681  1  0.03498  0  -0.000433  0.043739  0  4.000808  0
C  C116  1  0.55048365  0.78482408  0.23209061  1  0.455001  0  0.116702  0.114362  0  3.97896  0
C  C117  1  0.55049357  0.21517408  0.26790928  1  0.454524  0  0.116656  0.11436  0  3.978995  0
C  C118  1  0.44951428  0.21516996  0.76790649  1  0.454591  0  0.116709  0.114379  0  3.978976  0
C  C119  1  0.44950954  0.78483576  0.73208908  1  0.454892  0  0.116812  0.114468  0  3.978853  0
C  C120  1  0.52769831  0.93563879  0.15632764  1  0.553129  0  0.05832  0.111071  0  3.940234  0
C  C121  1  0.52769932  0.06436635  0.34367234  1  0.553004  0  0.058313  0.111001  0  3.939961  0
C  C122  1  0.47231412  0.06436053  0.84366933  1  0.553087  0  0.058369  0.11101  0  3.940145  0
C  C123  1  0.47231414  0.93564432  0.65632719  1  0.553252  0  0.058362  0.111127  0  3.940124  0
C  C124  1  0.67141116  0.93953886  0.14432232  1  -0.018798  0  -0.082085  -0.126473  0  3.975413  0
C  C125  1  0.67141511  0.06046238  0.35567407  1  -0.019105  0  -0.081967  -0.126199  0  3.975358  0
C  C126  1  0.32860231  0.06045508  0.85567698  1  -0.019254  0  -0.082133  -0.12635  0  3.975211  0
C  C127  1  0.32860664  0.93955114  0.64432071  1  -0.018964  0  -0.082109  -0.126391  0  3.975271  0
C  C128  1  0.75644516  0.86328964  0.17800974  1  -0.06322  0  -0.055671  -0.0604  0  3.884788  0
C  C129  1  0.75644989  0.13670404  0.32198243  1  -0.063303  0  -0.055786  -0.060567  0  3.884966  0
C  C130  1  0.24355898  0.13669907  0.82198803  1  -0.063159  0  -0.055639  -0.060552  0  3.884675  0
C  C131  1  0.24356151  0.86330432  0.67800918  1  -0.063089  0  -0.055577  -0.060421  0  3.884493  0
N  N132  1  0.46950003  0.86072805  0.19869238  1  -1.235271  0  -0.320929  -0.261262  0  3.512772  0
N  N133  1  0.46950297  0.13927958  0.30130800  1  -1.234896  0  -0.320869  -0.261147  0  3.512678  0
N  N134  1  0.53050515  0.13927042  0.80130396  1  -1.235179  0  -0.320934  -0.261233  0  3.512822  0
N  N135  1  0.53050118  0.86073275  0.69869388  1  -1.235308  0  -0.320974  -0.261253  0  3.512767  0
N  N136  1  0.34595030  0.70264600  0.28362361  1  -1.212766  0  -0.322487  -0.270498  0  3.514135  0
N  N137  1  0.34595814  0.29736312  0.21637622  1  -1.212066  0  -0.32258  -0.270636  0  3.514388  0
N  N138  1  0.65404349  0.29735346  0.71637005  1  -1.212117  0  -0.322629  -0.270658  0  3.51418  0
N  N139  1  0.65403358  0.70264471  0.78362806  1  -1.212009  0  -0.322688  -0.270805  0  3.514588  0
O  O140  1  0.25721270  0.70681515  0.08861676  1  -1.180611  0  -0.33772  -0.563573  0  2.132247  0
O  O141  1  0.25721694  0.29317960  0.41138445  1  -1.180681  0  -0.337768  -0.563642  0  2.132268  0
O  O142  1  0.74277384  0.29317565  0.91137344  1  -1.180772  0  -0.337766  -0.563589  0  2.132179  0
O  O143  1  0.74277167  0.70682462  0.58862176  1  -1.180993  0  -0.33773  -0.563595  0  2.132231  0
O  O144  1  0.05703232  0.73625674  0.15091802  1  -1.161515  0  -0.334428  -0.559989  0  2.24696  0
O  O145  1  0.05703724  0.26374909  0.34908092  1  -1.162307  0  -0.334397  -0.559994  0  2.246928  0
O  O146  1  0.94296044  0.26372304  0.84908291  1  -1.162191  0  -0.334455  -0.560014  0  2.246994  0
O  O147  1  0.94294723  0.73625944  0.65092784  1  -1.162897  0  -0.334518  -0.560085  0  2.246903  0
O  O148  1  0.21631323  0.02260141  0.16961469  1  -1.186678  0  -0.343235  -0.590887  0  2.351794  0
O  O149  1  0.21630286  0.97740189  0.33039067  1  -1.185932  0  -0.34325  -0.590863  0  2.351623  0
O  O150  1  0.78371060  0.97739554  0.83039702  1  -1.185661  0  -0.343123  -0.590838  0  2.35163  0
O  O151  1  0.78371578  0.02260303  0.66962002  1  -1.186359  0  -0.343262  -0.59094  0  2.351794  0
O  O152  1  0.05722246  0.16487360  0.18286372  1  -1.156429  0  -0.315137  -0.535184  0  2.194008  0
O  O153  1  0.05718161  0.83514561  0.31713131  1  -1.156632  0  -0.315232  -0.535389  0  2.19409  0
O  O154  1  0.94279515  0.83512085  0.81714447  1  -1.157178  0  -0.315277  -0.53533  0  2.194176  0
O  O155  1  0.94278939  0.16487602  0.68285915  1  -1.156593  0  -0.31529  -0.535391  0  2.19424  0
