# generated using pymatgen
data_Zn2H24C32N6O7
_symmetry_space_group_name_H-M   'P 1'
_cell_length_a   12.56189796
_cell_length_b   14.73903016
_cell_length_c   18.82790681
_cell_angle_alpha   81.80447724
_cell_angle_beta   70.45345650
_cell_angle_gamma   64.77639462
_symmetry_Int_Tables_number   1
_chemical_formula_structural   Zn2H24C32N6O7
_chemical_formula_sum   'Zn8 H96 C128 N24 O28'
_cell_volume   2971.86449892
_cell_formula_units_Z   4
loop_
 _symmetry_equiv_pos_site_id
 _symmetry_equiv_pos_as_xyz
  1  'x, y, z'
loop_
 _atom_site_type_symbol
 _atom_site_label
 _atom_site_symmetry_multiplicity
 _atom_site_fract_x
 _atom_site_fract_y
 _atom_site_fract_z
 _atom_site_occupancy
 _atom_site_pbe_bader_charge
 _atom_site_pbe_bader_spin_density
 _atom_site_pbe_cm5_charge
 _atom_site_pbe_ddec_charge
 _atom_site_pbe_ddec_spin_density
 _atom_site_pbe_ddec_sum_bond_order
 _atom_site_pbe_magmom
Zn  Zn0  1  0.65341879  0.28929794  0.23713228  1  1.345123  0  0.668676  0.846068  0  2.412524  0
Zn  Zn1  1  0.17957425  0.71072086  0.76277882  1  1.346581  0  0.66897  0.846379  0  2.41298  0
Zn  Zn2  1  0.64026584  0.78933056  0.26276132  1  1.343166  0  0.668935  0.846995  0  2.412159  0
Zn  Zn3  1  0.69275760  0.21057287  0.73718972  1  1.3459  0  0.668661  0.846063  0  2.412037  0
Zn  Zn4  1  0.67077711  0.54572972  0.12526318  1  1.257163  0  0.70804  0.756796  0  2.30914  0
Zn  Zn5  1  0.34146826  0.45430906  0.87491814  1  1.253518  0  0.707801  0.756891  0  2.308578  0
Zn  Zn6  1  0.54552327  0.04583203  0.37476540  1  1.251904  0  0.70797  0.756669  0  2.308545  0
Zn  Zn7  1  0.96645135  0.95427437  0.62506576  1  1.255612  0  0.707775  0.756347  0  2.308813  0
H  H8  1  0.58375460  0.42319759  0.10002600  1  0.647446  0  0.287467  0.385276  0  0.959458  0
H  H9  1  0.10649513  0.57700202  0.90001284  1  0.662317  0  0.287752  0.387007  0  0.957197  0
H  H10  1  0.43326148  0.92321738  0.39979003  1  0.665731  0  0.288064  0.386798  0  0.957547  0
H  H11  1  0.75674960  0.07693737  0.59999948  1  0.675732  0  0.287421  0.38546  0  0.959212  0
H  H12  1  0.67649879  0.43566318  0.01873249  1  0.602901  0  0.328184  0.404341  0  0.87019  0
H  H13  1  0.12998087  0.56452903  0.98136172  1  0.587399  0  0.327906  0.404371  0  0.870612  0
H  H14  1  0.44436171  0.93561747  0.48113706  1  0.602885  0  0.3287  0.405569  0  0.868615  0
H  H15  1  0.86179837  0.06432136  0.51860056  1  0.619753  0  0.32749  0.403884  0  0.870728  0
H  H16  1  0.04653745  0.31890070  0.27201648  1  0.125128  0  0.103671  0.100057  0  1.032905  0
H  H17  1  0.63705500  0.68138069  0.72780647  1  0.111588  0  0.104222  0.10114  0  1.033775  0
H  H18  1  0.06846655  0.81868883  0.22813904  1  0.124258  0  0.104642  0.10181  0  1.032385  0
H  H19  1  0.11571956  0.18103220  0.77157944  1  0.102967  0  0.104182  0.101597  0  1.033755  0
H  H20  1  0.10504327  0.44467366  0.17775719  1  0.094968  0  0.107684  0.129002  0  1.007775  0
H  H21  1  0.72657182  0.55611163  0.82235151  1  0.102415  0  0.107228  0.128511  0  1.008387  0
H  H22  1  0.03232048  0.94422062  0.32260793  1  0.107156  0  0.106723  0.12741  0  1.009937  0
H  H23  1  0.29982925  0.05556256  0.67708732  1  0.107089  0  0.107415  0.128946  0  1.008084  0
H  H24  1  0.95901190  0.54852285  0.10512393  1  0.101879  0  0.118038  0.083076  0  0.999254  0
H  H25  1  0.61164971  0.45219070  0.89512506  1  0.109967  0  0.118329  0.081956  0  0.998604  0
H  H26  1  0.81337639  0.04816931  0.39516287  1  0.100488  0  0.118639  0.083512  0  0.998003  0
H  H27  1  0.25759961  0.95162763  0.60452435  1  0.099712  0  0.118171  0.082375  0  0.998384  0
H  H28  1  0.25606642  0.30038607  0.17990326  1  0.137198  0  0.101403  0.097354  0  1.052972  0
H  H29  1  0.73561793  0.70018231  0.82043619  1  0.099071  0  0.101353  0.096001  0  1.053113  0
H  H30  1  0.18554819  0.80005068  0.32007401  1  0.146871  0  0.101384  0.096575  0  1.05233  0
H  H31  1  0.30626386  0.19992659  0.67999087  1  0.11303  0  0.101131  0.0966  0  1.052841  0
H  H32  1  0.19934739  0.15738636  0.24746943  1  0.076647  0  0.104862  0.11945  0  0.999002  0
H  H33  1  0.60397549  0.84296335  0.75262355  1  0.068252  0  0.105638  0.12009  0  0.998085  0
H  H34  1  0.19683087  0.65694305  0.25252797  1  0.073418  0  0.104911  0.119643  0  0.998321  0
H  H35  1  0.10662078  0.34287405  0.74765199  1  0.072516  0  0.105583  0.120553  0  0.997174  0
H  H36  1  0.32541853  0.04431147  0.32830298  1  0.14121  0  0.120218  0.10075  0  1.011177  0
H  H37  1  0.69823824  0.95568223  0.67146388  1  0.147027  0  0.120334  0.100621  0  1.010459  0
H  H38  1  0.40401692  0.54396217  0.17169663  1  0.141649  0  0.120322  0.101454  0  1.010354  0
H  H39  1  0.11972242  0.45578242  0.82855302  1  0.146157  0  0.120223  0.101489  0  1.010244  0
H  H40  1  0.80605940  0.68141586  0.09313485  1  0.133119  0  0.121374  0.095772  0  1.031203  0
H  H41  1  0.58010163  0.31872652  0.90706407  1  0.153072  0  0.120188  0.094635  0  1.029902  0
H  H42  1  0.64855937  0.18134781  0.40695885  1  0.140551  0  0.119854  0.093556  0  1.031137  0
H  H43  1  0.23718315  0.81869318  0.59292452  1  0.144066  0  0.119884  0.09381  0  1.033072  0
H  H44  1  0.80614667  0.83133202  0.01672087  1  0.093422  0  0.107243  0.112515  0  1.020593  0
H  H45  1  0.65357606  0.16878143  0.98343404  1  0.117708  0  0.108317  0.114064  0  1.019751  0
H  H46  1  0.57222034  0.33126428  0.48334762  1  0.099133  0  0.107575  0.11288  0  1.021054  0
H  H47  1  0.38731198  0.66873805  0.51658818  1  0.107637  0  0.108084  0.113704  0  1.021286  0
H  H48  1  0.54615854  0.80565627  0.92601099  1  0.091263  0  0.104696  0.106751  0  1.040627  0
H  H49  1  0.27683544  0.19488384  0.07486760  1  0.090424  0  0.104167  0.105813  0  1.041911  0
H  H50  1  0.22157090  0.30522501  0.57489547  1  0.094237  0  0.104113  0.10698  0  1.040352  0
H  H51  1  0.10211261  0.69445398  0.42544813  1  0.089964  0  0.104251  0.105876  0  1.041186  0
H  H52  1  0.56464928  0.65022694  0.00143935  1  0.136019  0  0.118095  0.089481  0  1.025579  0
H  H53  1  0.21541655  0.35023916  0.99934663  1  0.141231  0  0.118616  0.090553  0  1.02406  0
H  H54  1  0.31535113  0.14998812  0.49928887  1  0.144384  0  0.117914  0.089724  0  1.024658  0
H  H55  1  0.96503375  0.84990062  0.50085347  1  0.141929  0  0.117936  0.090187  0  1.025681  0
H  H56  1  0.84148987  0.05534103  0.82820802  1  0.096239  0  0.111973  0.076549  0  1.046252  0
H  H57  1  0.72477706  0.94467206  0.17167025  1  0.073637  0  0.111868  0.075741  0  1.046416  0
H  H58  1  0.41942365  0.55499761  0.67193565  1  0.082063  0  0.112194  0.076534  0  1.046895  0
H  H59  1  0.64705193  0.44461411  0.32802968  1  0.080127  0  0.112214  0.076473  0  1.046651  0
H  H60  1  0.85523264  0.90378051  0.90684978  1  0.071847  0  0.104528  0.109559  0  1.042976  0
H  H61  1  0.66525069  0.09650584  0.09329014  1  0.091481  0  0.105054  0.110508  0  1.040405  0
H  H62  1  0.51158101  0.40323682  0.59355818  1  0.090122  0  0.104533  0.111055  0  1.042464  0
H  H63  1  0.50918786  0.59634142  0.40653775  1  0.078283  0  0.105042  0.111475  0  1.042508  0
H  H64  1  0.47864785  0.97428007  0.91890138  1  0.087401  0  0.101567  0.104743  0  1.040664  0
H  H65  1  0.37109911  0.02589014  0.08165271  1  0.066739  0  0.10187  0.105622  0  1.038915  0
H  H66  1  0.14694705  0.47449259  0.58137937  1  0.075266  0  0.101452  0.104058  0  1.040002  0
H  H67  1  0.20304991  0.52565648  0.41868832  1  0.082749  0  0.10192  0.105363  0  1.038483  0
H  H68  1  0.48260958  0.12173881  0.83712238  1  0.102525  0  0.113396  0.081645  0  1.010125  0
H  H69  1  0.44108153  0.87817823  0.16311299  1  0.089876  0  0.112199  0.079965  0  1.01025  0
H  H70  1  0.06938374  0.62222747  0.66283302  1  0.103066  0  0.112513  0.080136  0  1.010107  0
H  H71  1  0.35463161  0.37803892  0.33705602  1  0.078797  0  0.112149  0.080182  0  1.01026  0
H  H72  1  0.83773448  0.06618638  0.22092554  1  0.128569  0  0.113358  0.086681  0  1.031937  0
H  H73  1  0.12497463  0.93383017  0.77890850  1  0.095174  0  0.113663  0.086944  0  1.030764  0
H  H74  1  0.80903222  0.56628194  0.27897156  1  0.126568  0  0.113336  0.086932  0  1.031727  0
H  H75  1  0.65484912  0.43365449  0.72082811  1  0.130206  0  0.1132  0.086328  0  1.031689  0
H  H76  1  0.96138660  0.93326037  0.12233787  1  0.103694  0  0.106445  0.114846  0  1.053085  0
H  H77  1  0.01727509  0.06667735  0.87753410  1  0.097283  0  0.10606  0.114393  0  1.053663  0
H  H78  1  0.83413089  0.43328780  0.37750081  1  0.135755  0  0.106155  0.114614  0  1.052888  0
H  H79  1  0.64502809  0.56659079  0.62220714  1  0.101124  0  0.106314  0.114636  0  1.053952  0
H  H80  1  0.88125853  0.16957534  0.95632485  1  0.155529  0  0.107404  0.132102  0  1.04949  0
H  H81  1  0.00767160  0.83027514  0.04353302  1  0.152941  0  0.107417  0.132998  0  1.049752  0
H  H82  1  0.58657707  0.66938089  0.54354244  1  0.151867  0  0.107687  0.132804  0  1.049685  0
H  H83  1  0.80050121  0.33018774  0.45633960  1  0.152811  0  0.10731  0.132706  0  1.049158  0
H  H84  1  0.76527921  0.28875329  0.06224236  1  0.094767  0  0.115484  0.076664  0  1.024832  0
H  H85  1  0.11687338  0.71115498  0.93759728  1  0.087963  0  0.115837  0.076916  0  1.024268  0
H  H86  1  0.57633107  0.78855272  0.43768748  1  0.074405  0  0.115925  0.076968  0  1.025151  0
H  H87  1  0.80432092  0.21104595  0.56227122  1  0.085476  0  0.116151  0.077497  0  1.024258  0
H  H88  1  0.38720040  0.73894292  0.88742768  1  0.064349  0  0.102884  0.069677  0  1.039781  0
H  H89  1  0.01375656  0.26061037  0.11252381  1  0.091721  0  0.103297  0.070612  0  1.039094  0
H  H90  1  0.02454144  0.23921379  0.61251339  1  0.090117  0  0.103172  0.070819  0  1.039039  0
H  H91  1  0.87541024  0.76086013  0.38758507  1  0.089471  0  0.102813  0.070028  0  1.039544  0
H  H92  1  0.31112216  0.92246506  0.87901329  1  0.07658  0  0.105667  0.111927  0  1.011096  0
H  H93  1  0.11271100  0.07711210  0.12089783  1  0.076291  0  0.105501  0.11191  0  1.010275  0
H  H94  1  0.94036836  0.42269605  0.62093073  1  0.106663  0  0.105391  0.111882  0  1.01098  0
H  H95  1  0.98320761  0.57737874  0.37911631  1  0.032595  0  0.105661  0.111563  0  1.010543  0
H  H96  1  0.20670497  0.92778912  0.12288738  1  0.047608  0  0.106082  0.11229  0  1.005599  0
H  H97  1  0.25770789  0.07190706  0.87699002  1  0.046645  0  0.106598  0.112952  0  1.004663  0
H  H98  1  0.07980334  0.42801152  0.37701418  1  0.084668  0  0.106322  0.113313  0  1.004254  0
H  H99  1  0.88518892  0.57206277  0.62295242  1  0.046318  0  0.105654  0.112183  0  1.005827  0
H  H100  1  0.28388939  0.74401327  0.12005536  1  0.108902  0  0.106661  0.074011  0  1.036572  0
H  H101  1  0.14813784  0.25567409  0.87987500  1  0.106122  0  0.106305  0.073671  0  1.037568  0
H  H102  1  0.15388390  0.24423580  0.37984676  1  0.096154  0  0.10648  0.074276  0  1.036196  0
H  H103  1  0.77826465  0.75583043  0.62018012  1  0.095741  0  0.10689  0.074431  0  1.036269  0
C  C104  1  0.81279133  0.40383289  0.19573528  1  1.14059  0  0.19477  0.433783  0  4.136002  0
C  C105  1  0.41197544  0.59623616  0.80406963  1  1.138833  0  0.194792  0.43357  0  4.134292  0
C  C106  1  0.75813783  0.90386954  0.30411014  1  1.138392  0  0.195399  0.435003  0  4.133937  0
C  C107  1  0.96669506  0.09605639  0.69560020  1  1.154107  0  0.194114  0.432297  0  4.137671  0
C  C108  1  0.88671850  0.34514756  0.24258498  1  -0.06116  0  -0.040481  -0.224319  0  3.945864  0
C  C109  1  0.47409149  0.65493345  0.75715156  1  0.001187  0  -0.040492  -0.224864  0  3.944774  0
C  C110  1  0.87906643  0.84508470  0.25731515  1  -0.063696  0  -0.041057  -0.227686  0  3.944479  0
C  C111  1  0.98195407  0.15473695  0.74242225  1  -0.048877  0  -0.041096  -0.22516  0  3.946468  0
C  C112  1  0.99139260  0.36192908  0.23507171  1  -0.079116  0  -0.073314  -0.036209  0  3.998299  0
C  C113  1  0.58783629  0.63841618  0.76477798  1  -0.157877  0  -0.073498  -0.035934  0  3.998575  0
C  C114  1  0.97618732  0.86171430  0.26499323  1  -0.075002  0  -0.073283  -0.035834  0  3.99546  0
C  C115  1  0.10341982  0.13806909  0.73470713  1  -0.040115  0  -0.073518  -0.036725  0  3.996938  0
C  C116  1  0.02307693  0.43186538  0.18395012  1  0.010583  0  -0.110531  -0.196484  0  4.005575  0
C  C117  1  0.63817876  0.56864265  0.81599411  1  0.01128  0  -0.110407  -0.197549  0  4.008632  0
C  C118  1  0.95657631  0.93154432  0.31623423  1  -0.00416  0  -0.110411  -0.195519  0  4.006971  0
C  C119  1  0.20501125  0.06823410  0.68347193  1  -0.028767  0  -0.110514  -0.197187  0  4.005511  0
C  C120  1  0.94289653  0.48918539  0.14277796  1  0.425444  0  0.054145  0.138522  0  3.975684  0
C  C121  1  0.57412109  0.51130197  0.85727648  1  0.454091  0  0.054971  0.142752  0  3.975767  0
C  C122  1  0.83512712  0.98893560  0.35737738  1  0.43532  0  0.053598  0.138241  0  3.976688  0
C  C123  1  0.18216229  0.01089164  0.64231090  1  0.458222  0  0.055627  0.142146  0  3.973684  0
C  C124  1  0.85315446  0.27305875  0.30308506  1  1.596337  0  0.185828  0.577473  0  4.255224  0
C  C125  1  0.42919428  0.72685472  0.69654962  1  1.595003  0  0.185602  0.576803  0  4.257258  0
C  C126  1  0.90623033  0.77303903  0.19673392  1  1.595498  0  0.187789  0.582358  0  4.252779  0
C  C127  1  0.87647105  0.22670433  0.80300315  1  1.567866  0  0.186269  0.577581  0  4.257281  0
C  C128  1  0.47891344  0.19215483  0.26592170  1  1.148017  0  0.197929  0.448465  0  4.12742  0
C  C129  1  0.93673649  0.80807512  0.73417642  1  1.163768  0  0.198783  0.448759  0  4.125021  0
C  C130  1  0.49475947  0.69201447  0.23410517  1  1.167479  0  0.197058  0.446402  0  4.130589  0
C  C131  1  0.42109100  0.30786137  0.76604125  1  1.164806  0  0.197181  0.446686  0  4.129043  0
C  C132  1  0.40906754  0.26097834  0.21949810  1  -0.043228  0  -0.04438  -0.228601  0  3.939265  0
C  C133  1  0.88912574  0.73933403  0.78062330  1  -0.024252  0  -0.04527  -0.231449  0  3.939584  0
C  C134  1  0.37831369  0.76088348  0.28043318  1  -0.040901  0  -0.04541  -0.231924  0  3.942307  0
C  C135  1  0.42003747  0.23910627  0.71961588  1  -0.053404  0  -0.044212  -0.229075  0  3.943082  0
C  C136  1  0.30820185  0.24734424  0.21507086  1  -0.081197  0  -0.079349  -0.045021  0  4.029892  0
C  C137  1  0.77010261  0.75308190  0.78513762  1  -0.043754  0  -0.078721  -0.041378  0  4.028671  0
C  C138  1  0.27306382  0.74711082  0.28491448  1  -0.10355  0  -0.078548  -0.041539  0  4.027558  0
C  C139  1  0.30550974  0.25283819  0.71518557  1  -0.088296  0  -0.078807  -0.043253  0  4.030556  0
C  C140  1  0.27693604  0.16893941  0.25189086  1  -0.000775  0  -0.115937  -0.199192  0  4.05367  0
C  C141  1  0.69753233  0.83138082  0.74818378  1  -0.047378  0  -0.116767  -0.200269  0  4.053111  0
C  C142  1  0.27880401  0.66863915  0.24810692  1  -0.023672  0  -0.115202  -0.199991  0  4.052175  0
C  C143  1  0.19584947  0.33121896  0.75205202  1  0.008294  0  -0.115702  -0.199265  0  4.05282  0
C  C144  1  0.34690044  0.10568970  0.29676377  1  0.427711  0  0.052033  0.137449  0  3.938629  0
C  C145  1  0.74935636  0.89449183  0.70317754  1  0.453606  0  0.050592  0.135009  0  3.937306  0
C  C146  1  0.39384722  0.60536651  0.20326569  1  0.443408  0  0.050969  0.136776  0  3.935647  0
C  C147  1  0.20261623  0.39441816  0.79697242  1  0.431815  0  0.050757  0.134734  0  3.9385  0
C  C148  1  0.43582887  0.34601282  0.17303091  1  1.557466  0  0.19151  0.579626  0  4.230065  0
C  C149  1  0.95435147  0.65429902  0.82706951  1  1.559423  0  0.191665  0.581201  0  4.225703  0
C  C150  1  0.35836614  0.84594621  0.32684808  1  1.560841  0  0.192442  0.582253  0  4.225671  0
C  C151  1  0.53169912  0.15416601  0.67307947  1  1.55752  0  0.192224  0.58102  0  4.228117  0
C  C152  1  0.75461099  0.70761137  0.05244324  1  0.473958  0  0.055123  0.111461  0  3.899692  0
C  C153  1  0.51404351  0.29263143  0.94788795  1  0.434422  0  0.056196  0.112205  0  3.898464  0
C  C154  1  0.55641243  0.20751809  0.44776129  1  0.495572  0  0.05651  0.114515  0  3.898728  0
C  C155  1  0.21206394  0.79245309  0.55218372  1  0.466749  0  0.055961  0.113695  0  3.900842  0
C  C156  1  0.75204289  0.79347483  0.01038547  1  -0.010843  0  -0.075208  -0.151031  0  3.907162  0
C  C157  1  0.55521156  0.20676400  0.98992006  1  -0.010365  0  -0.076832  -0.154082  0  3.905659  0
C  C158  1  0.51182642  0.29329336  0.48987129  1  -0.019054  0  -0.076234  -0.15322  0  3.909008  0
C  C159  1  0.29544903  0.70662734  0.51009005  1  0.002564  0  -0.07632  -0.153182  0  3.906121  0
C  C160  1  0.67527892  0.83264195  0.96415170  1  -0.015651  0  0.015192  0.103181  0  3.968343  0
C  C161  1  0.47125602  0.16768405  0.03630445  1  0.01349  0  0.015709  0.104506  0  3.967719  0
C  C162  1  0.38882461  0.33236429  0.53628301  1  -0.036226  0  0.016356  0.105942  0  3.968553  0
C  C163  1  0.25797814  0.66745159  0.46377696  1  -0.040734  0  0.014955  0.103257  0  3.965773  0
C  C164  1  0.60665969  0.77990159  0.96126572  1  -0.016146  0  -0.07886  -0.160627  0  3.931087  0
C  C165  1  0.34692316  0.22050427  0.03938757  1  -0.018436  0  -0.079506  -0.160699  0  3.936406  0
C  C166  1  0.31725286  0.27960905  0.53936368  1  -0.003929  0  -0.078847  -0.162234  0  3.933777  0
C  C167  1  0.13666286  0.72021243  0.46081226  1  0.048391  0  -0.07806  -0.15837  0  3.932417  0
C  C168  1  0.61697262  0.69260868  0.00292061  1  0.468267  0  0.051347  0.102432  0  3.911346  0
C  C169  1  0.31167200  0.30779058  0.99772118  1  0.449141  0  0.052342  0.102216  0  3.915706  0
C  C170  1  0.36923556  0.19235704  0.49766402  1  0.441979  0  0.052028  0.103437  0  3.913316  0
C  C171  1  0.05962034  0.80748409  0.50248715  1  0.414309  0  0.05152  0.101239  0  3.914607  0
C  C172  1  0.76283670  0.03495447  0.84924998  1  0.464799  0  0.045047  0.104036  0  3.951305  0
C  C173  1  0.64663520  0.96508352  0.15078495  1  0.49363  0  0.046128  0.106112  0  3.947223  0
C  C174  1  0.36171740  0.53476989  0.65089957  1  0.479948  0  0.046551  0.107055  0  3.949089  0
C  C175  1  0.54798449  0.46500848  0.34906936  1  0.482323  0  0.046095  0.105149  0  3.950047  0
C  C176  1  0.76957585  0.95076163  0.89423108  1  0.063909  0  -0.08211  -0.164853  0  3.924557  0
C  C177  1  0.61394434  0.04947676  0.10599487  1  0.013748  0  -0.082416  -0.164873  0  3.919912  0
C  C178  1  0.41334304  0.45042323  0.60607739  1  0.020308  0  -0.082604  -0.167513  0  3.924835  0
C  C179  1  0.47049983  0.54929004  0.39398830  1  0.084255  0  -0.083128  -0.167547  0  3.922686  0
C  C180  1  0.66793193  0.92480296  0.91964348  1  -0.064695  0  0.012638  0.104545  0  3.979469  0
C  C181  1  0.51164535  0.07546586  0.08073305  1  -0.053882  0  0.01263  0.103078  0  3.980713  0
C  C182  1  0.33705875  0.42456621  0.58070560  1  -0.008986  0  0.012049  0.102522  0  3.97916  0
C  C183  1  0.34287763  0.57522023  0.41936402  1  -0.083191  0  0.011866  0.103202  0  3.977741  0
C  C184  1  0.56203230  0.98866156  0.89944860  1  0.003943  0  -0.084676  -0.176413  0  3.946832  0
C  C185  1  0.44947706  0.01152197  0.10096284  1  -0.01373  0  -0.084804  -0.176998  0  3.944964  0
C  C186  1  0.21098809  0.48867767  0.60081108  1  -0.013342  0  -0.083308  -0.172816  0  3.942136  0
C  C187  1  0.30084624  0.51129872  0.39922965  1  -0.013314  0  -0.08394  -0.17502  0  3.94221  0
C  C188  1  0.56363874  0.07160263  0.85397183  1  0.475257  0  0.046807  0.098423  0  3.954232  0
C  C189  1  0.48873442  0.92841042  0.14624053  1  0.512011  0  0.048996  0.101494  0  3.954177  0
C  C190  1  0.16720373  0.57177933  0.64610288  1  0.455828  0  0.048567  0.100438  0  3.951906  0
C  C191  1  0.38545553  0.42827108  0.35384711  1  0.471062  0  0.048929  0.10061  0  3.952463  0
C  C192  1  0.84946211  0.08475391  0.16147952  1  0.499998  0  0.045014  0.095235  0  3.940299  0
C  C193  1  0.09600486  0.91519375  0.83835993  1  0.483013  0  0.045705  0.096572  0  3.938682  0
C  C194  1  0.76093442  0.58478829  0.33840525  1  0.453784  0  0.046044  0.095941  0  3.940305  0
C  C195  1  0.68472539  0.41507550  0.66141851  1  0.439664  0  0.04588  0.097783  0  3.940663  0
C  C196  1  0.91771810  0.01109489  0.10603472  1  -0.056088  0  -0.084864  -0.181944  0  3.935737  0
C  C197  1  0.03512177  0.98882647  0.89381460  1  -0.048545  0  -0.08421  -0.181468  0  3.93555  0
C  C198  1  0.77384043  0.51109716  0.39381743  1  -0.056771  0  -0.08483  -0.18227  0  3.93628  0
C  C199  1  0.67915122  0.48872458  0.60596333  1  -0.051444  0  -0.085014  -0.183064  0  3.93801  0
C  C200  1  0.92952826  0.03818336  0.03003662  1  -0.125618  0  0.008667  0.098287  0  3.972503  0
C  C201  1  0.99789137  0.96173167  0.96981071  1  0.000682  0  0.007171  0.097851  0  3.974189  0
C  C202  1  0.70918058  0.53809516  0.46980744  1  -0.070478  0  0.008469  0.099128  0  3.973708  0
C  C203  1  0.71759081  0.46162774  0.53000795  1  -0.020006  0  0.008142  0.098833  0  3.975547  0
C  C204  1  0.87412111  0.14061836  0.01374575  1  0.029847  0  -0.084272  -0.180384  0  3.914233  0
C  C205  1  0.02885958  0.85926804  0.98610100  1  -0.008417  0  -0.084245  -0.181796  0  3.915573  0
C  C206  1  0.63722413  0.64048887  0.48612598  1  0.036636  0  -0.08382  -0.180608  0  3.915489  0
C  C207  1  0.76472645  0.35916892  0.51373884  1  -0.009404  0  -0.084494  -0.181807  0  3.915717  0
C  C208  1  0.80863133  0.20885509  0.07294764  1  0.455247  0  0.048017  0.104793  0  3.958041  0
C  C209  1  0.09088634  0.79106133  0.92689381  1  0.463584  0  0.048261  0.105277  0  3.95755  0
C  C210  1  0.63091811  0.70874405  0.42695962  1  0.477914  0  0.047087  0.103681  0  3.960515  0
C  C211  1  0.76768522  0.29095276  0.57295169  1  0.447591  0  0.048002  0.104747  0  3.957165  0
C  C212  1  0.34654886  0.78321307  0.93891062  1  0.484463  0  0.036757  0.088819  0  4.007455  0
C  C213  1  0.06882451  0.21639414  0.06102150  1  0.534674  0  0.035836  0.08633  0  4.009462  0
C  C214  1  0.03543357  0.28346071  0.56102734  1  0.539386  0  0.037254  0.087734  0  4.00911  0
C  C215  1  0.87935909  0.71661912  0.43905655  1  0.538586  0  0.036085  0.087689  0  4.008617  0
C  C216  1  0.30481380  0.88727567  0.93431506  1  -0.025044  0  -0.090893  -0.192353  0  3.974665  0
C  C217  1  0.12660927  0.11234345  0.06559781  1  -0.062653  0  -0.091057  -0.191017  0  3.974216  0
C  C218  1  0.98917468  0.38749827  0.56562225  1  -0.174388  0  -0.092032  -0.192564  0  3.975905  0
C  C219  1  0.94188861  0.61257048  0.43442032  1  -0.04767  0  -0.092519  -0.192835  0  3.973481  0
C  C220  1  0.25125464  0.94433109  0.00065125  1  0.00294  0  9.6e-05  0.084812  0  4.005039  0
C  C221  1  0.19643238  0.05531643  0.99922241  1  -0.144272  0  -9.1e-05  0.082103  0  4.006097  0
C  C222  1  0.00198527  0.44452652  0.49926999  1  0.054998  0  0.000793  0.084302  0  4.004141  0
C  C223  1  0.94570090  0.55550512  0.50073386  1  -0.15518  0  0.000944  0.084297  0  4.004537  0
C  C224  1  0.24609938  0.89019748  0.06853498  1  -0.05183  0  -0.087315  -0.179567  0  3.941644  0
C  C225  1  0.20506338  0.10947402  0.93134739  1  -0.05958  0  -0.08672  -0.179056  0  3.940272  0
C  C226  1  0.06479322  0.39039748  0.43137646  1  -0.093276  0  -0.087338  -0.180425  0  3.942259  0
C  C227  1  0.88672425  0.60964089  0.56861277  1  -0.019838  0  -0.086922  -0.179313  0  3.94123  0
C  C228  1  0.28986325  0.78599526  0.06729572  1  0.530847  0  0.045165  0.105158  0  3.980798  0
C  C229  1  0.14336608  0.21367709  0.93262012  1  0.535563  0  0.044641  0.104917  0  3.980145  0
C  C230  1  0.10716348  0.28620132  0.43261846  1  0.547132  0  0.044735  0.103687  0  3.982512  0
C  C231  1  0.82609344  0.71383791  0.56741551  1  0.540625  0  0.045255  0.105224  0  3.979501  0
N  N232  1  0.84051540  0.47653248  0.14935350  1  -1.252191  0  -0.348788  -0.362141  0  3.480851  0
N  N233  1  0.46578961  0.52375285  0.85062597  1  -1.243033  0  -0.35021  -0.365044  0  3.481961  0
N  N234  1  0.73932574  0.97644439  0.35062492  1  -1.254473  0  -0.348833  -0.362048  0  3.479505  0
N  N235  1  0.06706768  0.02350481  0.64905636  1  -1.282618  0  -0.350319  -0.364846  0  3.481968  0
N  N236  1  0.44228780  0.11828668  0.30421869  1  -1.240571  0  -0.357209  -0.353438  0  3.509258  0
N  N237  1  0.86480583  0.88187190  0.69573916  1  -1.251646  0  -0.356458  -0.351346  0  3.505673  0
N  N238  1  0.49665315  0.61806216  0.19583254  1  -1.248057  0  -0.356632  -0.353917  0  3.509651  0
N  N239  1  0.31062813  0.38172730  0.80442885  1  -1.241423  0  -0.356058  -0.352306  0  3.508702  0
N  N240  1  0.68895514  0.65726115  0.04847386  1  -1.253071  0  -0.3241  -0.222608  0  3.54609  0
N  N241  1  0.39397886  0.34302472  0.95198834  1  -1.243232  0  -0.324056  -0.222041  0  3.547799  0
N  N242  1  0.48674910  0.15711554  0.45187223  1  -1.255173  0  -0.323608  -0.223537  0  3.545867  0
N  N243  1  0.09611244  0.84285295  0.54811191  1  -1.254621  0  -0.322655  -0.222551  0  3.547476  0
N  N244  1  0.66279834  0.09424941  0.82804368  1  -1.227118  0  -0.307994  -0.232058  0  3.468939  0
N  N245  1  0.58476554  0.90566727  0.17197565  1  -1.227295  0  -0.310108  -0.234969  0  3.47066  0
N  N246  1  0.24048662  0.59432148  0.67199602  1  -1.211489  0  -0.31115  -0.236748  0  3.470274  0
N  N247  1  0.50726949  0.40563481  0.32793377  1  -1.208186  0  -0.310474  -0.23464  0  3.470584  0
N  N248  1  0.79393048  0.18239206  0.14572214  1  -1.234576  0  -0.317247  -0.235366  0  3.497346  0
N  N249  1  0.12231256  0.81756026  0.85411141  1  -1.238064  0  -0.318232  -0.237262  0  3.498668  0
N  N250  1  0.68920883  0.68237538  0.35417634  1  -1.242333  0  -0.318101  -0.23652  0  3.499117  0
N  N251  1  0.72675492  0.31743233  0.64570649  1  -1.224552  0  -0.317684  -0.237212  0  3.497988  0
N  N252  1  0.33965936  0.73174714  0.00391916  1  -1.186487  0  -0.32499  -0.265436  0  3.283558  0
N  N253  1  0.07550607  0.26788482  0.99602639  1  -1.185432  0  -0.324081  -0.263583  0  3.283317  0
N  N254  1  0.09345905  0.23199568  0.49602055  1  -1.195966  0  -0.324682  -0.264092  0  3.284554  0
N  N255  1  0.82119629  0.76806466  0.50406899  1  -1.18589  0  -0.323952  -0.264439  0  3.283786  0
O  O256  1  0.71201882  0.40136900  0.19366174  1  -1.179271  0  -0.324653  -0.546401  0  2.497452  0
O  O257  1  0.30677304  0.59856848  0.80606904  1  -1.184873  0  -0.324253  -0.5449  0  2.496253  0
O  O258  1  0.65534346  0.90143274  0.30603112  1  -1.179017  0  -0.325128  -0.546914  0  2.498202  0
O  O259  1  0.86339060  0.09846212  0.69369965  1  -1.176428  0  -0.323391  -0.543695  0  2.49611  0
O  O260  1  0.77239997  0.24195535  0.30133500  1  -1.188442  0  -0.340325  -0.580515  0  2.325895  0
O  O261  1  0.31560313  0.75791199  0.69827499  1  -1.193409  0  -0.338169  -0.578614  0  2.328789  0
O  O262  1  0.82368566  0.74197020  0.19849891  1  -1.186491  0  -0.340263  -0.581733  0  2.327574  0
O  O263  1  0.76453836  0.25773528  0.80141321  1  -1.180639  0  -0.338641  -0.578989  0  2.327268  0
O  O264  1  0.90581566  0.24886885  0.35327405  1  -1.183271  0  -0.348186  -0.565315  0  2.092503  0
O  O265  1  0.50800818  0.75100187  0.64634693  1  -1.191843  0  -0.350398  -0.567082  0  2.092258  0
O  O266  1  0.00920734  0.74894269  0.14654370  1  -1.182252  0  -0.349946  -0.568462  0  2.092018  0
O  O267  1  0.90510837  0.25085889  0.85311675  1  -1.17732  0  -0.35048  -0.567559  0  2.092817  0
O  O268  1  0.57434104  0.19131679  0.27818775  1  -1.176809  0  -0.32528  -0.5496  0  2.411351  0
O  O269  1  0.04361745  0.80890049  0.72193831  1  -1.182999  0  -0.325789  -0.549214  0  2.410634  0
O  O270  1  0.60246313  0.69123814  0.22181537  1  -1.172613  0  -0.324589  -0.547303  0  2.412583  0
O  O271  1  0.51571761  0.30864928  0.77827371  1  -1.178622  0  -0.325361  -0.54899  0  2.410857  0
O  O272  1  0.54276674  0.34859869  0.16281974  1  -1.185702  0  -0.330692  -0.590616  0  2.364194  0
O  O273  1  0.05375825  0.65153396  0.83726337  1  -1.183976  0  -0.329585  -0.589698  0  2.36246  0
O  O274  1  0.45501458  0.84865327  0.33706402  1  -1.183718  0  -0.330433  -0.591315  0  2.360464  0
O  O275  1  0.64126699  0.15148852  0.66286911  1  -1.181343  0  -0.329927  -0.589831  0  2.362604  0
O  O276  1  0.35631661  0.40865992  0.14507511  1  -1.172436  0  -0.339221  -0.543609  0  2.066995  0
O  O277  1  0.90944644  0.59166689  0.85497959  1  -1.173781  0  -0.340166  -0.545075  0  2.065714  0
O  O278  1  0.25084967  0.90858776  0.35473510  1  -1.174985  0  -0.340384  -0.544624  0  2.066866  0
O  O279  1  0.51484026  0.09161892  0.64504421  1  -1.165923  0  -0.340892  -0.545246  0  2.067504  0
O  O280  1  0.61685634  0.47176006  0.06441948  1  -1.228869  0  -0.56018  -0.728651  0  2.133115  0
O  O281  1  0.15252385  0.52848260  0.93560234  1  -1.226513  0  -0.560191  -0.730444  0  2.132099  0
O  O282  1  0.43067409  0.97173114  0.43543216  1  -1.245968  0  -0.561539  -0.731656  0  2.13031  0
O  O283  1  0.83834403  0.02832641  0.56437017  1  -1.272983  0  -0.559559  -0.728653  0  2.132355  0
